MODEL 1
REMARK VINA RESULT:      -7.2      0.000      0.000
REMARK  Name = 5288859
REMARK  3 active torsions:
REMARK  status: ('A' for Active; 'I' for Inactive)
REMARK    1  A    between atoms: C_6  and  N_13
REMARK    2  A    between atoms: C_12  and  S_17
REMARK    3  A    between atoms: S_17  and  N_20
REMARK                            x       y       z     vdW  Elec       q    Type
REMARK                         _______ _______ _______ _____ _____    ______ ____
ROOT
ATOM      1  S   UNL     1      37.266 -25.152 -12.607  0.00  0.00    +0.012 S 
ATOM      2  S   UNL     1      34.373 -24.512 -12.575  0.00  0.00    -0.049 S 
ATOM      3  O   UNL     1      37.066 -26.584 -12.663  0.00  0.00    -0.168 OA
ATOM      4  O   UNL     1      37.413 -24.422 -11.366  0.00  0.00    -0.168 OA
ATOM      5  C   UNL     1      38.578 -24.662 -13.747  0.00  0.00    +0.133 C 
ATOM      6  C   UNL     1      36.949 -23.772 -15.575  0.00  0.00    -0.035 C 
ATOM      7  C   UNL     1      38.100 -24.743 -15.212  0.00  0.00    +0.007 C 
ATOM      8  C   UNL     1      35.766 -23.909 -14.660  0.00  0.00    -0.017 C 
ATOM      9  C   UNL     1      35.853 -24.467 -13.403  0.00  0.00    +0.130 C 
ATOM     10  C   UNL     1      39.811 -25.531 -13.521  0.00  0.00    +0.026 C 
ATOM     11  C   UNL     1      34.421 -23.507 -14.940  0.00  0.00    +0.022 C 
ATOM     12  C   UNL     1      33.565 -23.772 -13.891  0.00  0.00    +0.152 C 
ENDROOT
BRANCH   6  13
ATOM     13  N   UNL     1      37.386 -22.375 -15.551  0.00  0.00    +0.386 N 
ATOM     14  C   UNL     1      37.112 -21.729 -16.824  0.00  0.00    -0.105 C 
ATOM     15  H   UNL     1      38.390 -22.342 -15.368  0.00  0.00    -0.084 HD
ATOM     16  H   UNL     1      36.876 -21.884 -14.817  0.00  0.00    -0.084 HD
ENDBRANCH   6  13
BRANCH  12  17
ATOM     17  S   UNL     1      31.845 -23.510 -13.646  0.00  0.00    +0.063 S 
ATOM     18  O   UNL     1      31.330 -22.801 -14.805  0.00  0.00    -0.153 OA
ATOM     19  O   UNL     1      31.251 -24.770 -13.235  0.00  0.00    -0.153 OA
BRANCH  17  20
ATOM     20  N   UNL     1      31.876 -22.449 -12.310  0.00  0.00    -0.203 NA
ATOM     21  H   UNL     1      32.639 -22.711 -11.686  0.00  0.00    +0.144 HD
ATOM     22  H   UNL     1      30.990 -22.508 -11.808  0.00  0.00    +0.144 HD
ENDBRANCH  17  20
ENDBRANCH  12  17
TORSDOF 3
ENDMDL
MODEL 2
REMARK VINA RESULT:      -7.2      2.521      5.770
REMARK  Name = 5288859
REMARK  3 active torsions:
REMARK  status: ('A' for Active; 'I' for Inactive)
REMARK    1  A    between atoms: C_6  and  N_13
REMARK    2  A    between atoms: C_12  and  S_17
REMARK    3  A    between atoms: S_17  and  N_20
REMARK                            x       y       z     vdW  Elec       q    Type
REMARK                         _______ _______ _______ _____ _____    ______ ____
ROOT
ATOM      1  S   UNL     1      31.796 -24.247 -14.275  0.00  0.00    +0.012 S 
ATOM      2  S   UNL     1      34.670 -24.414 -13.575  0.00  0.00    -0.049 S 
ATOM      3  O   UNL     1      31.486 -23.269 -13.255  0.00  0.00    -0.168 OA
ATOM      4  O   UNL     1      31.689 -25.675 -14.061  0.00  0.00    -0.168 OA
ATOM      5  C   UNL     1      30.974 -23.812 -15.823  0.00  0.00    +0.133 C 
ATOM      6  C   UNL     1      33.119 -22.838 -16.936  0.00  0.00    -0.035 C 
ATOM      7  C   UNL     1      31.654 -22.599 -16.493  0.00  0.00    +0.007 C 
ATOM      8  C   UNL     1      33.988 -23.338 -15.818  0.00  0.00    -0.017 C 
ATOM      9  C   UNL     1      33.480 -23.948 -14.691  0.00  0.00    +0.130 C 
ATOM     10  C   UNL     1      29.495 -23.543 -15.567  0.00  0.00    +0.026 C 
ATOM     11  C   UNL     1      35.415 -23.258 -15.746  0.00  0.00    +0.022 C 
ATOM     12  C   UNL     1      35.914 -23.809 -14.585  0.00  0.00    +0.152 C 
ENDROOT
BRANCH   6  13
ATOM     13  N   UNL     1      33.205 -23.790 -18.044  0.00  0.00    +0.386 N 
ATOM     14  C   UNL     1      33.891 -23.197 -19.179  0.00  0.00    -0.105 C 
ATOM     15  H   UNL     1      32.262 -24.061 -18.326  0.00  0.00    -0.084 HD
ATOM     16  H   UNL     1      33.729 -24.608 -17.733  0.00  0.00    -0.084 HD
ENDBRANCH   6  13
BRANCH  12  17
ATOM     17  S   UNL     1      37.540 -24.005 -13.947  0.00  0.00    +0.063 S 
ATOM     18  O   UNL     1      37.807 -22.892 -13.052  0.00  0.00    -0.153 OA
ATOM     19  O   UNL     1      37.679 -25.372 -13.477  0.00  0.00    -0.153 OA
BRANCH  17  20
ATOM     20  N   UNL     1      38.461 -23.810 -15.371  0.00  0.00    -0.203 NA
ATOM     21  H   UNL     1      39.368 -23.407 -15.135  0.00  0.00    +0.144 HD
ATOM     22  H   UNL     1      37.968 -23.188 -16.012  0.00  0.00    +0.144 HD
ENDBRANCH  17  20
ENDBRANCH  12  17
TORSDOF 3
ENDMDL
MODEL 3
REMARK VINA RESULT:      -7.2      3.260      4.857
REMARK  Name = 5288859
REMARK  3 active torsions:
REMARK  status: ('A' for Active; 'I' for Inactive)
REMARK    1  A    between atoms: C_6  and  N_13
REMARK    2  A    between atoms: C_12  and  S_17
REMARK    3  A    between atoms: S_17  and  N_20
REMARK                            x       y       z     vdW  Elec       q    Type
REMARK                         _______ _______ _______ _____ _____    ______ ____
ROOT
ATOM      1  S   UNL     1      34.370 -22.427 -18.878  0.00  0.00    +0.012 S 
ATOM      2  S   UNL     1      32.405 -23.485 -16.929  0.00  0.00    -0.049 S 
ATOM      3  O   UNL     1      33.664 -21.182 -19.089  0.00  0.00    -0.168 OA
ATOM      4  O   UNL     1      34.158 -23.606 -19.690  0.00  0.00    -0.168 OA
ATOM      5  C   UNL     1      36.143 -22.118 -18.727  0.00  0.00    +0.133 C 
ATOM      6  C   UNL     1      36.177 -22.337 -16.131  0.00  0.00    -0.035 C 
ATOM      7  C   UNL     1      36.480 -21.461 -17.372  0.00  0.00    +0.007 C 
ATOM      8  C   UNL     1      34.759 -22.831 -16.103  0.00  0.00    -0.017 C 
ATOM      9  C   UNL     1      33.969 -22.901 -17.230  0.00  0.00    +0.130 C 
ATOM     10  C   UNL     1      36.619 -21.255 -19.891  0.00  0.00    +0.026 C 
ATOM     11  C   UNL     1      34.035 -23.280 -14.953  0.00  0.00    +0.022 C 
ATOM     12  C   UNL     1      32.748 -23.668 -15.261  0.00  0.00    +0.152 C 
ENDROOT
BRANCH   6  13
ATOM     13  N   UNL     1      37.067 -23.496 -16.053  0.00  0.00    +0.386 N 
ATOM     14  C   UNL     1      37.536 -23.693 -14.691  0.00  0.00    -0.105 C 
ATOM     15  H   UNL     1      37.869 -23.344 -16.664  0.00  0.00    -0.084 HD
ATOM     16  H   UNL     1      36.551 -24.326 -16.346  0.00  0.00    -0.084 HD
ENDBRANCH   6  13
BRANCH  12  17
ATOM     17  S   UNL     1      31.418 -24.296 -14.301  0.00  0.00    +0.063 S 
ATOM     18  O   UNL     1      30.922 -23.218 -13.462  0.00  0.00    -0.153 OA
ATOM     19  O   UNL     1      30.515 -25.007 -15.189  0.00  0.00    -0.153 OA
BRANCH  17  20
ATOM     20  N   UNL     1      32.242 -25.428 -13.325  0.00  0.00    -0.203 NA
ATOM     21  H   UNL     1      32.126 -25.178 -12.343  0.00  0.00    +0.144 HD
ATOM     22  H   UNL     1      33.234 -25.423 -13.563  0.00  0.00    +0.144 HD
ENDBRANCH  17  20
ENDBRANCH  12  17
TORSDOF 3
ENDMDL
MODEL 4
REMARK VINA RESULT:      -7.0      1.759      1.907
REMARK  Name = 5288859
REMARK  3 active torsions:
REMARK  status: ('A' for Active; 'I' for Inactive)
REMARK    1  A    between atoms: C_6  and  N_13
REMARK    2  A    between atoms: C_12  and  S_17
REMARK    3  A    between atoms: S_17  and  N_20
REMARK                            x       y       z     vdW  Elec       q    Type
REMARK                         _______ _______ _______ _____ _____    ______ ____
ROOT
ATOM      1  S   UNL     1      35.996 -24.292 -12.773  0.00  0.00    +0.012 S 
ATOM      2  S   UNL     1      33.192 -24.004 -13.683  0.00  0.00    -0.049 S 
ATOM      3  O   UNL     1      35.929 -25.732 -12.648  0.00  0.00    -0.168 OA
ATOM      4  O   UNL     1      35.706 -23.388 -11.681  0.00  0.00    -0.168 OA
ATOM      5  C   UNL     1      37.552 -23.808 -13.551  0.00  0.00    +0.133 C 
ATOM      6  C   UNL     1      36.494 -23.374 -15.892  0.00  0.00    -0.035 C 
ATOM      7  C   UNL     1      37.549 -24.143 -15.058  0.00  0.00    +0.007 C 
ATOM      8  C   UNL     1      35.102 -23.527 -15.348  0.00  0.00    -0.017 C 
ATOM      9  C   UNL     1      34.845 -23.895 -14.045  0.00  0.00    +0.130 C 
ATOM     10  C   UNL     1      38.720 -24.484 -12.839  0.00  0.00    +0.026 C 
ATOM     11  C   UNL     1      33.880 -23.331 -16.065  0.00  0.00    +0.022 C 
ATOM     12  C   UNL     1      32.768 -23.551 -15.280  0.00  0.00    +0.152 C 
ENDROOT
BRANCH   6  13
ATOM     13  N   UNL     1      36.799 -21.945 -15.974  0.00  0.00    +0.386 N 
ATOM     14  C   UNL     1      37.008 -21.543 -17.355  0.00  0.00    -0.105 C 
ATOM     15  H   UNL     1      37.645 -21.753 -15.437  0.00  0.00    -0.084 HD
ATOM     16  H   UNL     1      36.012 -21.420 -15.594  0.00  0.00    -0.084 HD
ENDBRANCH   6  13
BRANCH  12  17
ATOM     17  S   UNL     1      31.041 -23.466 -15.588  0.00  0.00    +0.063 S 
ATOM     18  O   UNL     1      30.560 -24.818 -15.821  0.00  0.00    -0.153 OA
ATOM     19  O   UNL     1      30.438 -22.643 -14.554  0.00  0.00    -0.153 OA
BRANCH  17  20
ATOM     20  N   UNL     1      31.027 -22.606 -17.061  0.00  0.00    -0.203 NA
ATOM     21  H   UNL     1      31.399 -23.198 -17.804  0.00  0.00    +0.144 HD
ATOM     22  H   UNL     1      31.603 -21.769 -16.972  0.00  0.00    +0.144 HD
ENDBRANCH  17  20
ENDBRANCH  12  17
TORSDOF 3
ENDMDL
MODEL 5
REMARK VINA RESULT:      -6.8      3.093      6.292
REMARK  Name = 5288859
REMARK  3 active torsions:
REMARK  status: ('A' for Active; 'I' for Inactive)
REMARK    1  A    between atoms: C_6  and  N_13
REMARK    2  A    between atoms: C_12  and  S_17
REMARK    3  A    between atoms: S_17  and  N_20
REMARK                            x       y       z     vdW  Elec       q    Type
REMARK                         _______ _______ _______ _____ _____    ______ ____
ROOT
ATOM      1  S   UNL     1      35.269 -23.347 -15.425  0.00  0.00    +0.012 S 
ATOM      2  S   UNL     1      38.096 -24.231 -15.513  0.00  0.00    -0.049 S 
ATOM      3  O   UNL     1      34.828 -24.273 -16.446  0.00  0.00    -0.168 OA
ATOM      4  O   UNL     1      35.710 -21.999 -15.715  0.00  0.00    -0.168 OA
ATOM      5  C   UNL     1      34.080 -23.307 -14.067  0.00  0.00    +0.133 C 
ATOM      6  C   UNL     1      35.506 -24.814 -12.490  0.00  0.00    -0.035 C 
ATOM      7  C   UNL     1      34.157 -24.596 -13.221  0.00  0.00    +0.007 C 
ATOM      8  C   UNL     1      36.683 -24.760 -13.421  0.00  0.00    -0.017 C 
ATOM      9  C   UNL     1      36.636 -24.144 -14.653  0.00  0.00    +0.130 C 
ATOM     10  C   UNL     1      32.673 -23.093 -14.617  0.00  0.00    +0.026 C 
ATOM     11  C   UNL     1      37.979 -25.321 -13.189  0.00  0.00    +0.022 C 
ATOM     12  C   UNL     1      38.843 -25.101 -14.241  0.00  0.00    +0.152 C 
ENDROOT
BRANCH   6  13
ATOM     13  N   UNL     1      35.716 -23.828 -11.429  0.00  0.00    +0.386 N 
ATOM     14  C   UNL     1      35.538 -24.435 -10.121  0.00  0.00    -0.105 C 
ATOM     15  H   UNL     1      35.043 -23.068 -11.540  0.00  0.00    -0.084 HD
ATOM     16  H   UNL     1      36.668 -23.470 -11.498  0.00  0.00    -0.084 HD
ENDBRANCH   6  13
BRANCH  12  17
ATOM     17  S   UNL     1      40.521 -25.533 -14.531  0.00  0.00    +0.063 S 
ATOM     18  O   UNL     1      41.315 -24.318 -14.462  0.00  0.00    -0.153 OA
ATOM     19  O   UNL     1      40.847 -26.669 -13.687  0.00  0.00    -0.153 OA
BRANCH  17  20
ATOM     20  N   UNL     1      40.436 -26.053 -16.154  0.00  0.00    -0.203 NA
ATOM     21  H   UNL     1      40.931 -26.940 -16.253  0.00  0.00    +0.144 HD
ATOM     22  H   UNL     1      40.868 -25.353 -16.758  0.00  0.00    +0.144 HD
ENDBRANCH  17  20
ENDBRANCH  12  17
TORSDOF 3
ENDMDL
MODEL 6
REMARK VINA RESULT:      -6.2     11.290     13.336
REMARK  Name = 5288859
REMARK  3 active torsions:
REMARK  status: ('A' for Active; 'I' for Inactive)
REMARK    1  A    between atoms: C_6  and  N_13
REMARK    2  A    between atoms: C_12  and  S_17
REMARK    3  A    between atoms: S_17  and  N_20
REMARK                            x       y       z     vdW  Elec       q    Type
REMARK                         _______ _______ _______ _____ _____    ______ ____
ROOT
ATOM      1  S   UNL     1      34.807 -18.250 -23.331  0.00  0.00    +0.012 S 
ATOM      2  S   UNL     1      34.158 -16.221 -25.390  0.00  0.00    -0.049 S 
ATOM      3  O   UNL     1      36.215 -18.304 -23.663  0.00  0.00    -0.168 OA
ATOM      4  O   UNL     1      33.820 -19.127 -23.925  0.00  0.00    -0.168 OA
ATOM      5  C   UNL     1      34.591 -18.234 -21.539  0.00  0.00    +0.133 C 
ATOM      6  C   UNL     1      34.118 -15.675 -21.404  0.00  0.00    -0.035 C 
ATOM      7  C   UNL     1      34.991 -16.869 -20.942  0.00  0.00    +0.007 C 
ATOM      8  C   UNL     1      34.042 -15.560 -22.900  0.00  0.00    -0.017 C 
ATOM      9  C   UNL     1      34.307 -16.614 -23.747  0.00  0.00    +0.130 C 
ATOM     10  C   UNL     1      35.394 -19.368 -20.910  0.00  0.00    +0.026 C 
ATOM     11  C   UNL     1      33.704 -14.387 -23.648  0.00  0.00    +0.022 C 
ATOM     12  C   UNL     1      33.724 -14.608 -25.009  0.00  0.00    +0.152 C 
ENDROOT
BRANCH   6  13
ATOM     13  N   UNL     1      32.754 -15.764 -20.882  0.00  0.00    +0.386 N 
ATOM     14  C   UNL     1      32.393 -14.545 -20.178  0.00  0.00    -0.105 C 
ATOM     15  H   UNL     1      32.693 -16.553 -20.237  0.00  0.00    -0.084 HD
ATOM     16  H   UNL     1      32.111 -15.895 -21.663  0.00  0.00    -0.084 HD
ENDBRANCH   6  13
BRANCH  12  17
ATOM     17  S   UNL     1      33.403 -13.584 -26.399  0.00  0.00    +0.063 S 
ATOM     18  O   UNL     1      33.542 -12.200 -25.978  0.00  0.00    -0.153 OA
ATOM     19  O   UNL     1      34.177 -14.088 -27.520  0.00  0.00    -0.153 OA
BRANCH  17  20
ATOM     20  N   UNL     1      31.752 -13.923 -26.666  0.00  0.00    -0.203 NA
ATOM     21  H   UNL     1      31.566 -14.900 -26.439  0.00  0.00    +0.144 HD
ATOM     22  H   UNL     1      31.524 -13.752 -27.646  0.00  0.00    +0.144 HD
ENDBRANCH  17  20
ENDBRANCH  12  17
TORSDOF 3
ENDMDL
MODEL 7
REMARK VINA RESULT:      -6.1     12.868     15.557
REMARK  Name = 5288859
REMARK  3 active torsions:
REMARK  status: ('A' for Active; 'I' for Inactive)
REMARK    1  A    between atoms: C_6  and  N_13
REMARK    2  A    between atoms: C_12  and  S_17
REMARK    3  A    between atoms: S_17  and  N_20
REMARK                            x       y       z     vdW  Elec       q    Type
REMARK                         _______ _______ _______ _____ _____    ______ ____
ROOT
ATOM      1  S   UNL     1      31.710 -10.507 -22.206  0.00  0.00    +0.012 S 
ATOM      2  S   UNL     1      32.278 -13.284 -21.344  0.00  0.00    -0.049 S 
ATOM      3  O   UNL     1      32.277  -9.901 -21.021  0.00  0.00    -0.168 OA
ATOM      4  O   UNL     1      30.311 -10.860 -22.323  0.00  0.00    -0.168 OA
ATOM      5  C   UNL     1      32.221  -9.593 -23.677  0.00  0.00    +0.133 C 
ATOM      6  C   UNL     1      34.042 -11.318 -24.378  0.00  0.00    -0.035 C 
ATOM      7  C   UNL     1      33.706  -9.853 -24.006  0.00  0.00    +0.007 C 
ATOM      8  C   UNL     1      33.586 -12.300 -23.336  0.00  0.00    -0.017 C 
ATOM      9  C   UNL     1      32.602 -12.010 -22.415  0.00  0.00    +0.130 C 
ATOM     10  C   UNL     1      31.952  -8.104 -23.480  0.00  0.00    +0.026 C 
ATOM     11  C   UNL     1      34.084 -13.627 -23.140  0.00  0.00    +0.022 C 
ATOM     12  C   UNL     1      33.457 -14.274 -22.096  0.00  0.00    +0.152 C 
ENDROOT
BRANCH   6  13
ATOM     13  N   UNL     1      33.450 -11.704 -25.660  0.00  0.00    +0.386 N 
ATOM     14  C   UNL     1      34.470 -11.788 -26.692  0.00  0.00    -0.105 C 
ATOM     15  H   UNL     1      32.756 -11.007 -25.932  0.00  0.00    -0.084 HD
ATOM     16  H   UNL     1      33.012 -12.619 -25.557  0.00  0.00    -0.084 HD
ENDBRANCH   6  13
BRANCH  12  17
ATOM     17  S   UNL     1      33.628 -15.876 -21.396  0.00  0.00    +0.063 S 
ATOM     18  O   UNL     1      32.377 -16.215 -20.739  0.00  0.00    -0.153 OA
ATOM     19  O   UNL     1      34.183 -16.755 -22.410  0.00  0.00    -0.153 OA
BRANCH  17  20
ATOM     20  N   UNL     1      34.818 -15.575 -20.210  0.00  0.00    -0.203 NA
ATOM     21  H   UNL     1      35.744 -15.640 -20.634  0.00  0.00    +0.144 HD
ATOM     22  H   UNL     1      34.736 -16.266 -19.464  0.00  0.00    +0.144 HD
ENDBRANCH  17  20
ENDBRANCH  12  17
TORSDOF 3
ENDMDL
MODEL 8
REMARK VINA RESULT:      -6.0     12.588     14.321
REMARK  Name = 5288859
REMARK  3 active torsions:
REMARK  status: ('A' for Active; 'I' for Inactive)
REMARK    1  A    between atoms: C_6  and  N_13
REMARK    2  A    between atoms: C_12  and  S_17
REMARK    3  A    between atoms: S_17  and  N_20
REMARK                            x       y       z     vdW  Elec       q    Type
REMARK                         _______ _______ _______ _____ _____    ______ ____
ROOT
ATOM      1  S   UNL     1      34.198 -16.769 -25.262  0.00  0.00    +0.012 S 
ATOM      2  S   UNL     1      33.720 -13.848 -25.383  0.00  0.00    -0.049 S 
ATOM      3  O   UNL     1      35.455 -16.710 -25.977  0.00  0.00    -0.168 OA
ATOM      4  O   UNL     1      32.924 -16.977 -25.917  0.00  0.00    -0.168 OA
ATOM      5  C   UNL     1      34.337 -17.892 -23.854  0.00  0.00    +0.133 C 
ATOM      6  C   UNL     1      34.578 -15.991 -22.089  0.00  0.00    -0.035 C 
ATOM      7  C   UNL     1      35.183 -17.267 -22.725  0.00  0.00    +0.007 C 
ATOM      8  C   UNL     1      34.253 -14.935 -23.107  0.00  0.00    -0.017 C 
ATOM      9  C   UNL     1      34.070 -15.216 -24.444  0.00  0.00    +0.130 C 
ATOM     10  C   UNL     1      34.923 -19.224 -24.310  0.00  0.00    +0.026 C 
ATOM     11  C   UNL     1      34.095 -13.534 -22.860  0.00  0.00    +0.022 C 
ATOM     12  C   UNL     1      33.799 -12.830 -24.008  0.00  0.00    +0.152 C 
ENDROOT
BRANCH   6  13
ATOM     13  N   UNL     1      33.362 -16.285 -21.330  0.00  0.00    +0.386 N 
ATOM     14  C   UNL     1      33.118 -15.257 -20.332  0.00  0.00    -0.105 C 
ATOM     15  H   UNL     1      33.468 -17.186 -20.863  0.00  0.00    -0.084 HD
ATOM     16  H   UNL     1      32.572 -16.312 -21.974  0.00  0.00    -0.084 HD
ENDBRANCH   6  13
BRANCH  12  17
ATOM     17  S   UNL     1      33.498 -11.130 -24.333  0.00  0.00    +0.063 S 
ATOM     18  O   UNL     1      33.188 -10.991 -25.746  0.00  0.00    -0.153 OA
ATOM     19  O   UNL     1      32.572 -10.635 -23.329  0.00  0.00    -0.153 OA
BRANCH  17  20
ATOM     20  N   UNL     1      35.044 -10.474 -24.033  0.00  0.00    -0.203 NA
ATOM     21  H   UNL     1      35.120  -9.562 -24.485  0.00  0.00    +0.144 HD
ATOM     22  H   UNL     1      35.757 -11.100 -24.408  0.00  0.00    +0.144 HD
ENDBRANCH  17  20
ENDBRANCH  12  17
TORSDOF 3
ENDMDL
MODEL 9
REMARK VINA RESULT:      -6.0      2.765      3.542
REMARK  Name = 5288859
REMARK  3 active torsions:
REMARK  status: ('A' for Active; 'I' for Inactive)
REMARK    1  A    between atoms: C_6  and  N_13
REMARK    2  A    between atoms: C_12  and  S_17
REMARK    3  A    between atoms: S_17  and  N_20
REMARK                            x       y       z     vdW  Elec       q    Type
REMARK                         _______ _______ _______ _____ _____    ______ ____
ROOT
ATOM      1  S   UNL     1      36.592 -24.783 -15.181  0.00  0.00    +0.012 S 
ATOM      2  S   UNL     1      33.816 -24.155 -16.002  0.00  0.00    -0.049 S 
ATOM      3  O   UNL     1      37.183 -23.700 -15.938  0.00  0.00    -0.168 OA
ATOM      4  O   UNL     1      36.418 -26.118 -15.713  0.00  0.00    -0.168 OA
ATOM      5  C   UNL     1      37.353 -24.885 -13.547  0.00  0.00    +0.133 C 
ATOM      6  C   UNL     1      35.370 -23.724 -12.317  0.00  0.00    -0.035 C 
ATOM      7  C   UNL     1      36.885 -23.725 -12.642  0.00  0.00    +0.007 C 
ATOM      8  C   UNL     1      34.514 -23.767 -13.551  0.00  0.00    -0.017 C 
ATOM      9  C   UNL     1      34.978 -24.216 -14.768  0.00  0.00    +0.130 C 
ATOM     10  C   UNL     1      38.872 -24.900 -13.682  0.00  0.00    +0.026 C 
ATOM     11  C   UNL     1      33.146 -23.360 -13.652  0.00  0.00    +0.022 C 
ATOM     12  C   UNL     1      32.643 -23.523 -14.926  0.00  0.00    +0.152 C 
ENDROOT
BRANCH   6  13
ATOM     13  N   UNL     1      34.996 -24.850 -11.461  0.00  0.00    +0.386 N 
ATOM     14  C   UNL     1      35.467 -24.640 -10.102  0.00  0.00    -0.105 C 
ATOM     15  H   UNL     1      35.412 -25.705 -11.831  0.00  0.00    -0.084 HD
ATOM     16  H   UNL     1      33.979 -24.928 -11.448  0.00  0.00    -0.084 HD
ENDBRANCH   6  13
BRANCH  12  17
ATOM     17  S   UNL     1      31.072 -23.212 -15.649  0.00  0.00    +0.063 S 
ATOM     18  O   UNL     1      30.280 -22.458 -14.692  0.00  0.00    -0.153 OA
ATOM     19  O   UNL     1      31.285 -22.697 -16.990  0.00  0.00    -0.153 OA
BRANCH  17  20
ATOM     20  N   UNL     1      30.456 -24.800 -15.756  0.00  0.00    -0.203 NA
ATOM     21  H   UNL     1      29.598 -24.869 -15.207  0.00  0.00    +0.144 HD
ATOM     22  H   UNL     1      31.146 -25.457 -15.392  0.00  0.00    +0.144 HD
ENDBRANCH  17  20
ENDBRANCH  12  17
TORSDOF 3
ENDMDL
