MODEL 1
REMARK VINA RESULT:      -8.7      0.000      0.000
REMARK  Name = 2345
REMARK  4 active torsions:
REMARK  status: ('A' for Active; 'I' for Inactive)
REMARK    1  A    between atoms: O_1  and  C_3
REMARK    2  A    between atoms: O_1  and  C_10
REMARK    3  A    between atoms: C_3  and  C_4
REMARK    4  A    between atoms: C_10  and  C_11
REMARK                            x       y       z     vdW  Elec       q    Type
REMARK                         _______ _______ _______ _____ _____    ______ ____
ROOT
ATOM      1  O   UNL     1      35.434 -17.307 -21.558  0.00  0.00    -0.440 OA
ENDROOT
BRANCH   1   3
ATOM      2  O   UNL     1      35.252 -16.954 -23.824  0.00  0.00    -0.245 OA
ATOM      3  C   UNL     1      34.948 -16.661 -22.661  0.00  0.00    +0.342 C 
BRANCH   3   4
ATOM      4  C   UNL     1      34.034 -15.590 -22.294  0.00  0.00    +0.076 C 
ATOM      5  C   UNL     1      33.568 -14.707 -23.267  0.00  0.00    +0.006 C 
ATOM      6  C   UNL     1      33.627 -15.445 -20.968  0.00  0.00    +0.006 C 
ATOM      7  C   UNL     1      32.693 -13.680 -22.916  0.00  0.00    +0.000 C 
ATOM      8  C   UNL     1      32.751 -14.418 -20.616  0.00  0.00    +0.000 C 
ATOM      9  C   UNL     1      32.284 -13.535 -21.590  0.00  0.00    +0.000 C 
ENDBRANCH   3   4
ENDBRANCH   1   3
BRANCH   1  10
ATOM     10  C   UNL     1      35.924 -18.639 -21.751  0.00  0.00    +0.235 C 
BRANCH  10  11
ATOM     11  C   UNL     1      35.063 -19.596 -20.979  0.00  0.00    +0.021 C 
ATOM     12  C   UNL     1      35.658 -20.609 -20.235  0.00  0.00    -0.001 C 
ATOM     13  C   UNL     1      33.680 -19.460 -21.015  0.00  0.00    -0.001 C 
ATOM     14  C   UNL     1      34.858 -21.498 -19.517  0.00  0.00    -0.000 C 
ATOM     15  C   UNL     1      32.881 -20.349 -20.297  0.00  0.00    -0.000 C 
ATOM     16  C   UNL     1      33.470 -21.368 -19.548  0.00  0.00    -0.000 C 
ENDBRANCH  10  11
ENDBRANCH   1  10
TORSDOF 4
ENDMDL
MODEL 2
REMARK VINA RESULT:      -8.7      4.249      7.904
REMARK  Name = 2345
REMARK  4 active torsions:
REMARK  status: ('A' for Active; 'I' for Inactive)
REMARK    1  A    between atoms: O_1  and  C_3
REMARK    2  A    between atoms: O_1  and  C_10
REMARK    3  A    between atoms: C_3  and  C_4
REMARK    4  A    between atoms: C_10  and  C_11
REMARK                            x       y       z     vdW  Elec       q    Type
REMARK                         _______ _______ _______ _____ _____    ______ ____
ROOT
ATOM      1  O   UNL     1      34.124 -23.052 -18.051  0.00  0.00    -0.440 OA
ENDROOT
BRANCH   1   3
ATOM      2  O   UNL     1      35.178 -23.847 -16.166  0.00  0.00    -0.245 OA
ATOM      3  C   UNL     1      34.165 -23.419 -16.734  0.00  0.00    +0.342 C 
BRANCH   3   4
ATOM      4  C   UNL     1      32.872 -23.244 -16.090  0.00  0.00    +0.076 C 
ATOM      5  C   UNL     1      31.730 -23.041 -16.863  0.00  0.00    +0.006 C 
ATOM      6  C   UNL     1      32.777 -23.277 -14.699  0.00  0.00    +0.006 C 
ATOM      7  C   UNL     1      30.490 -22.873 -16.245  0.00  0.00    +0.000 C 
ATOM      8  C   UNL     1      31.538 -23.110 -14.081  0.00  0.00    +0.000 C 
ATOM      9  C   UNL     1      30.394 -22.908 -14.854  0.00  0.00    +0.000 C 
ENDBRANCH   3   4
ENDBRANCH   1   3
BRANCH   1  10
ATOM     10  C   UNL     1      35.225 -22.280 -18.543  0.00  0.00    +0.235 C 
BRANCH  10  11
ATOM     11  C   UNL     1      34.716 -21.275 -19.535  0.00  0.00    +0.021 C 
ATOM     12  C   UNL     1      33.347 -21.080 -19.674  0.00  0.00    -0.001 C 
ATOM     13  C   UNL     1      35.618 -20.549 -20.304  0.00  0.00    -0.001 C 
ATOM     14  C   UNL     1      32.873 -20.146 -20.595  0.00  0.00    -0.000 C 
ATOM     15  C   UNL     1      35.144 -19.615 -21.224  0.00  0.00    -0.000 C 
ATOM     16  C   UNL     1      33.772 -19.414 -21.371  0.00  0.00    -0.000 C 
ENDBRANCH  10  11
ENDBRANCH   1  10
TORSDOF 4
ENDMDL
MODEL 3
REMARK VINA RESULT:      -8.7      0.637      5.781
REMARK  Name = 2345
REMARK  4 active torsions:
REMARK  status: ('A' for Active; 'I' for Inactive)
REMARK    1  A    between atoms: O_1  and  C_3
REMARK    2  A    between atoms: O_1  and  C_10
REMARK    3  A    between atoms: C_3  and  C_4
REMARK    4  A    between atoms: C_10  and  C_11
REMARK                            x       y       z     vdW  Elec       q    Type
REMARK                         _______ _______ _______ _____ _____    ______ ____
ROOT
ATOM      1  O   UNL     1      34.835 -17.878 -22.647  0.00  0.00    -0.440 OA
ENDROOT
BRANCH   1   3
ATOM      2  O   UNL     1      36.913 -18.490 -21.871  0.00  0.00    -0.245 OA
ATOM      3  C   UNL     1      35.682 -18.622 -21.873  0.00  0.00    +0.342 C 
BRANCH   3   4
ATOM      4  C   UNL     1      34.956 -19.584 -21.058  0.00  0.00    +0.076 C 
ATOM      5  C   UNL     1      35.651 -20.572 -20.361  0.00  0.00    +0.006 C 
ATOM      6  C   UNL     1      33.565 -19.518 -20.975  0.00  0.00    +0.006 C 
ATOM      7  C   UNL     1      34.955 -21.495 -19.580  0.00  0.00    +0.000 C 
ATOM      8  C   UNL     1      32.870 -20.441 -20.194  0.00  0.00    +0.000 C 
ATOM      9  C   UNL     1      33.565 -21.429 -19.496  0.00  0.00    +0.000 C 
ENDBRANCH   3   4
ENDBRANCH   1   3
BRANCH   1  10
ATOM     10  C   UNL     1      35.234 -16.533 -22.935  0.00  0.00    +0.235 C 
BRANCH  10  11
ATOM     11  C   UNL     1      34.217 -15.587 -22.364  0.00  0.00    +0.021 C 
ATOM     12  C   UNL     1      33.598 -14.660 -23.195  0.00  0.00    -0.001 C 
ATOM     13  C   UNL     1      33.904 -15.647 -21.011  0.00  0.00    -0.001 C 
ATOM     14  C   UNL     1      32.653 -13.782 -22.666  0.00  0.00    -0.000 C 
ATOM     15  C   UNL     1      32.959 -14.769 -20.482  0.00  0.00    -0.000 C 
ATOM     16  C   UNL     1      32.334 -13.835 -21.309  0.00  0.00    -0.000 C 
ENDBRANCH  10  11
ENDBRANCH   1  10
TORSDOF 4
ENDMDL
MODEL 4
REMARK VINA RESULT:      -8.7      0.074      1.210
REMARK  Name = 2345
REMARK  4 active torsions:
REMARK  status: ('A' for Active; 'I' for Inactive)
REMARK    1  A    between atoms: O_1  and  C_3
REMARK    2  A    between atoms: O_1  and  C_10
REMARK    3  A    between atoms: C_3  and  C_4
REMARK    4  A    between atoms: C_10  and  C_11
REMARK                            x       y       z     vdW  Elec       q    Type
REMARK                         _______ _______ _______ _____ _____    ______ ____
ROOT
ATOM      1  O   UNL     1      35.353 -17.286 -21.524  0.00  0.00    -0.440 OA
ENDROOT
BRANCH   1   3
ATOM      2  O   UNL     1      35.280 -16.886 -23.789  0.00  0.00    -0.245 OA
ATOM      3  C   UNL     1      34.929 -16.610 -22.634  0.00  0.00    +0.342 C 
BRANCH   3   4
ATOM      4  C   UNL     1      34.020 -15.528 -22.287  0.00  0.00    +0.076 C 
ATOM      5  C   UNL     1      33.525 -14.686 -23.283  0.00  0.00    +0.006 C 
ATOM      6  C   UNL     1      33.645 -15.333 -20.958  0.00  0.00    +0.006 C 
ATOM      7  C   UNL     1      32.654 -13.650 -22.950  0.00  0.00    +0.000 C 
ATOM      8  C   UNL     1      32.773 -14.296 -20.625  0.00  0.00    +0.000 C 
ATOM      9  C   UNL     1      32.278 -13.454 -21.622  0.00  0.00    +0.000 C 
ENDBRANCH   3   4
ENDBRANCH   1   3
BRANCH   1  10
ATOM     10  C   UNL     1      35.886 -18.599 -21.730  0.00  0.00    +0.235 C 
BRANCH  10  11
ATOM     11  C   UNL     1      35.059 -19.590 -20.964  0.00  0.00    +0.021 C 
ATOM     12  C   UNL     1      33.673 -19.479 -20.971  0.00  0.00    -0.001 C 
ATOM     13  C   UNL     1      35.686 -20.609 -20.256  0.00  0.00    -0.001 C 
ATOM     14  C   UNL     1      32.904 -20.400 -20.260  0.00  0.00    -0.000 C 
ATOM     15  C   UNL     1      34.916 -21.529 -19.545  0.00  0.00    -0.000 C 
ATOM     16  C   UNL     1      33.525 -21.425 -19.546  0.00  0.00    -0.000 C 
ENDBRANCH  10  11
ENDBRANCH   1  10
TORSDOF 4
ENDMDL
MODEL 5
REMARK VINA RESULT:      -8.7      0.645      5.751
REMARK  Name = 2345
REMARK  4 active torsions:
REMARK  status: ('A' for Active; 'I' for Inactive)
REMARK    1  A    between atoms: O_1  and  C_3
REMARK    2  A    between atoms: O_1  and  C_10
REMARK    3  A    between atoms: C_3  and  C_4
REMARK    4  A    between atoms: C_10  and  C_11
REMARK                            x       y       z     vdW  Elec       q    Type
REMARK                         _______ _______ _______ _____ _____    ______ ____
ROOT
ATOM      1  O   UNL     1      34.874 -17.950 -22.557  0.00  0.00    -0.440 OA
ENDROOT
BRANCH   1   3
ATOM      2  O   UNL     1      36.939 -18.584 -21.762  0.00  0.00    -0.245 OA
ATOM      3  C   UNL     1      35.707 -18.704 -21.777  0.00  0.00    +0.342 C 
BRANCH   3   4
ATOM      4  C   UNL     1      34.964 -19.664 -20.974  0.00  0.00    +0.076 C 
ATOM      5  C   UNL     1      33.574 -19.588 -20.907  0.00  0.00    +0.006 C 
ATOM      6  C   UNL     1      35.644 -20.658 -20.270  0.00  0.00    +0.006 C 
ATOM      7  C   UNL     1      32.862 -20.508 -20.137  0.00  0.00    +0.000 C 
ATOM      8  C   UNL     1      34.933 -21.577 -19.501  0.00  0.00    +0.000 C 
ATOM      9  C   UNL     1      33.541 -21.503 -19.434  0.00  0.00    +0.000 C 
ENDBRANCH   3   4
ENDBRANCH   1   3
BRANCH   1  10
ATOM     10  C   UNL     1      35.294 -16.611 -22.846  0.00  0.00    +0.235 C 
BRANCH  10  11
ATOM     11  C   UNL     1      34.261 -15.652 -22.331  0.00  0.00    +0.021 C 
ATOM     12  C   UNL     1      33.640 -14.773 -23.211  0.00  0.00    -0.001 C 
ATOM     13  C   UNL     1      33.936 -15.650 -20.979  0.00  0.00    -0.001 C 
ATOM     14  C   UNL     1      32.680 -13.881 -22.733  0.00  0.00    -0.000 C 
ATOM     15  C   UNL     1      32.976 -14.758 -20.502  0.00  0.00    -0.000 C 
ATOM     16  C   UNL     1      32.348 -13.873 -21.378  0.00  0.00    -0.000 C 
ENDBRANCH  10  11
ENDBRANCH   1  10
TORSDOF 4
ENDMDL
MODEL 6
REMARK VINA RESULT:      -8.7      4.263      7.934
REMARK  Name = 2345
REMARK  4 active torsions:
REMARK  status: ('A' for Active; 'I' for Inactive)
REMARK    1  A    between atoms: O_1  and  C_3
REMARK    2  A    between atoms: O_1  and  C_10
REMARK    3  A    between atoms: C_3  and  C_4
REMARK    4  A    between atoms: C_10  and  C_11
REMARK                            x       y       z     vdW  Elec       q    Type
REMARK                         _______ _______ _______ _____ _____    ______ ____
ROOT
ATOM      1  O   UNL     1      34.166 -23.049 -18.043  0.00  0.00    -0.440 OA
ENDROOT
BRANCH   1   3
ATOM      2  O   UNL     1      35.218 -23.828 -16.151  0.00  0.00    -0.245 OA
ATOM      3  C   UNL     1      34.204 -23.410 -16.725  0.00  0.00    +0.342 C 
BRANCH   3   4
ATOM      4  C   UNL     1      32.906 -23.245 -16.087  0.00  0.00    +0.076 C 
ATOM      5  C   UNL     1      32.803 -23.287 -14.697  0.00  0.00    +0.006 C 
ATOM      6  C   UNL     1      31.767 -23.047 -16.866  0.00  0.00    +0.006 C 
ATOM      7  C   UNL     1      31.559 -23.128 -14.086  0.00  0.00    +0.000 C 
ATOM      8  C   UNL     1      30.524 -22.888 -16.255  0.00  0.00    +0.000 C 
ATOM      9  C   UNL     1      30.420 -22.929 -14.864  0.00  0.00    +0.000 C 
ENDBRANCH   3   4
ENDBRANCH   1   3
BRANCH   1  10
ATOM     10  C   UNL     1      35.255 -22.257 -18.529  0.00  0.00    +0.235 C 
BRANCH  10  11
ATOM     11  C   UNL     1      34.735 -21.273 -19.536  0.00  0.00    +0.021 C 
ATOM     12  C   UNL     1      35.630 -20.563 -20.329  0.00  0.00    -0.001 C 
ATOM     13  C   UNL     1      33.365 -21.080 -19.667  0.00  0.00    -0.001 C 
ATOM     14  C   UNL     1      35.148 -19.648 -21.265  0.00  0.00    -0.000 C 
ATOM     15  C   UNL     1      32.882 -20.166 -20.603  0.00  0.00    -0.000 C 
ATOM     16  C   UNL     1      33.774 -19.449 -21.401  0.00  0.00    -0.000 C 
ENDBRANCH  10  11
ENDBRANCH   1  10
TORSDOF 4
ENDMDL
MODEL 7
REMARK VINA RESULT:      -8.7      0.832      1.304
REMARK  Name = 2345
REMARK  4 active torsions:
REMARK  status: ('A' for Active; 'I' for Inactive)
REMARK    1  A    between atoms: O_1  and  C_3
REMARK    2  A    between atoms: O_1  and  C_10
REMARK    3  A    between atoms: C_3  and  C_4
REMARK    4  A    between atoms: C_10  and  C_11
REMARK                            x       y       z     vdW  Elec       q    Type
REMARK                         _______ _______ _______ _____ _____    ______ ____
ROOT
ATOM      1  O   UNL     1      34.579 -17.522 -22.007  0.00  0.00    -0.440 OA
ENDROOT
BRANCH   1   3
ATOM      2  O   UNL     1      35.209 -16.337 -20.137  0.00  0.00    -0.245 OA
ATOM      3  C   UNL     1      34.645 -16.393 -21.238  0.00  0.00    +0.342 C 
BRANCH   3   4
ATOM      4  C   UNL     1      33.970 -15.272 -21.873  0.00  0.00    +0.076 C 
ATOM      5  C   UNL     1      34.420 -14.793 -23.103  0.00  0.00    +0.006 C 
ATOM      6  C   UNL     1      32.873 -14.675 -21.251  0.00  0.00    +0.006 C 
ATOM      7  C   UNL     1      33.772 -13.718 -23.712  0.00  0.00    +0.000 C 
ATOM      8  C   UNL     1      32.226 -13.601 -21.860  0.00  0.00    +0.000 C 
ATOM      9  C   UNL     1      32.675 -13.122 -23.091  0.00  0.00    +0.000 C 
ENDBRANCH   3   4
ENDBRANCH   1   3
BRANCH   1  10
ATOM     10  C   UNL     1      35.571 -18.526 -21.769  0.00  0.00    +0.235 C 
BRANCH  10  11
ATOM     11  C   UNL     1      34.967 -19.628 -20.948  0.00  0.00    +0.021 C 
ATOM     12  C   UNL     1      35.796 -20.536 -20.300  0.00  0.00    -0.001 C 
ATOM     13  C   UNL     1      33.584 -19.729 -20.842  0.00  0.00    -0.001 C 
ATOM     14  C   UNL     1      35.235 -21.560 -19.537  0.00  0.00    -0.000 C 
ATOM     15  C   UNL     1      33.024 -20.753 -20.078  0.00  0.00    -0.000 C 
ATOM     16  C   UNL     1      33.849 -21.669 -19.426  0.00  0.00    -0.000 C 
ENDBRANCH  10  11
ENDBRANCH   1  10
TORSDOF 4
ENDMDL
MODEL 8
REMARK VINA RESULT:      -8.6      0.996      1.836
REMARK  Name = 2345
REMARK  4 active torsions:
REMARK  status: ('A' for Active; 'I' for Inactive)
REMARK    1  A    between atoms: O_1  and  C_3
REMARK    2  A    between atoms: O_1  and  C_10
REMARK    3  A    between atoms: C_3  and  C_4
REMARK    4  A    between atoms: C_10  and  C_11
REMARK                            x       y       z     vdW  Elec       q    Type
REMARK                         _______ _______ _______ _____ _____    ______ ____
ROOT
ATOM      1  O   UNL     1      34.178 -17.608 -21.695  0.00  0.00    -0.440 OA
ENDROOT
BRANCH   1   3
ATOM      2  O   UNL     1      35.218 -16.334 -20.086  0.00  0.00    -0.245 OA
ATOM      3  C   UNL     1      34.505 -16.424 -21.094  0.00  0.00    +0.342 C 
BRANCH   3   4
ATOM      4  C   UNL     1      33.911 -15.290 -21.786  0.00  0.00    +0.076 C 
ATOM      5  C   UNL     1      34.469 -14.832 -22.979  0.00  0.00    +0.006 C 
ATOM      6  C   UNL     1      32.786 -14.661 -21.254  0.00  0.00    +0.006 C 
ATOM      7  C   UNL     1      33.899 -13.745 -23.643  0.00  0.00    +0.000 C 
ATOM      8  C   UNL     1      32.217 -13.574 -21.917  0.00  0.00    +0.000 C 
ATOM      9  C   UNL     1      32.774 -13.116 -23.112  0.00  0.00    +0.000 C 
ENDBRANCH   3   4
ENDBRANCH   1   3
BRANCH   1  10
ATOM     10  C   UNL     1      35.203 -18.605 -21.763  0.00  0.00    +0.235 C 
BRANCH  10  11
ATOM     11  C   UNL     1      34.827 -19.757 -20.878  0.00  0.00    +0.021 C 
ATOM     12  C   UNL     1      33.485 -20.020 -20.625  0.00  0.00    -0.001 C 
ATOM     13  C   UNL     1      35.822 -20.550 -20.319  0.00  0.00    -0.001 C 
ATOM     14  C   UNL     1      33.134 -21.090 -19.802  0.00  0.00    -0.000 C 
ATOM     15  C   UNL     1      35.471 -21.621 -19.497  0.00  0.00    -0.000 C 
ATOM     16  C   UNL     1      34.127 -21.890 -19.238  0.00  0.00    -0.000 C 
ENDBRANCH  10  11
ENDBRANCH   1  10
TORSDOF 4
ENDMDL
MODEL 9
REMARK VINA RESULT:      -8.4      4.159      6.620
REMARK  Name = 2345
REMARK  4 active torsions:
REMARK  status: ('A' for Active; 'I' for Inactive)
REMARK    1  A    between atoms: O_1  and  C_3
REMARK    2  A    between atoms: O_1  and  C_10
REMARK    3  A    between atoms: C_3  and  C_4
REMARK    4  A    between atoms: C_10  and  C_11
REMARK                            x       y       z     vdW  Elec       q    Type
REMARK                         _______ _______ _______ _____ _____    ______ ____
ROOT
ATOM      1  O   UNL     1      34.337 -22.497 -17.508  0.00  0.00    -0.440 OA
ENDROOT
BRANCH   1   3
ATOM      2  O   UNL     1      33.984 -23.866 -19.324  0.00  0.00    -0.245 OA
ATOM      3  C   UNL     1      34.150 -22.738 -18.842  0.00  0.00    +0.342 C 
BRANCH   3   4
ATOM      4  C   UNL     1      34.172 -21.507 -19.617  0.00  0.00    +0.076 C 
ATOM      5  C   UNL     1      35.389 -20.967 -20.031  0.00  0.00    +0.006 C 
ATOM      6  C   UNL     1      32.977 -20.867 -19.943  0.00  0.00    +0.006 C 
ATOM      7  C   UNL     1      35.411 -19.787 -20.774  0.00  0.00    +0.000 C 
ATOM      8  C   UNL     1      32.999 -19.686 -20.686  0.00  0.00    +0.000 C 
ATOM      9  C   UNL     1      34.217 -19.146 -21.102  0.00  0.00    +0.000 C 
ENDBRANCH   3   4
ENDBRANCH   1   3
BRANCH   1  10
ATOM     10  C   UNL     1      34.072 -23.580 -16.611  0.00  0.00    +0.235 C 
BRANCH  10  11
ATOM     11  C   UNL     1      32.751 -23.347 -15.937  0.00  0.00    +0.021 C 
ATOM     12  C   UNL     1      32.674 -23.375 -14.549  0.00  0.00    -0.001 C 
ATOM     13  C   UNL     1      31.619 -23.105 -16.706  0.00  0.00    -0.001 C 
ATOM     14  C   UNL     1      31.447 -23.157 -13.922  0.00  0.00    -0.000 C 
ATOM     15  C   UNL     1      30.392 -22.887 -16.079  0.00  0.00    -0.000 C 
ATOM     16  C   UNL     1      30.306 -22.914 -14.686  0.00  0.00    -0.000 C 
ENDBRANCH  10  11
ENDBRANCH   1  10
TORSDOF 4
ENDMDL
