MODEL 1
REMARK VINA RESULT:      -9.3      0.000      0.000
REMARK  Name = 24916788
REMARK  2 active torsions:
REMARK  status: ('A' for Active; 'I' for Inactive)
REMARK    1  A    between atoms: C_17  and  O_22
REMARK    2  A    between atoms: C_20  and  O_24
REMARK                            x       y       z     vdW  Elec       q    Type
REMARK                         _______ _______ _______ _____ _____    ______ ____
ROOT
ATOM      1 CL   UNL     1      34.218  -6.347 -25.608  0.00  0.00    -0.079 Cl
ATOM      2  O   UNL     1      31.766  -8.506 -20.645  0.00  0.00    -0.445 OA
ATOM      3  O   UNL     1      35.354  -9.207 -24.688  0.00  0.00    -0.296 OA
ATOM      4  O   UNL     1      33.422  -7.059 -19.904  0.00  0.00    -0.245 OA
ATOM      5  C   UNL     1      33.658 -11.373 -24.129  0.00  0.00    +0.008 C 
ATOM      6  C   UNL     1      32.464 -12.324 -23.986  0.00  0.00    +0.005 C 
ATOM      7  C   UNL     1      33.515 -10.058 -23.368  0.00  0.00    +0.065 C 
ATOM      8  C   UNL     1      32.216 -12.869 -22.574  0.00  0.00    +0.026 C 
ATOM      9  C   UNL     1      34.620  -7.755 -22.936  0.00  0.00    +0.092 C 
ATOM     10  C   UNL     1      34.566  -9.028 -23.759  0.00  0.00    +0.155 C 
ATOM     11  C   UNL     1      33.364  -6.931 -23.059  0.00  0.00    +0.008 C 
ATOM     12  C   UNL     1      32.410  -6.819 -22.033  0.00  0.00    +0.107 C 
ATOM     13  C   UNL     1      31.434 -11.932 -21.699  0.00  0.00    -0.031 C 
ATOM     14  C   UNL     1      33.106  -6.271 -24.271  0.00  0.00    +0.088 C 
ATOM     15  C   UNL     1      31.070 -10.575 -19.618  0.00  0.00    +0.073 C 
ATOM     16  C   UNL     1      31.844 -11.522 -20.489  0.00  0.00    -0.027 C 
ATOM     17  C   UNL     1      31.240  -6.071 -22.209  0.00  0.00    +0.143 C 
ATOM     18  C   UNL     1      31.823  -9.261 -19.422  0.00  0.00    +0.213 C 
ATOM     19  C   UNL     1      32.614  -7.453 -20.725  0.00  0.00    +0.344 C 
ATOM     20  C   UNL     1      31.939  -5.525 -24.451  0.00  0.00    +0.147 C 
ATOM     21  C   UNL     1      31.006  -5.427 -23.421  0.00  0.00    +0.074 C 
ENDROOT
BRANCH  17  22
ATOM     22  O   UNL     1      30.303  -5.968 -21.223  0.00  0.00    -0.505 OA
ATOM     23  H   UNL     1      29.930  -6.742 -20.849  0.00  0.00    +0.292 HD
ENDBRANCH  17  22
BRANCH  20  24
ATOM     24  O   UNL     1      31.676  -4.877 -25.622  0.00  0.00    -0.505 OA
ATOM     25  H   UNL     1      31.352  -5.354 -26.360  0.00  0.00    +0.292 HD
ENDBRANCH  20  24
TORSDOF 2
ENDMDL
MODEL 2
REMARK VINA RESULT:      -7.8      3.623      6.570
REMARK  Name = 24916788
REMARK  2 active torsions:
REMARK  status: ('A' for Active; 'I' for Inactive)
REMARK    1  A    between atoms: C_17  and  O_22
REMARK    2  A    between atoms: C_20  and  O_24
REMARK                            x       y       z     vdW  Elec       q    Type
REMARK                         _______ _______ _______ _____ _____    ______ ____
ROOT
ATOM      1 CL   UNL     1      32.580  -9.708 -21.998  0.00  0.00    -0.079 Cl
ATOM      2  O   UNL     1      34.016 -14.389 -25.366  0.00  0.00    -0.445 OA
ATOM      3  O   UNL     1      31.717 -12.551 -20.778  0.00  0.00    -0.296 OA
ATOM      4  O   UNL     1      32.019 -13.610 -26.257  0.00  0.00    -0.245 OA
ATOM      5  C   UNL     1      33.537 -14.670 -20.505  0.00  0.00    +0.008 C 
ATOM      6  C   UNL     1      34.792 -15.549 -20.438  0.00  0.00    +0.005 C 
ATOM      7  C   UNL     1      33.275 -14.042 -21.871  0.00  0.00    +0.065 C 
ATOM      8  C   UNL     1      34.760 -16.816 -21.302  0.00  0.00    +0.026 C 
ATOM      9  C   UNL     1      31.748 -12.397 -23.163  0.00  0.00    +0.092 C 
ATOM     10  C   UNL     1      32.207 -12.958 -21.831  0.00  0.00    +0.155 C 
ATOM     11  C   UNL     1      32.848 -11.678 -23.901  0.00  0.00    +0.008 C 
ATOM     12  C   UNL     1      33.483 -12.198 -25.041  0.00  0.00    +0.107 C 
ATOM     13  C   UNL     1      35.139 -16.575 -22.735  0.00  0.00    -0.031 C 
ATOM     14  C   UNL     1      33.295 -10.442 -23.406  0.00  0.00    +0.088 C 
ATOM     15  C   UNL     1      34.749 -16.682 -25.212  0.00  0.00    +0.073 C 
ATOM     16  C   UNL     1      34.378 -16.934 -23.779  0.00  0.00    -0.027 C 
ATOM     17  C   UNL     1      34.526 -11.508 -25.669  0.00  0.00    +0.143 C 
ATOM     18  C   UNL     1      33.773 -15.712 -25.875  0.00  0.00    +0.213 C 
ATOM     19  C   UNL     1      33.060 -13.469 -25.640  0.00  0.00    +0.344 C 
ATOM     20  C   UNL     1      34.337  -9.751 -24.028  0.00  0.00    +0.147 C 
ATOM     21  C   UNL     1      34.952 -10.285 -25.158  0.00  0.00    +0.074 C 
ENDROOT
BRANCH  17  22
ATOM     22  O   UNL     1      35.157 -12.012 -26.768  0.00  0.00    -0.505 OA
ATOM     23  H   UNL     1      35.913 -12.555 -26.665  0.00  0.00    +0.292 HD
ENDBRANCH  17  22
BRANCH  20  24
ATOM     24  O   UNL     1      34.779  -8.548 -23.561  0.00  0.00    -0.505 OA
ATOM     25  H   UNL     1      34.807  -8.385 -22.638  0.00  0.00    +0.292 HD
ENDBRANCH  20  24
TORSDOF 2
ENDMDL
MODEL 3
REMARK VINA RESULT:      -7.2      4.022      7.235
REMARK  Name = 24916788
REMARK  2 active torsions:
REMARK  status: ('A' for Active; 'I' for Inactive)
REMARK    1  A    between atoms: C_17  and  O_22
REMARK    2  A    between atoms: C_20  and  O_24
REMARK                            x       y       z     vdW  Elec       q    Type
REMARK                         _______ _______ _______ _____ _____    ______ ____
ROOT
ATOM      1 CL   UNL     1      34.537 -16.435 -25.572  0.00  0.00    -0.079 Cl
ATOM      2  O   UNL     1      32.789 -11.783 -22.314  0.00  0.00    -0.445 OA
ATOM      3  O   UNL     1      33.835 -13.800 -27.269  0.00  0.00    -0.296 OA
ATOM      4  O   UNL     1      30.875 -13.066 -22.587  0.00  0.00    -0.245 OA
ATOM      5  C   UNL     1      34.962 -11.300 -26.671  0.00  0.00    +0.008 C 
ATOM      6  C   UNL     1      35.809 -10.148 -26.115  0.00  0.00    +0.005 C 
ATOM      7  C   UNL     1      34.158 -12.061 -25.621  0.00  0.00    +0.065 C 
ATOM      8  C   UNL     1      35.021  -8.985 -25.500  0.00  0.00    +0.026 C 
ATOM      9  C   UNL     1      32.608 -14.101 -25.240  0.00  0.00    +0.092 C 
ATOM     10  C   UNL     1      33.569 -13.361 -26.150  0.00  0.00    +0.155 C 
ATOM     11  C   UNL     1      33.267 -14.589 -23.975  0.00  0.00    +0.008 C 
ATOM     12  C   UNL     1      33.044 -14.011 -22.714  0.00  0.00    +0.107 C 
ATOM     13  C   UNL     1      34.610  -9.225 -24.076  0.00  0.00    -0.031 C 
ATOM     14  C   UNL     1      34.183 -15.650 -24.059  0.00  0.00    +0.088 C 
ATOM     15  C   UNL     1      32.932  -9.377 -22.215  0.00  0.00    +0.073 C 
ATOM     16  C   UNL     1      33.347  -9.124 -23.636  0.00  0.00    -0.027 C 
ATOM     17  C   UNL     1      33.709 -14.477 -21.574  0.00  0.00    +0.143 C 
ATOM     18  C   UNL     1      32.010 -10.591 -22.114  0.00  0.00    +0.213 C 
ATOM     19  C   UNL     1      32.082 -12.918 -22.532  0.00  0.00    +0.344 C 
ATOM     20  C   UNL     1      34.851 -16.117 -22.925  0.00  0.00    +0.147 C 
ATOM     21  C   UNL     1      34.614 -15.530 -21.684  0.00  0.00    +0.074 C 
ENDROOT
BRANCH  17  22
ATOM     22  O   UNL     1      33.508 -13.914 -20.349  0.00  0.00    -0.505 OA
ATOM     23  H   UNL     1      33.454 -14.457 -19.587  0.00  0.00    +0.292 HD
ENDBRANCH  17  22
BRANCH  20  24
ATOM     24  O   UNL     1      35.741 -17.149 -22.991  0.00  0.00    -0.505 OA
ATOM     25  H   UNL     1      36.187 -17.332 -23.794  0.00  0.00    +0.292 HD
ENDBRANCH  20  24
TORSDOF 2
ENDMDL
