MODEL 1
REMARK VINA RESULT:     -10.0      0.000      0.000
REMARK  Name = 446662
REMARK  8 active torsions:
REMARK  status: ('A' for Active; 'I' for Inactive)
REMARK    1  A    between atoms: C_3  and  C_13
REMARK    2  A    between atoms: C_4  and  C_22
REMARK    3  A    between atoms: C_13  and  P_14
REMARK    4  A    between atoms: P_14  and  O_16
REMARK    5  A    between atoms: P_14  and  O_18
REMARK    6  A    between atoms: C_22  and  P_23
REMARK    7  A    between atoms: P_23  and  O_25
REMARK    8  A    between atoms: P_23  and  O_27
REMARK                            x       y       z     vdW  Elec       q    Type
REMARK                         _______ _______ _______ _____ _____    ______ ____
ROOT
ATOM      1  C   UNL     1      33.237 -23.644 -14.901  0.00  0.00    -0.000 C 
ATOM      2  C   UNL     1      33.617 -23.258 -16.208  0.00  0.00    -0.000 C 
ATOM      3  C   UNL     1      30.898 -23.376 -15.514  0.00  0.00    +0.049 C 
ATOM      4  C   UNL     1      35.582 -23.907 -14.310  0.00  0.00    +0.049 C 
ATOM      5  C   UNL     1      31.873 -23.699 -14.570  0.00  0.00    +0.002 C 
ATOM      6  C   UNL     1      34.232 -23.967 -13.964  0.00  0.00    +0.002 C 
ATOM      7  C   UNL     1      32.622 -22.936 -17.146  0.00  0.00    -0.000 C 
ATOM      8  C   UNL     1      34.980 -23.204 -16.540  0.00  0.00    -0.000 C 
ATOM      9  C   UNL     1      31.271 -22.994 -16.799  0.00  0.00    +0.002 C 
ATOM     10  C   UNL     1      35.956 -23.526 -15.595  0.00  0.00    +0.002 C 
ENDROOT
BRANCH   3  13
ATOM     11  F   UNL     1      29.056 -24.630 -14.630  0.00  0.00    -0.187 F 
ATOM     12  F   UNL     1      29.051 -22.484 -14.264  0.00  0.00    -0.187 F 
ATOM     13  C   UNL     1      29.455 -23.438 -15.144  0.00  0.00    +0.372 C 
BRANCH  13  14
ATOM     14  P   UNL     1      28.244 -23.236 -16.421  0.00  0.00    +0.401 P 
ATOM     15  O   UNL     1      28.057 -24.435 -17.302  0.00  0.00    -0.252 OA
BRANCH  14  16
ATOM     16  O   UNL     1      26.914 -22.761 -15.633  0.00  0.00    -0.320 OA
ATOM     17  H   UNL     1      27.167 -22.344 -14.794  0.00  0.00    +0.220 HD
ENDBRANCH  14  16
BRANCH  14  18
ATOM     18  O   UNL     1      28.713 -21.894 -17.191  0.00  0.00    -0.320 OA
ATOM     19  H   UNL     1      29.377 -21.429 -16.657  0.00  0.00    +0.220 HD
ENDBRANCH  14  18
ENDBRANCH  13  14
ENDBRANCH   3  13
BRANCH   4  22
ATOM     20  F   UNL     1      37.778 -23.542 -13.419  0.00  0.00    -0.187 F 
ATOM     21  F   UNL     1      36.230 -24.135 -12.009  0.00  0.00    -0.187 F 
ATOM     22  C   UNL     1      36.626 -24.253 -13.303  0.00  0.00    +0.372 C 
BRANCH  22  23
ATOM     23  P   UNL     1      37.283 -25.897 -13.293  0.00  0.00    +0.401 P 
ATOM     24  O   UNL     1      38.756 -25.985 -13.561  0.00  0.00    -0.252 OA
BRANCH  23  25
ATOM     25  O   UNL     1      36.817 -26.502 -11.868  0.00  0.00    -0.320 OA
ATOM     26  H   UNL     1      36.272 -27.291 -12.014  0.00  0.00    +0.220 HD
ENDBRANCH  23  25
BRANCH  23  27
ATOM     27  O   UNL     1      36.353 -26.693 -14.349  0.00  0.00    -0.320 OA
ATOM     28  H   UNL     1      36.208 -26.141 -15.134  0.00  0.00    +0.220 HD
ENDBRANCH  23  27
ENDBRANCH  22  23
ENDBRANCH   4  22
TORSDOF 8
ENDMDL
MODEL 2
REMARK VINA RESULT:     -10.0      0.093      7.625
REMARK  Name = 446662
REMARK  8 active torsions:
REMARK  status: ('A' for Active; 'I' for Inactive)
REMARK    1  A    between atoms: C_3  and  C_13
REMARK    2  A    between atoms: C_4  and  C_22
REMARK    3  A    between atoms: C_13  and  P_14
REMARK    4  A    between atoms: P_14  and  O_16
REMARK    5  A    between atoms: P_14  and  O_18
REMARK    6  A    between atoms: C_22  and  P_23
REMARK    7  A    between atoms: P_23  and  O_25
REMARK    8  A    between atoms: P_23  and  O_27
REMARK                            x       y       z     vdW  Elec       q    Type
REMARK                         _______ _______ _______ _____ _____    ______ ____
ROOT
ATOM      1  C   UNL     1      33.215 -23.609 -14.917  0.00  0.00    -0.000 C 
ATOM      2  C   UNL     1      33.592 -23.262 -16.236  0.00  0.00    -0.000 C 
ATOM      3  C   UNL     1      35.558 -23.921 -14.342  0.00  0.00    +0.049 C 
ATOM      4  C   UNL     1      30.878 -23.291 -15.514  0.00  0.00    +0.049 C 
ATOM      5  C   UNL     1      34.211 -23.936 -13.982  0.00  0.00    +0.002 C 
ATOM      6  C   UNL     1      31.854 -23.618 -14.572  0.00  0.00    +0.002 C 
ATOM      7  C   UNL     1      34.954 -23.252 -16.581  0.00  0.00    -0.000 C 
ATOM      8  C   UNL     1      32.597 -22.934 -17.171  0.00  0.00    -0.000 C 
ATOM      9  C   UNL     1      35.929 -23.580 -15.640  0.00  0.00    +0.002 C 
ATOM     10  C   UNL     1      31.249 -22.950 -16.811  0.00  0.00    +0.002 C 
ENDROOT
BRANCH   3  13
ATOM     11  F   UNL     1      37.755 -23.566 -13.451  0.00  0.00    -0.187 F 
ATOM     12  F   UNL     1      36.206 -24.155 -12.041  0.00  0.00    -0.187 F 
ATOM     13  C   UNL     1      36.601 -24.272 -13.336  0.00  0.00    +0.372 C 
BRANCH  13  14
ATOM     14  P   UNL     1      37.251 -25.919 -13.330  0.00  0.00    +0.401 P 
ATOM     15  O   UNL     1      38.717 -26.016 -13.629  0.00  0.00    -0.252 OA
BRANCH  14  16
ATOM     16  O   UNL     1      36.814 -26.512 -11.890  0.00  0.00    -0.320 OA
ATOM     17  H   UNL     1      37.323 -27.317 -11.703  0.00  0.00    +0.220 HD
ENDBRANCH  14  16
BRANCH  14  18
ATOM     18  O   UNL     1      36.294 -26.718 -14.360  0.00  0.00    -0.320 OA
ATOM     19  H   UNL     1      36.508 -26.456 -15.270  0.00  0.00    +0.220 HD
ENDBRANCH  14  18
ENDBRANCH  13  14
ENDBRANCH   3  13
BRANCH   4  22
ATOM     20  F   UNL     1      29.032 -24.440 -14.505  0.00  0.00    -0.187 F 
ATOM     21  F   UNL     1      29.048 -22.270 -14.342  0.00  0.00    -0.187 F 
ATOM     22  C   UNL     1      29.437 -23.305 -15.131  0.00  0.00    +0.372 C 
BRANCH  22  23
ATOM     23  P   UNL     1      28.219 -23.213 -16.412  0.00  0.00    +0.401 P 
ATOM     24  O   UNL     1      28.115 -24.439 -17.269  0.00  0.00    -0.252 OA
BRANCH  23  25
ATOM     25  O   UNL     1      26.857 -22.813 -15.636  0.00  0.00    -0.320 OA
ATOM     26  H   UNL     1      27.076 -22.318 -14.831  0.00  0.00    +0.220 HD
ENDBRANCH  23  25
BRANCH  23  27
ATOM     27  O   UNL     1      28.595 -21.858 -17.209  0.00  0.00    -0.320 OA
ATOM     28  H   UNL     1      29.532 -21.881 -17.463  0.00  0.00    +0.220 HD
ENDBRANCH  23  27
ENDBRANCH  22  23
ENDBRANCH   4  22
TORSDOF 8
ENDMDL
MODEL 3
REMARK VINA RESULT:      -9.8      1.353      1.935
REMARK  Name = 446662
REMARK  8 active torsions:
REMARK  status: ('A' for Active; 'I' for Inactive)
REMARK    1  A    between atoms: C_3  and  C_13
REMARK    2  A    between atoms: C_4  and  C_22
REMARK    3  A    between atoms: C_13  and  P_14
REMARK    4  A    between atoms: P_14  and  O_16
REMARK    5  A    between atoms: P_14  and  O_18
REMARK    6  A    between atoms: C_22  and  P_23
REMARK    7  A    between atoms: P_23  and  O_25
REMARK    8  A    between atoms: P_23  and  O_27
REMARK                            x       y       z     vdW  Elec       q    Type
REMARK                         _______ _______ _______ _____ _____    ______ ____
ROOT
ATOM      1  C   UNL     1      33.214 -23.996 -14.994  0.00  0.00    -0.000 C 
ATOM      2  C   UNL     1      33.627 -23.364 -16.190  0.00  0.00    -0.000 C 
ATOM      3  C   UNL     1      30.891 -23.667 -15.635  0.00  0.00    +0.049 C 
ATOM      4  C   UNL     1      35.544 -24.316 -14.372  0.00  0.00    +0.049 C 
ATOM      5  C   UNL     1      31.842 -24.140 -14.732  0.00  0.00    +0.002 C 
ATOM      6  C   UNL     1      34.185 -24.468 -14.096  0.00  0.00    +0.002 C 
ATOM      7  C   UNL     1      32.656 -22.893 -17.089  0.00  0.00    -0.000 C 
ATOM      8  C   UNL     1      34.999 -23.220 -16.453  0.00  0.00    -0.000 C 
ATOM      9  C   UNL     1      31.297 -23.043 -16.812  0.00  0.00    +0.002 C 
ATOM     10  C   UNL     1      35.951 -23.693 -15.548  0.00  0.00    +0.002 C 
ENDROOT
BRANCH   3  13
ATOM     11  F   UNL     1      29.005 -25.114 -15.324  0.00  0.00    -0.187 F 
ATOM     12  F   UNL     1      29.030 -23.269 -14.170  0.00  0.00    -0.187 F 
ATOM     13  C   UNL     1      29.438 -23.827 -15.340  0.00  0.00    +0.372 C 
BRANCH  13  14
ATOM     14  P   UNL     1      28.263 -23.124 -16.463  0.00  0.00    +0.401 P 
ATOM     15  O   UNL     1      28.740 -21.900 -17.185  0.00  0.00    -0.252 OA
BRANCH  14  16
ATOM     16  O   UNL     1      27.847 -24.357 -17.423  0.00  0.00    -0.320 OA
ATOM     17  H   UNL     1      26.881 -24.381 -17.518  0.00  0.00    +0.220 HD
ENDBRANCH  14  16
BRANCH  14  18
ATOM     18  O   UNL     1      26.943 -22.905 -15.555  0.00  0.00    -0.320 OA
ATOM     19  H   UNL     1      26.769 -21.956 -15.460  0.00  0.00    +0.220 HD
ENDBRANCH  14  18
ENDBRANCH  13  14
ENDBRANCH   3  13
BRANCH   4  22
ATOM     20  F   UNL     1      36.586 -26.174 -13.272  0.00  0.00    -0.187 F 
ATOM     21  F   UNL     1      37.839 -24.441 -13.675  0.00  0.00    -0.187 F 
ATOM     22  C   UNL     1      36.562 -24.822 -13.408  0.00  0.00    +0.372 C 
BRANCH  22  23
ATOM     23  P   UNL     1      36.431 -24.347 -11.708  0.00  0.00    +0.401 P 
ATOM     24  O   UNL     1      35.361 -25.064 -10.937  0.00  0.00    -0.252 OA
BRANCH  23  25
ATOM     25  O   UNL     1      37.927 -24.538 -11.125  0.00  0.00    -0.320 OA
ATOM     26  H   UNL     1      38.498 -24.909 -11.815  0.00  0.00    +0.220 HD
ENDBRANCH  23  25
BRANCH  23  27
ATOM     27  O   UNL     1      36.263 -22.740 -11.766  0.00  0.00    -0.320 OA
ATOM     28  H   UNL     1      35.488 -22.515 -12.304  0.00  0.00    +0.220 HD
ENDBRANCH  23  27
ENDBRANCH  22  23
ENDBRANCH   4  22
TORSDOF 8
ENDMDL
MODEL 4
REMARK VINA RESULT:      -9.7      4.500      8.187
REMARK  Name = 446662
REMARK  8 active torsions:
REMARK  status: ('A' for Active; 'I' for Inactive)
REMARK    1  A    between atoms: C_3  and  C_13
REMARK    2  A    between atoms: C_4  and  C_22
REMARK    3  A    between atoms: C_13  and  P_14
REMARK    4  A    between atoms: P_14  and  O_16
REMARK    5  A    between atoms: P_14  and  O_18
REMARK    6  A    between atoms: C_22  and  P_23
REMARK    7  A    between atoms: P_23  and  O_25
REMARK    8  A    between atoms: P_23  and  O_27
REMARK                            x       y       z     vdW  Elec       q    Type
REMARK                         _______ _______ _______ _____ _____    ______ ____
ROOT
ATOM      1  C   UNL     1      35.595 -22.461 -17.348  0.00  0.00    -0.000 C 
ATOM      2  C   UNL     1      34.248 -22.897 -17.354  0.00  0.00    -0.000 C 
ATOM      3  C   UNL     1      35.963 -23.669 -15.268  0.00  0.00    +0.049 C 
ATOM      4  C   UNL     1      35.204 -21.261 -19.427  0.00  0.00    +0.049 C 
ATOM      5  C   UNL     1      36.439 -22.856 -16.297  0.00  0.00    +0.002 C 
ATOM      6  C   UNL     1      36.057 -21.645 -18.392  0.00  0.00    +0.002 C 
ATOM      7  C   UNL     1      33.786 -23.714 -16.310  0.00  0.00    -0.000 C 
ATOM      8  C   UNL     1      33.404 -22.503 -18.405  0.00  0.00    -0.000 C 
ATOM      9  C   UNL     1      34.638 -24.097 -15.274  0.00  0.00    +0.002 C 
ATOM     10  C   UNL     1      33.880 -21.689 -19.434  0.00  0.00    +0.002 C 
ENDROOT
BRANCH   3  13
ATOM     11  F   UNL     1      37.623 -23.069 -13.646  0.00  0.00    -0.187 F 
ATOM     12  F   UNL     1      36.257 -24.675 -13.107  0.00  0.00    -0.187 F 
ATOM     13  C   UNL     1      36.874 -24.077 -14.161  0.00  0.00    +0.372 C 
BRANCH  13  14
ATOM     14  P   UNL     1      38.148 -25.258 -14.504  0.00  0.00    +0.401 P 
ATOM     15  O   UNL     1      38.651 -26.005 -13.305  0.00  0.00    -0.252 OA
BRANCH  14  16
ATOM     16  O   UNL     1      37.520 -26.190 -15.667  0.00  0.00    -0.320 OA
ATOM     17  H   UNL     1      37.587 -25.732 -16.520  0.00  0.00    +0.220 HD
ENDBRANCH  14  16
BRANCH  14  18
ATOM     18  O   UNL     1      39.271 -24.400 -15.289  0.00  0.00    -0.320 OA
ATOM     19  H   UNL     1      39.128 -23.454 -15.126  0.00  0.00    +0.220 HD
ENDBRANCH  14  18
ENDBRANCH  13  14
ENDBRANCH   3  13
BRANCH   4  22
ATOM     20  F   UNL     1      36.802 -19.652 -20.205  0.00  0.00    -0.187 F 
ATOM     21  F   UNL     1      36.021 -21.053 -21.676  0.00  0.00    -0.187 F 
ATOM     22  C   UNL     1      35.711 -20.394 -20.529  0.00  0.00    +0.372 C 
BRANCH  22  23
ATOM     23  P   UNL     1      34.655 -19.122 -21.161  0.00  0.00    +0.401 P 
ATOM     24  O   UNL     1      33.216 -19.241 -20.754  0.00  0.00    -0.252 OA
BRANCH  23  25
ATOM     25  O   UNL     1      35.375 -17.746 -20.708  0.00  0.00    -0.320 OA
ATOM     26  H   UNL     1      35.866 -17.894 -19.885  0.00  0.00    +0.220 HD
ENDBRANCH  23  25
BRANCH  23  27
ATOM     27  O   UNL     1      34.913 -19.160 -22.757  0.00  0.00    -0.320 OA
ATOM     28  H   UNL     1      35.080 -20.074 -23.036  0.00  0.00    +0.220 HD
ENDBRANCH  23  27
ENDBRANCH  22  23
ENDBRANCH   4  22
TORSDOF 8
ENDMDL
MODEL 5
REMARK VINA RESULT:      -9.7      4.501      5.785
REMARK  Name = 446662
REMARK  8 active torsions:
REMARK  status: ('A' for Active; 'I' for Inactive)
REMARK    1  A    between atoms: C_3  and  C_13
REMARK    2  A    between atoms: C_4  and  C_22
REMARK    3  A    between atoms: C_13  and  P_14
REMARK    4  A    between atoms: P_14  and  O_16
REMARK    5  A    between atoms: P_14  and  O_18
REMARK    6  A    between atoms: C_22  and  P_23
REMARK    7  A    between atoms: P_23  and  O_25
REMARK    8  A    between atoms: P_23  and  O_27
REMARK                            x       y       z     vdW  Elec       q    Type
REMARK                         _______ _______ _______ _____ _____    ______ ____
ROOT
ATOM      1  C   UNL     1      35.594 -22.462 -17.350  0.00  0.00    -0.000 C 
ATOM      2  C   UNL     1      34.247 -22.895 -17.355  0.00  0.00    -0.000 C 
ATOM      3  C   UNL     1      35.202 -21.261 -19.430  0.00  0.00    +0.049 C 
ATOM      4  C   UNL     1      35.963 -23.668 -15.271  0.00  0.00    +0.049 C 
ATOM      5  C   UNL     1      36.055 -21.644 -18.396  0.00  0.00    +0.002 C 
ATOM      6  C   UNL     1      36.439 -22.856 -16.301  0.00  0.00    +0.002 C 
ATOM      7  C   UNL     1      33.401 -22.500 -18.405  0.00  0.00    -0.000 C 
ATOM      8  C   UNL     1      33.785 -23.712 -16.310  0.00  0.00    -0.000 C 
ATOM      9  C   UNL     1      33.877 -21.689 -19.435  0.00  0.00    +0.002 C 
ATOM     10  C   UNL     1      34.639 -24.096 -15.275  0.00  0.00    +0.002 C 
ENDROOT
BRANCH   3  13
ATOM     11  F   UNL     1      36.801 -19.653 -20.208  0.00  0.00    -0.187 F 
ATOM     12  F   UNL     1      36.018 -21.053 -21.679  0.00  0.00    -0.187 F 
ATOM     13  C   UNL     1      35.710 -20.394 -20.531  0.00  0.00    +0.372 C 
BRANCH  13  14
ATOM     14  P   UNL     1      34.653 -19.120 -21.162  0.00  0.00    +0.401 P 
ATOM     15  O   UNL     1      33.216 -19.238 -20.754  0.00  0.00    -0.252 OA
BRANCH  14  16
ATOM     16  O   UNL     1      35.375 -17.746 -20.708  0.00  0.00    -0.320 OA
ATOM     17  H   UNL     1      34.991 -17.002 -21.198  0.00  0.00    +0.220 HD
ENDBRANCH  14  16
BRANCH  14  18
ATOM     18  O   UNL     1      34.910 -19.159 -22.758  0.00  0.00    -0.320 OA
ATOM     19  H   UNL     1      35.863 -19.223 -22.932  0.00  0.00    +0.220 HD
ENDBRANCH  14  18
ENDBRANCH  13  14
ENDBRANCH   3  13
BRANCH   4  22
ATOM     20  F   UNL     1      37.624 -23.070 -13.649  0.00  0.00    -0.187 F 
ATOM     21  F   UNL     1      36.257 -24.675 -13.111  0.00  0.00    -0.187 F 
ATOM     22  C   UNL     1      36.874 -24.078 -14.164  0.00  0.00    +0.372 C 
BRANCH  22  23
ATOM     23  P   UNL     1      38.147 -25.259 -14.506  0.00  0.00    +0.401 P 
ATOM     24  O   UNL     1      38.650 -26.006 -13.305  0.00  0.00    -0.252 OA
BRANCH  23  25
ATOM     25  O   UNL     1      37.521 -26.193 -15.669  0.00  0.00    -0.320 OA
ATOM     26  H   UNL     1      37.912 -27.079 -15.618  0.00  0.00    +0.220 HD
ENDBRANCH  23  25
BRANCH  23  27
ATOM     27  O   UNL     1      39.271 -24.403 -15.291  0.00  0.00    -0.320 OA
ATOM     28  H   UNL     1      39.675 -23.764 -14.682  0.00  0.00    +0.220 HD
ENDBRANCH  23  27
ENDBRANCH  22  23
ENDBRANCH   4  22
TORSDOF 8
ENDMDL
MODEL 6
REMARK VINA RESULT:      -9.6      4.429      7.838
REMARK  Name = 446662
REMARK  8 active torsions:
REMARK  status: ('A' for Active; 'I' for Inactive)
REMARK    1  A    between atoms: C_3  and  C_13
REMARK    2  A    between atoms: C_4  and  C_22
REMARK    3  A    between atoms: C_13  and  P_14
REMARK    4  A    between atoms: P_14  and  O_16
REMARK    5  A    between atoms: P_14  and  O_18
REMARK    6  A    between atoms: C_22  and  P_23
REMARK    7  A    between atoms: P_23  and  O_25
REMARK    8  A    between atoms: P_23  and  O_27
REMARK                            x       y       z     vdW  Elec       q    Type
REMARK                         _______ _______ _______ _____ _____    ______ ____
ROOT
ATOM      1  C   UNL     1      35.731 -22.509 -16.881  0.00  0.00    -0.000 C 
ATOM      2  C   UNL     1      34.424 -23.051 -16.900  0.00  0.00    -0.000 C 
ATOM      3  C   UNL     1      36.086 -23.473 -14.675  0.00  0.00    +0.049 C 
ATOM      4  C   UNL     1      35.355 -21.555 -19.086  0.00  0.00    +0.049 C 
ATOM      5  C   UNL     1      36.549 -22.730 -15.760  0.00  0.00    +0.002 C 
ATOM      6  C   UNL     1      36.182 -21.764 -17.982  0.00  0.00    +0.002 C 
ATOM      7  C   UNL     1      33.974 -23.797 -15.798  0.00  0.00    -0.000 C 
ATOM      8  C   UNL     1      33.606 -22.832 -18.020  0.00  0.00    -0.000 C 
ATOM      9  C   UNL     1      34.800 -24.006 -14.693  0.00  0.00    +0.002 C 
ATOM     10  C   UNL     1      34.069 -22.088 -19.106  0.00  0.00    +0.002 C 
ENDROOT
BRANCH   3  13
ATOM     11  F   UNL     1      38.068 -24.451 -13.747  0.00  0.00    -0.187 F 
ATOM     12  F   UNL     1      37.411 -22.560 -12.892  0.00  0.00    -0.187 F 
ATOM     13  C   UNL     1      36.968 -23.695 -13.494  0.00  0.00    +0.372 C 
BRANCH  13  14
ATOM     14  P   UNL     1      36.313 -24.568 -12.100  0.00  0.00    +0.401 P 
ATOM     15  O   UNL     1      34.912 -24.187 -11.723  0.00  0.00    -0.252 OA
BRANCH  14  16
ATOM     16  O   UNL     1      36.511 -26.128 -12.480  0.00  0.00    -0.320 OA
ATOM     17  H   UNL     1      36.056 -26.681 -11.825  0.00  0.00    +0.220 HD
ENDBRANCH  14  16
BRANCH  14  18
ATOM     18  O   UNL     1      37.415 -24.332 -10.941  0.00  0.00    -0.320 OA
ATOM     19  H   UNL     1      37.343 -23.424 -10.606  0.00  0.00    +0.220 HD
ENDBRANCH  14  18
ENDBRANCH  13  14
ENDBRANCH   3  13
BRANCH   4  22
ATOM     20  F   UNL     1      36.932 -19.987 -19.982  0.00  0.00    -0.187 F 
ATOM     21  F   UNL     1      36.162 -21.496 -21.348  0.00  0.00    -0.187 F 
ATOM     22  C   UNL     1      35.849 -20.762 -20.248  0.00  0.00    +0.372 C 
BRANCH  22  23
ATOM     23  P   UNL     1      34.777 -19.549 -20.964  0.00  0.00    +0.401 P 
ATOM     24  O   UNL     1      33.343 -19.646 -20.534  0.00  0.00    -0.252 OA
BRANCH  23  25
ATOM     25  O   UNL     1      35.490 -18.137 -20.624  0.00  0.00    -0.320 OA
ATOM     26  H   UNL     1      34.827 -17.430 -20.630  0.00  0.00    +0.220 HD
ENDBRANCH  23  25
BRANCH  23  27
ATOM     27  O   UNL     1      35.019 -19.706 -22.555  0.00  0.00    -0.320 OA
ATOM     28  H   UNL     1      35.894 -20.095 -22.712  0.00  0.00    +0.220 HD
ENDBRANCH  23  27
ENDBRANCH  22  23
ENDBRANCH   4  22
TORSDOF 8
ENDMDL
MODEL 7
REMARK VINA RESULT:      -9.6      4.435      5.729
REMARK  Name = 446662
REMARK  8 active torsions:
REMARK  status: ('A' for Active; 'I' for Inactive)
REMARK    1  A    between atoms: C_3  and  C_13
REMARK    2  A    between atoms: C_4  and  C_22
REMARK    3  A    between atoms: C_13  and  P_14
REMARK    4  A    between atoms: P_14  and  O_16
REMARK    5  A    between atoms: P_14  and  O_18
REMARK    6  A    between atoms: C_22  and  P_23
REMARK    7  A    between atoms: P_23  and  O_25
REMARK    8  A    between atoms: P_23  and  O_27
REMARK                            x       y       z     vdW  Elec       q    Type
REMARK                         _______ _______ _______ _____ _____    ______ ____
ROOT
ATOM      1  C   UNL     1      35.761 -22.513 -16.891  0.00  0.00    -0.000 C 
ATOM      2  C   UNL     1      34.453 -23.052 -16.913  0.00  0.00    -0.000 C 
ATOM      3  C   UNL     1      35.391 -21.557 -19.098  0.00  0.00    +0.049 C 
ATOM      4  C   UNL     1      36.109 -23.477 -14.686  0.00  0.00    +0.049 C 
ATOM      5  C   UNL     1      36.215 -21.767 -17.992  0.00  0.00    +0.002 C 
ATOM      6  C   UNL     1      36.576 -22.734 -15.770  0.00  0.00    +0.002 C 
ATOM      7  C   UNL     1      33.637 -22.830 -18.035  0.00  0.00    -0.000 C 
ATOM      8  C   UNL     1      33.998 -23.796 -15.813  0.00  0.00    -0.000 C 
ATOM      9  C   UNL     1      34.105 -22.088 -19.120  0.00  0.00    +0.002 C 
ATOM     10  C   UNL     1      34.822 -24.008 -14.707  0.00  0.00    +0.002 C 
ENDROOT
BRANCH   3  13
ATOM     11  F   UNL     1      36.971 -19.987 -19.986  0.00  0.00    -0.187 F 
ATOM     12  F   UNL     1      36.211 -21.499 -21.355  0.00  0.00    -0.187 F 
ATOM     13  C   UNL     1      35.891 -20.764 -20.258  0.00  0.00    +0.372 C 
BRANCH  13  14
ATOM     14  P   UNL     1      34.819 -19.553 -20.980  0.00  0.00    +0.401 P 
ATOM     15  O   UNL     1      33.389 -19.637 -20.537  0.00  0.00    -0.252 OA
BRANCH  14  16
ATOM     16  O   UNL     1      35.544 -18.143 -20.662  0.00  0.00    -0.320 OA
ATOM     17  H   UNL     1      35.383 -17.898 -19.737  0.00  0.00    +0.220 HD
ENDBRANCH  14  16
BRANCH  14  18
ATOM     18  O   UNL     1      35.048 -19.732 -22.571  0.00  0.00    -0.320 OA
ATOM     19  H   UNL     1      34.682 -20.584 -22.857  0.00  0.00    +0.220 HD
ENDBRANCH  14  18
ENDBRANCH  13  14
ENDBRANCH   3  13
BRANCH   4  22
ATOM     20  F   UNL     1      38.117 -24.409 -13.765  0.00  0.00    -0.187 F 
ATOM     21  F   UNL     1      37.382 -22.570 -12.862  0.00  0.00    -0.187 F 
ATOM     22  C   UNL     1      36.987 -23.702 -13.502  0.00  0.00    +0.372 C 
BRANCH  22  23
ATOM     23  P   UNL     1      36.352 -24.639 -12.141  0.00  0.00    +0.401 P 
ATOM     24  O   UNL     1      34.952 -24.286 -11.735  0.00  0.00    -0.252 OA
BRANCH  23  25
ATOM     25  O   UNL     1      36.558 -26.180 -12.588  0.00  0.00    -0.320 OA
ATOM     26  H   UNL     1      36.250 -26.766 -11.880  0.00  0.00    +0.220 HD
ENDBRANCH  23  25
BRANCH  23  27
ATOM     27  O   UNL     1      37.463 -24.444 -10.983  0.00  0.00    -0.320 OA
ATOM     28  H   UNL     1      37.421 -23.536 -10.644  0.00  0.00    +0.220 HD
ENDBRANCH  23  27
ENDBRANCH  22  23
ENDBRANCH   4  22
TORSDOF 8
ENDMDL
MODEL 8
REMARK VINA RESULT:      -9.5      5.705      7.377
REMARK  Name = 446662
REMARK  8 active torsions:
REMARK  status: ('A' for Active; 'I' for Inactive)
REMARK    1  A    between atoms: C_3  and  C_13
REMARK    2  A    between atoms: C_4  and  C_22
REMARK    3  A    between atoms: C_13  and  P_14
REMARK    4  A    between atoms: P_14  and  O_16
REMARK    5  A    between atoms: P_14  and  O_18
REMARK    6  A    between atoms: C_22  and  P_23
REMARK    7  A    between atoms: P_23  and  O_25
REMARK    8  A    between atoms: P_23  and  O_27
REMARK                            x       y       z     vdW  Elec       q    Type
REMARK                         _______ _______ _______ _____ _____    ______ ____
ROOT
ATOM      1  C   UNL     1      33.710 -21.700 -18.808  0.00  0.00    -0.000 C 
ATOM      2  C   UNL     1      35.007 -22.054 -18.369  0.00  0.00    -0.000 C 
ATOM      3  C   UNL     1      34.688 -20.427 -20.636  0.00  0.00    +0.049 C 
ATOM      4  C   UNL     1      32.753 -22.979 -16.974  0.00  0.00    +0.049 C 
ATOM      5  C   UNL     1      33.568 -20.886 -19.944  0.00  0.00    +0.002 C 
ATOM      6  C   UNL     1      32.593 -22.172 -18.101  0.00  0.00    +0.002 C 
ATOM      7  C   UNL     1      36.125 -21.582 -19.077  0.00  0.00    -0.000 C 
ATOM      8  C   UNL     1      35.150 -22.868 -17.234  0.00  0.00    -0.000 C 
ATOM      9  C   UNL     1      35.965 -20.774 -20.203  0.00  0.00    +0.002 C 
ATOM     10  C   UNL     1      34.028 -23.327 -16.541  0.00  0.00    +0.002 C 
ENDROOT
BRANCH   3  13
ATOM     11  F   UNL     1      35.037 -20.080 -22.982  0.00  0.00    -0.187 F 
ATOM     12  F   UNL     1      33.233 -19.221 -22.118  0.00  0.00    -0.187 F 
ATOM     13  C   UNL     1      34.518 -19.562 -21.839  0.00  0.00    +0.372 C 
BRANCH  13  14
ATOM     14  P   UNL     1      35.287 -17.967 -21.850  0.00  0.00    +0.401 P 
ATOM     15  O   UNL     1      35.402 -17.316 -20.505  0.00  0.00    -0.252 OA
BRANCH  14  16
ATOM     16  O   UNL     1      36.696 -18.212 -22.606  0.00  0.00    -0.320 OA
ATOM     17  H   UNL     1      36.600 -18.938 -23.243  0.00  0.00    +0.220 HD
ENDBRANCH  14  16
BRANCH  14  18
ATOM     18  O   UNL     1      34.430 -17.131 -22.937  0.00  0.00    -0.320 OA
ATOM     19  H   UNL     1      34.163 -16.280 -22.554  0.00  0.00    +0.220 HD
ENDBRANCH  14  18
ENDBRANCH  13  14
ENDBRANCH   3  13
BRANCH   4  22
ATOM     20  F   UNL     1      30.490 -22.630 -16.261  0.00  0.00    -0.187 F 
ATOM     21  F   UNL     1      31.097 -24.686 -16.637  0.00  0.00    -0.187 F 
ATOM     22  C   UNL     1      31.556 -23.472 -16.234  0.00  0.00    +0.372 C 
BRANCH  22  23
ATOM     23  P   UNL     1      31.688 -23.739 -14.489  0.00  0.00    +0.401 P 
ATOM     24  O   UNL     1      32.548 -24.904 -14.096  0.00  0.00    -0.252 OA
BRANCH  23  25
ATOM     25  O   UNL     1      32.175 -22.312 -13.905  0.00  0.00    -0.320 OA
ATOM     26  H   UNL     1      31.756 -21.596 -14.407  0.00  0.00    +0.220 HD
ENDBRANCH  23  25
BRANCH  23  27
ATOM     27  O   UNL     1      30.152 -23.832 -13.993  0.00  0.00    -0.320 OA
ATOM     28  H   UNL     1      29.834 -22.946 -13.757  0.00  0.00    +0.220 HD
ENDBRANCH  23  27
ENDBRANCH  22  23
ENDBRANCH   4  22
TORSDOF 8
ENDMDL
MODEL 9
REMARK VINA RESULT:      -9.4      5.380      8.768
REMARK  Name = 446662
REMARK  8 active torsions:
REMARK  status: ('A' for Active; 'I' for Inactive)
REMARK    1  A    between atoms: C_3  and  C_13
REMARK    2  A    between atoms: C_4  and  C_22
REMARK    3  A    between atoms: C_13  and  P_14
REMARK    4  A    between atoms: P_14  and  O_16
REMARK    5  A    between atoms: P_14  and  O_18
REMARK    6  A    between atoms: C_22  and  P_23
REMARK    7  A    between atoms: P_23  and  O_25
REMARK    8  A    between atoms: P_23  and  O_27
REMARK                            x       y       z     vdW  Elec       q    Type
REMARK                         _______ _______ _______ _____ _____    ______ ____
ROOT
ATOM      1  C   UNL     1      35.656 -21.473 -18.616  0.00  0.00    -0.000 C 
ATOM      2  C   UNL     1      34.358 -22.025 -18.506  0.00  0.00    -0.000 C 
ATOM      3  C   UNL     1      36.328 -22.684 -16.615  0.00  0.00    +0.049 C 
ATOM      4  C   UNL     1      34.964 -20.273 -20.615  0.00  0.00    +0.049 C 
ATOM      5  C   UNL     1      36.630 -21.813 -17.662  0.00  0.00    +0.002 C 
ATOM      6  C   UNL     1      35.944 -20.600 -19.676  0.00  0.00    +0.002 C 
ATOM      7  C   UNL     1      34.071 -22.900 -17.445  0.00  0.00    -0.000 C 
ATOM      8  C   UNL     1      33.384 -21.686 -19.459  0.00  0.00    -0.000 C 
ATOM      9  C   UNL     1      35.050 -23.226 -16.506  0.00  0.00    +0.002 C 
ATOM     10  C   UNL     1      33.687 -20.815 -20.506  0.00  0.00    +0.002 C 
ENDROOT
BRANCH   3  13
ATOM     11  F   UNL     1      38.617 -23.204 -16.129  0.00  0.00    -0.187 F 
ATOM     12  F   UNL     1      37.501 -22.145 -14.590  0.00  0.00    -0.187 F 
ATOM     13  C   UNL     1      37.374 -23.032 -15.611  0.00  0.00    +0.372 C 
BRANCH  13  14
ATOM     14  P   UNL     1      37.209 -24.546 -14.708  0.00  0.00    +0.401 P 
ATOM     15  O   UNL     1      36.794 -25.727 -15.533  0.00  0.00    -0.252 OA
BRANCH  14  16
ATOM     16  O   UNL     1      38.630 -24.714 -13.954  0.00  0.00    -0.320 OA
ATOM     17  H   UNL     1      39.201 -25.306 -14.468  0.00  0.00    +0.220 HD
ENDBRANCH  14  16
BRANCH  14  18
ATOM     18  O   UNL     1      36.198 -24.171 -13.503  0.00  0.00    -0.320 OA
ATOM     19  H   UNL     1      36.332 -24.786 -12.764  0.00  0.00    +0.220 HD
ENDBRANCH  14  18
ENDBRANCH  13  14
ENDBRANCH   3  13
BRANCH   4  22
ATOM     20  F   UNL     1      36.613 -19.128 -21.926  0.00  0.00    -0.187 F 
ATOM     21  F   UNL     1      34.778 -19.709 -22.942  0.00  0.00    -0.187 F 
ATOM     22  C   UNL     1      35.285 -19.343 -21.735  0.00  0.00    +0.372 C 
BRANCH  22  23
ATOM     23  P   UNL     1      34.717 -17.670 -21.639  0.00  0.00    +0.401 P 
ATOM     24  O   UNL     1      34.876 -16.879 -22.904  0.00  0.00    -0.252 OA
BRANCH  23  25
ATOM     25  O   UNL     1      33.194 -17.797 -21.108  0.00  0.00    -0.320 OA
ATOM     26  H   UNL     1      32.848 -16.914 -20.904  0.00  0.00    +0.220 HD
ENDBRANCH  23  25
BRANCH  23  27
ATOM     27  O   UNL     1      35.500 -17.067 -20.359  0.00  0.00    -0.320 OA
ATOM     28  H   UNL     1      34.878 -16.574 -19.801  0.00  0.00    +0.220 HD
ENDBRANCH  23  27
ENDBRANCH  22  23
ENDBRANCH   4  22
TORSDOF 8
ENDMDL
