MODEL 1
REMARK VINA RESULT:      -7.2      0.000      0.000
REMARK  Name = 446102
REMARK  6 active torsions:
REMARK  status: ('A' for Active; 'I' for Inactive)
REMARK    1  A    between atoms: C_2  and  O_7
REMARK    2  A    between atoms: C_3  and  O_9
REMARK    3  A    between atoms: C_4  and  O_11
REMARK    4  A    between atoms: C_5  and  C_16
REMARK    5  A    between atoms: C_6  and  O_13
REMARK    6  A    between atoms: C_16  and  O_17
REMARK                            x       y       z     vdW  Elec       q    Type
REMARK                         _______ _______ _______ _____ _____    ______ ____
ROOT
ATOM      1  O   UNL     1      39.081 -25.613 -12.872  0.00  0.00    -0.317 OA
ATOM      2  C   UNL     1      37.115 -24.132 -14.384  0.00  0.00    +0.172 C 
ATOM      3  C   UNL     1      38.212 -24.966 -15.057  0.00  0.00    +0.178 C 
ATOM      4  C   UNL     1      36.854 -24.594 -12.943  0.00  0.00    +0.196 C 
ATOM      5  C   UNL     1      39.431 -25.072 -14.141  0.00  0.00    +0.245 C 
ATOM      6  C   UNL     1      38.150 -24.803 -12.148  0.00  0.00    +0.263 C 
ENDROOT
BRANCH   2   7
ATOM      7  O   UNL     1      37.507 -22.763 -14.360  0.00  0.00    -0.379 OA
ATOM      8  H   UNL     1      37.183 -22.347 -13.547  0.00  0.00    +0.211 HD
ENDBRANCH   2   7
BRANCH   3   9
ATOM      9  O   UNL     1      37.708 -26.273 -15.331  0.00  0.00    -0.379 OA
ATOM     10  H   UNL     1      37.079 -26.529 -14.637  0.00  0.00    +0.211 HD
ENDBRANCH   3   9
BRANCH   4  11
ATOM     11  O   UNL     1      36.132 -25.823 -12.985  0.00  0.00    -0.378 OA
ATOM     12  H   UNL     1      36.727 -26.539 -13.259  0.00  0.00    +0.211 HD
ENDBRANCH   4  11
BRANCH   6  13
ATOM     13  O   UNL     1      38.702 -23.540 -11.787  0.00  0.00    -0.358 OA
ATOM     14  H   UNL     1      39.666 -23.618 -11.710  0.00  0.00    +0.213 HD
ENDBRANCH   6  13
BRANCH   5  16
ATOM     15  O   UNL     1      41.216 -26.695 -14.047  0.00  0.00    -0.247 OA
ATOM     16  C   UNL     1      40.459 -25.999 -14.707  0.00  0.00    +0.344 C 
BRANCH  16  17
ATOM     17  O   UNL     1      40.441 -25.963 -16.061  0.00  0.00    -0.478 OA
ATOM     18  H   UNL     1      39.623 -25.960 -16.519  0.00  0.00    +0.295 HD
ENDBRANCH  16  17
ENDBRANCH   5  16
TORSDOF 6
ENDMDL
MODEL 2
REMARK VINA RESULT:      -7.0      1.296      2.813
REMARK  Name = 446102
REMARK  6 active torsions:
REMARK  status: ('A' for Active; 'I' for Inactive)
REMARK    1  A    between atoms: C_2  and  O_7
REMARK    2  A    between atoms: C_3  and  O_9
REMARK    3  A    between atoms: C_4  and  O_11
REMARK    4  A    between atoms: C_5  and  C_16
REMARK    5  A    between atoms: C_6  and  O_13
REMARK    6  A    between atoms: C_16  and  O_17
REMARK                            x       y       z     vdW  Elec       q    Type
REMARK                         _______ _______ _______ _____ _____    ______ ____
ROOT
ATOM      1  O   UNL     1      37.799 -25.062 -15.169  0.00  0.00    -0.317 OA
ATOM      2  C   UNL     1      37.089 -25.406 -12.390  0.00  0.00    +0.172 C 
ATOM      3  C   UNL     1      38.539 -25.207 -12.850  0.00  0.00    +0.178 C 
ATOM      4  C   UNL     1      36.087 -24.875 -13.425  0.00  0.00    +0.196 C 
ATOM      5  C   UNL     1      38.709 -25.704 -14.285  0.00  0.00    +0.245 C 
ATOM      6  C   UNL     1      36.426 -25.319 -14.854  0.00  0.00    +0.263 C 
ENDROOT
BRANCH   2   7
ATOM      7  O   UNL     1      36.843 -26.794 -12.186  0.00  0.00    -0.379 OA
ATOM      8  H   UNL     1      35.888 -26.945 -12.110  0.00  0.00    +0.211 HD
ENDBRANCH   2   7
BRANCH   3   9
ATOM      9  O   UNL     1      38.867 -23.820 -12.785  0.00  0.00    -0.379 OA
ATOM     10  H   UNL     1      38.566 -23.378 -13.596  0.00  0.00    +0.211 HD
ENDBRANCH   3   9
BRANCH   4  11
ATOM     11  O   UNL     1      36.090 -23.450 -13.369  0.00  0.00    -0.378 OA
ATOM     12  H   UNL     1      35.248 -23.139 -12.999  0.00  0.00    +0.211 HD
ENDBRANCH   4  11
BRANCH   6  13
ATOM     13  O   UNL     1      36.085 -26.692 -15.026  0.00  0.00    -0.358 OA
ATOM     14  H   UNL     1      35.719 -27.041 -14.198  0.00  0.00    +0.213 HD
ENDBRANCH   6  13
BRANCH   5  16
ATOM     15  O   UNL     1      40.947 -24.800 -14.192  0.00  0.00    -0.247 OA
ATOM     16  C   UNL     1      40.074 -25.391 -14.811  0.00  0.00    +0.344 C 
BRANCH  16  17
ATOM     17  O   UNL     1      40.216 -25.853 -16.077  0.00  0.00    -0.478 OA
ATOM     18  H   UNL     1      41.060 -26.119 -16.387  0.00  0.00    +0.295 HD
ENDBRANCH  16  17
ENDBRANCH   5  16
TORSDOF 6
ENDMDL
MODEL 3
REMARK VINA RESULT:      -6.9      1.763      3.898
REMARK  Name = 446102
REMARK  6 active torsions:
REMARK  status: ('A' for Active; 'I' for Inactive)
REMARK    1  A    between atoms: C_2  and  O_7
REMARK    2  A    between atoms: C_3  and  O_9
REMARK    3  A    between atoms: C_4  and  O_11
REMARK    4  A    between atoms: C_5  and  C_16
REMARK    5  A    between atoms: C_6  and  O_13
REMARK    6  A    between atoms: C_16  and  O_17
REMARK                            x       y       z     vdW  Elec       q    Type
REMARK                         _______ _______ _______ _____ _____    ______ ____
ROOT
ATOM      1  O   UNL     1      37.074 -23.549 -13.839  0.00  0.00    -0.317 OA
ATOM      2  C   UNL     1      37.567 -26.396 -13.868  0.00  0.00    +0.172 C 
ATOM      3  C   UNL     1      37.374 -25.608 -12.566  0.00  0.00    +0.178 C 
ATOM      4  C   UNL     1      36.953 -25.665 -15.070  0.00  0.00    +0.196 C 
ATOM      5  C   UNL     1      37.788 -24.150 -12.766  0.00  0.00    +0.245 C 
ATOM      6  C   UNL     1      37.319 -24.175 -15.103  0.00  0.00    +0.263 C 
ENDROOT
BRANCH   2   7
ATOM      7  O   UNL     1      38.959 -26.581 -14.108  0.00  0.00    -0.379 OA
ATOM      8  H   UNL     1      39.273 -27.354 -13.614  0.00  0.00    +0.211 HD
ENDBRANCH   2   7
BRANCH   3   9
ATOM      9  O   UNL     1      36.001 -25.663 -12.182  0.00  0.00    -0.379 OA
ATOM     10  H   UNL     1      35.646 -24.762 -12.118  0.00  0.00    +0.211 HD
ENDBRANCH   3   9
BRANCH   4  11
ATOM     11  O   UNL     1      35.534 -25.793 -15.002  0.00  0.00    -0.378 OA
ATOM     12  H   UNL     1      35.293 -26.303 -14.213  0.00  0.00    +0.211 HD
ENDBRANCH   4  11
BRANCH   6  13
ATOM     13  O   UNL     1      38.671 -24.020 -15.526  0.00  0.00    -0.358 OA
ATOM     14  H   UNL     1      39.184 -24.798 -15.260  0.00  0.00    +0.213 HD
ENDBRANCH   6  13
BRANCH   5  16
ATOM     15  O   UNL     1      36.947 -23.744 -10.539  0.00  0.00    -0.247 OA
ATOM     16  C   UNL     1      37.476 -23.325 -11.558  0.00  0.00    +0.344 C 
BRANCH  16  17
ATOM     17  O   UNL     1      37.859 -22.039 -11.745  0.00  0.00    -0.478 OA
ATOM     18  H   UNL     1      38.014 -21.717 -12.612  0.00  0.00    +0.295 HD
ENDBRANCH  16  17
ENDBRANCH   5  16
TORSDOF 6
ENDMDL
MODEL 4
REMARK VINA RESULT:      -6.9      1.571      4.080
REMARK  Name = 446102
REMARK  6 active torsions:
REMARK  status: ('A' for Active; 'I' for Inactive)
REMARK    1  A    between atoms: C_2  and  O_7
REMARK    2  A    between atoms: C_3  and  O_9
REMARK    3  A    between atoms: C_4  and  O_11
REMARK    4  A    between atoms: C_5  and  C_16
REMARK    5  A    between atoms: C_6  and  O_13
REMARK    6  A    between atoms: C_16  and  O_17
REMARK                            x       y       z     vdW  Elec       q    Type
REMARK                         _______ _______ _______ _____ _____    ______ ____
ROOT
ATOM      1  O   UNL     1      36.120 -24.097 -13.530  0.00  0.00    -0.317 OA
ATOM      2  C   UNL     1      38.598 -25.561 -13.778  0.00  0.00    +0.172 C 
ATOM      3  C   UNL     1      37.704 -25.662 -12.536  0.00  0.00    +0.178 C 
ATOM      4  C   UNL     1      37.811 -25.080 -15.006  0.00  0.00    +0.196 C 
ATOM      5  C   UNL     1      36.888 -24.381 -12.368  0.00  0.00    +0.245 C 
ATOM      6  C   UNL     1      36.919 -23.871 -14.696  0.00  0.00    +0.263 C 
ENDROOT
BRANCH   2   7
ATOM      7  O   UNL     1      39.658 -24.643 -13.526  0.00  0.00    -0.379 OA
ATOM      8  H   UNL     1      40.028 -24.810 -12.645  0.00  0.00    +0.211 HD
ENDBRANCH   2   7
BRANCH   3   9
ATOM      9  O   UNL     1      36.819 -26.772 -12.683  0.00  0.00    -0.379 OA
ATOM     10  H   UNL     1      37.109 -27.321 -13.429  0.00  0.00    +0.211 HD
ENDBRANCH   3   9
BRANCH   4  11
ATOM     11  O   UNL     1      36.995 -26.153 -15.471  0.00  0.00    -0.378 OA
ATOM     12  H   UNL     1      37.448 -26.996 -15.313  0.00  0.00    +0.211 HD
ENDBRANCH   4  11
BRANCH   6  13
ATOM     13  O   UNL     1      37.720 -22.698 -14.580  0.00  0.00    -0.358 OA
ATOM     14  H   UNL     1      37.151 -21.913 -14.615  0.00  0.00    +0.213 HD
ENDBRANCH   6  13
BRANCH   5  16
ATOM     15  O   UNL     1      36.125 -24.222 -10.083  0.00  0.00    -0.247 OA
ATOM     16  C   UNL     1      35.902 -24.505 -11.250  0.00  0.00    +0.344 C 
BRANCH  16  17
ATOM     17  O   UNL     1      34.718 -24.979 -11.708  0.00  0.00    -0.478 OA
ATOM     18  H   UNL     1      33.923 -24.523 -11.512  0.00  0.00    +0.295 HD
ENDBRANCH  16  17
ENDBRANCH   5  16
TORSDOF 6
ENDMDL
MODEL 5
REMARK VINA RESULT:      -6.9      1.750      3.076
REMARK  Name = 446102
REMARK  6 active torsions:
REMARK  status: ('A' for Active; 'I' for Inactive)
REMARK    1  A    between atoms: C_2  and  O_7
REMARK    2  A    between atoms: C_3  and  O_9
REMARK    3  A    between atoms: C_4  and  O_11
REMARK    4  A    between atoms: C_5  and  C_16
REMARK    5  A    between atoms: C_6  and  O_13
REMARK    6  A    between atoms: C_16  and  O_17
REMARK                            x       y       z     vdW  Elec       q    Type
REMARK                         _______ _______ _______ _____ _____    ______ ____
ROOT
ATOM      1  O   UNL     1      37.446 -24.107 -14.182  0.00  0.00    -0.317 OA
ATOM      2  C   UNL     1      36.095 -24.789 -11.721  0.00  0.00    +0.172 C 
ATOM      3  C   UNL     1      36.880 -25.820 -12.541  0.00  0.00    +0.178 C 
ATOM      4  C   UNL     1      36.549 -23.354 -12.030  0.00  0.00    +0.196 C 
ATOM      5  C   UNL     1      36.907 -25.413 -14.014  0.00  0.00    +0.245 C 
ATOM      6  C   UNL     1      36.676 -23.089 -13.536  0.00  0.00    +0.263 C 
ENDROOT
BRANCH   2   7
ATOM      7  O   UNL     1      34.707 -24.903 -12.019  0.00  0.00    -0.379 OA
ATOM      8  H   UNL     1      34.596 -25.197 -12.936  0.00  0.00    +0.211 HD
ENDBRANCH   2   7
BRANCH   3   9
ATOM      9  O   UNL     1      38.216 -25.897 -12.045  0.00  0.00    -0.379 OA
ATOM     10  H   UNL     1      38.771 -26.374 -12.684  0.00  0.00    +0.211 HD
ENDBRANCH   3   9
BRANCH   4  11
ATOM     11  O   UNL     1      37.815 -23.136 -11.411  0.00  0.00    -0.378 OA
ATOM     12  H   UNL     1      37.685 -22.705 -10.551  0.00  0.00    +0.211 HD
ENDBRANCH   4  11
BRANCH   6  13
ATOM     13  O   UNL     1      35.380 -22.949 -14.112  0.00  0.00    -0.358 OA
ATOM     14  H   UNL     1      35.426 -22.346 -14.870  0.00  0.00    +0.213 HD
ENDBRANCH   6  13
BRANCH   5  16
ATOM     15  O   UNL     1      38.952 -26.579 -14.552  0.00  0.00    -0.247 OA
ATOM     16  C   UNL     1      37.786 -26.320 -14.814  0.00  0.00    +0.344 C 
BRANCH  16  17
ATOM     17  O   UNL     1      37.114 -26.822 -15.878  0.00  0.00    -0.478 OA
ATOM     18  H   UNL     1      36.452 -27.473 -15.750  0.00  0.00    +0.295 HD
ENDBRANCH  16  17
ENDBRANCH   5  16
TORSDOF 6
ENDMDL
MODEL 6
REMARK VINA RESULT:      -6.7      1.515      2.123
REMARK  Name = 446102
REMARK  6 active torsions:
REMARK  status: ('A' for Active; 'I' for Inactive)
REMARK    1  A    between atoms: C_2  and  O_7
REMARK    2  A    between atoms: C_3  and  O_9
REMARK    3  A    between atoms: C_4  and  O_11
REMARK    4  A    between atoms: C_5  and  C_16
REMARK    5  A    between atoms: C_6  and  O_13
REMARK    6  A    between atoms: C_16  and  O_17
REMARK                            x       y       z     vdW  Elec       q    Type
REMARK                         _______ _______ _______ _____ _____    ______ ____
ROOT
ATOM      1  O   UNL     1      38.367 -26.640 -14.501  0.00  0.00    -0.317 OA
ATOM      2  C   UNL     1      37.120 -24.110 -13.880  0.00  0.00    +0.172 C 
ATOM      3  C   UNL     1      38.601 -24.225 -14.261  0.00  0.00    +0.178 C 
ATOM      4  C   UNL     1      36.310 -25.314 -14.380  0.00  0.00    +0.196 C 
ATOM      5  C   UNL     1      39.134 -25.609 -13.893  0.00  0.00    +0.245 C 
ATOM      6  C   UNL     1      36.999 -26.653 -14.080  0.00  0.00    +0.263 C 
ENDROOT
BRANCH   2   7
ATOM      7  O   UNL     1      37.000 -24.034 -12.463  0.00  0.00    -0.379 OA
ATOM      8  H   UNL     1      36.475 -24.784 -12.142  0.00  0.00    +0.211 HD
ENDBRANCH   2   7
BRANCH   3   9
ATOM      9  O   UNL     1      38.742 -24.020 -15.667  0.00  0.00    -0.379 OA
ATOM     10  H   UNL     1      39.630 -23.676 -15.856  0.00  0.00    +0.211 HD
ENDBRANCH   3   9
BRANCH   4  11
ATOM     11  O   UNL     1      36.133 -25.189 -15.789  0.00  0.00    -0.378 OA
ATOM     12  H   UNL     1      35.935 -24.265 -16.010  0.00  0.00    +0.211 HD
ENDBRANCH   4  11
BRANCH   6  13
ATOM     13  O   UNL     1      36.866 -26.964 -12.696  0.00  0.00    -0.358 OA
ATOM     14  H   UNL     1      37.177 -26.215 -12.164  0.00  0.00    +0.213 HD
ENDBRANCH   6  13
BRANCH   5  16
ATOM     15  O   UNL     1      41.063 -26.884 -14.587  0.00  0.00    -0.247 OA
ATOM     16  C   UNL     1      40.534 -25.802 -14.383  0.00  0.00    +0.344 C 
BRANCH  16  17
ATOM     17  O   UNL     1      41.144 -24.607 -14.574  0.00  0.00    -0.478 OA
ATOM     18  H   UNL     1      41.464 -24.374 -15.423  0.00  0.00    +0.295 HD
ENDBRANCH  16  17
ENDBRANCH   5  16
TORSDOF 6
ENDMDL
MODEL 7
REMARK VINA RESULT:      -6.7      1.696      4.244
REMARK  Name = 446102
REMARK  6 active torsions:
REMARK  status: ('A' for Active; 'I' for Inactive)
REMARK    1  A    between atoms: C_2  and  O_7
REMARK    2  A    between atoms: C_3  and  O_9
REMARK    3  A    between atoms: C_4  and  O_11
REMARK    4  A    between atoms: C_5  and  C_16
REMARK    5  A    between atoms: C_6  and  O_13
REMARK    6  A    between atoms: C_16  and  O_17
REMARK                            x       y       z     vdW  Elec       q    Type
REMARK                         _______ _______ _______ _____ _____    ______ ____
ROOT
ATOM      1  O   UNL     1      36.681 -26.130 -12.681  0.00  0.00    -0.317 OA
ATOM      2  C   UNL     1      38.055 -24.493 -14.625  0.00  0.00    +0.172 C 
ATOM      3  C   UNL     1      37.362 -23.899 -13.392  0.00  0.00    +0.178 C 
ATOM      4  C   UNL     1      38.397 -25.977 -14.423  0.00  0.00    +0.196 C 
ATOM      5  C   UNL     1      36.221 -24.809 -12.939  0.00  0.00    +0.245 C 
ATOM      6  C   UNL     1      37.226 -26.776 -13.836  0.00  0.00    +0.263 C 
ENDROOT
BRANCH   2   7
ATOM      7  O   UNL     1      37.198 -24.371 -15.756  0.00  0.00    -0.379 OA
ATOM      8  H   UNL     1      37.732 -24.338 -16.564  0.00  0.00    +0.211 HD
ENDBRANCH   2   7
BRANCH   3   9
ATOM      9  O   UNL     1      38.312 -23.767 -12.336  0.00  0.00    -0.379 OA
ATOM     10  H   UNL     1      38.636 -24.645 -12.080  0.00  0.00    +0.211 HD
ENDBRANCH   3   9
BRANCH   4  11
ATOM     11  O   UNL     1      39.512 -26.069 -13.540  0.00  0.00    -0.378 OA
ATOM     12  H   UNL     1      39.195 -26.174 -12.629  0.00  0.00    +0.211 HD
ENDBRANCH   4  11
BRANCH   6  13
ATOM     13  O   UNL     1      36.242 -26.998 -14.842  0.00  0.00    -0.358 OA
ATOM     14  H   UNL     1      36.679 -27.198 -15.684  0.00  0.00    +0.213 HD
ENDBRANCH   6  13
BRANCH   5  16
ATOM     15  O   UNL     1      36.056 -24.578 -10.541  0.00  0.00    -0.247 OA
ATOM     16  C   UNL     1      35.620 -24.331 -11.656  0.00  0.00    +0.344 C 
BRANCH  16  17
ATOM     17  O   UNL     1      34.516 -23.581 -11.894  0.00  0.00    -0.478 OA
ATOM     18  H   UNL     1      34.050 -23.676 -12.702  0.00  0.00    +0.295 HD
ENDBRANCH  16  17
ENDBRANCH   5  16
TORSDOF 6
ENDMDL
MODEL 8
REMARK VINA RESULT:      -6.6      2.392      4.340
REMARK  Name = 446102
REMARK  6 active torsions:
REMARK  status: ('A' for Active; 'I' for Inactive)
REMARK    1  A    between atoms: C_2  and  O_7
REMARK    2  A    between atoms: C_3  and  O_9
REMARK    3  A    between atoms: C_4  and  O_11
REMARK    4  A    between atoms: C_5  and  C_16
REMARK    5  A    between atoms: C_6  and  O_13
REMARK    6  A    between atoms: C_16  and  O_17
REMARK                            x       y       z     vdW  Elec       q    Type
REMARK                         _______ _______ _______ _____ _____    ______ ____
ROOT
ATOM      1  O   UNL     1      34.897 -24.313 -12.883  0.00  0.00    -0.317 OA
ATOM      2  C   UNL     1      37.323 -24.921 -14.330  0.00  0.00    +0.172 C 
ATOM      3  C   UNL     1      37.222 -25.043 -12.804  0.00  0.00    +0.178 C 
ATOM      4  C   UNL     1      35.941 -24.984 -14.996  0.00  0.00    +0.196 C 
ATOM      5  C   UNL     1      36.159 -24.086 -12.267  0.00  0.00    +0.245 C 
ATOM      6  C   UNL     1      34.909 -24.089 -14.297  0.00  0.00    +0.263 C 
ENDROOT
BRANCH   2   7
ATOM      7  O   UNL     1      37.937 -23.680 -14.666  0.00  0.00    -0.379 OA
ATOM      8  H   UNL     1      38.833 -23.652 -14.299  0.00  0.00    +0.211 HD
ENDBRANCH   2   7
BRANCH   3   9
ATOM      9  O   UNL     1      36.872 -26.384 -12.462  0.00  0.00    -0.379 OA
ATOM     10  H   UNL     1      37.270 -26.996 -13.102  0.00  0.00    +0.211 HD
ENDBRANCH   3   9
BRANCH   4  11
ATOM     11  O   UNL     1      35.483 -26.334 -14.964  0.00  0.00    -0.378 OA
ATOM     12  H   UNL     1      35.250 -26.618 -15.862  0.00  0.00    +0.211 HD
ENDBRANCH   4  11
BRANCH   6  13
ATOM     13  O   UNL     1      35.155 -22.724 -14.623  0.00  0.00    -0.358 OA
ATOM     14  H   UNL     1      35.942 -22.415 -14.148  0.00  0.00    +0.213 HD
ENDBRANCH   6  13
BRANCH   5  16
ATOM     15  O   UNL     1      36.499 -23.663  -9.914  0.00  0.00    -0.247 OA
ATOM     16  C   UNL     1      35.936 -24.287 -10.802  0.00  0.00    +0.344 C 
BRANCH  16  17
ATOM     17  O   UNL     1      35.020 -25.261 -10.585  0.00  0.00    -0.478 OA
ATOM     18  H   UNL     1      35.122 -26.099 -10.993  0.00  0.00    +0.295 HD
ENDBRANCH  16  17
ENDBRANCH   5  16
TORSDOF 6
ENDMDL
MODEL 9
REMARK VINA RESULT:      -6.6      2.473      3.123
REMARK  Name = 446102
REMARK  6 active torsions:
REMARK  status: ('A' for Active; 'I' for Inactive)
REMARK    1  A    between atoms: C_2  and  O_7
REMARK    2  A    between atoms: C_3  and  O_9
REMARK    3  A    between atoms: C_4  and  O_11
REMARK    4  A    between atoms: C_5  and  C_16
REMARK    5  A    between atoms: C_6  and  O_13
REMARK    6  A    between atoms: C_16  and  O_17
REMARK                            x       y       z     vdW  Elec       q    Type
REMARK                         _______ _______ _______ _____ _____    ______ ____
ROOT
ATOM      1  O   UNL     1      37.891 -23.652 -13.323  0.00  0.00    -0.317 OA
ATOM      2  C   UNL     1      35.277 -24.556 -12.490  0.00  0.00    +0.172 C 
ATOM      3  C   UNL     1      35.666 -24.416 -13.966  0.00  0.00    +0.178 C 
ATOM      4  C   UNL     1      36.511 -24.698 -11.588  0.00  0.00    +0.196 C 
ATOM      5  C   UNL     1      36.755 -23.356 -14.126  0.00  0.00    +0.245 C 
ATOM      6  C   UNL     1      37.603 -23.672 -11.920  0.00  0.00    +0.263 C 
ENDROOT
BRANCH   2   7
ATOM      7  O   UNL     1      34.542 -23.406 -12.082  0.00  0.00    -0.379 OA
ATOM      8  H   UNL     1      35.112 -22.624 -12.131  0.00  0.00    +0.211 HD
ENDBRANCH   2   7
BRANCH   3   9
ATOM      9  O   UNL     1      36.150 -25.670 -14.446  0.00  0.00    -0.379 OA
ATOM     10  H   UNL     1      36.506 -25.558 -15.342  0.00  0.00    +0.211 HD
ENDBRANCH   3   9
BRANCH   4  11
ATOM     11  O   UNL     1      37.043 -26.011 -11.749  0.00  0.00    -0.378 OA
ATOM     12  H   UNL     1      36.913 -26.515 -10.930  0.00  0.00    +0.211 HD
ENDBRANCH   4  11
BRANCH   6  13
ATOM     13  O   UNL     1      37.224 -22.388 -11.432  0.00  0.00    -0.358 OA
ATOM     14  H   UNL     1      36.977 -22.458 -10.497  0.00  0.00    +0.213 HD
ENDBRANCH   6  13
BRANCH   5  16
ATOM     15  O   UNL     1      36.619 -22.890 -16.491  0.00  0.00    -0.247 OA
ATOM     16  C   UNL     1      37.258 -23.299 -15.533  0.00  0.00    +0.344 C 
BRANCH  16  17
ATOM     17  O   UNL     1      38.528 -23.766 -15.607  0.00  0.00    -0.478 OA
ATOM     18  H   UNL     1      38.730 -24.487 -16.171  0.00  0.00    +0.295 HD
ENDBRANCH  16  17
ENDBRANCH   5  16
TORSDOF 6
ENDMDL
