MODEL 1
REMARK VINA RESULT:      -7.2      0.000      0.000
REMARK  Name = 445246
REMARK  6 active torsions:
REMARK  status: ('A' for Active; 'I' for Inactive)
REMARK    1  A    between atoms: C_2  and  O_12
REMARK    2  A    between atoms: C_3  and  N_8
REMARK    3  A    between atoms: C_4  and  O_14
REMARK    4  A    between atoms: C_5  and  C_18
REMARK    5  A    between atoms: C_6  and  O_16
REMARK    6  A    between atoms: C_18  and  O_19
REMARK                            x       y       z     vdW  Elec       q    Type
REMARK                         _______ _______ _______ _____ _____    ______ ____
ROOT
ATOM      1  O   UNL     1      38.501 -23.729 -15.180  0.00  0.00    -0.327 OA
ATOM      2  C   UNL     1      36.426 -25.697 -14.829  0.00  0.00    +0.162 C 
ATOM      3  C   UNL     1      36.151 -24.318 -15.437  0.00  0.00    +0.158 C 
ATOM      4  C   UNL     1      37.891 -26.075 -15.062  0.00  0.00    +0.169 C 
ATOM      5  C   UNL     1      38.820 -24.969 -14.543  0.00  0.00    +0.176 C 
ATOM      6  C   UNL     1      37.166 -23.285 -14.926  0.00  0.00    +0.253 C 
ENDROOT
BRANCH   3   8
ATOM      7  O   UNL     1      34.123 -23.588 -17.384  0.00  0.00    -0.275 OA
ATOM      8  N   UNL     1      34.793 -23.897 -15.176  0.00  0.00    -0.299 N 
ATOM      9  C   UNL     1      33.896 -23.568 -16.178  0.00  0.00    +0.223 C 
ATOM     10  C   UNL     1      32.544 -23.189 -15.632  0.00  0.00    +0.095 C 
ATOM     11  H   UNL     1      34.492 -23.842 -14.241  0.00  0.00    +0.150 HD
ENDBRANCH   3   8
BRANCH   2  12
ATOM     12  O   UNL     1      36.171 -25.645 -13.422  0.00  0.00    -0.380 OA
ATOM     13  H   UNL     1      35.547 -24.927 -13.233  0.00  0.00    +0.211 HD
ENDBRANCH   2  12
BRANCH   4  14
ATOM     14  O   UNL     1      38.187 -27.306 -14.414  0.00  0.00    -0.379 OA
ATOM     15  H   UNL     1      38.611 -27.129 -13.561  0.00  0.00    +0.211 HD
ENDBRANCH   4  14
BRANCH   6  16
ATOM     16  O   UNL     1      36.940 -22.056 -15.617  0.00  0.00    -0.359 OA
ATOM     17  H   UNL     1      36.152 -21.621 -15.255  0.00  0.00    +0.213 HD
ENDBRANCH   6  16
BRANCH   5  18
ATOM     18  C   UNL     1      40.283 -25.274 -14.843  0.00  0.00    +0.169 C 
BRANCH  18  19
ATOM     19  O   UNL     1      40.359 -25.924 -16.098  0.00  0.00    -0.379 OA
ATOM     20  H   UNL     1      39.490 -26.287 -16.329  0.00  0.00    +0.211 HD
ENDBRANCH  18  19
ENDBRANCH   5  18
TORSDOF 6
ENDMDL
MODEL 2
REMARK VINA RESULT:      -6.7      2.070      2.553
REMARK  Name = 445246
REMARK  6 active torsions:
REMARK  status: ('A' for Active; 'I' for Inactive)
REMARK    1  A    between atoms: C_2  and  O_12
REMARK    2  A    between atoms: C_3  and  N_8
REMARK    3  A    between atoms: C_4  and  O_14
REMARK    4  A    between atoms: C_5  and  C_18
REMARK    5  A    between atoms: C_6  and  O_16
REMARK    6  A    between atoms: C_18  and  O_19
REMARK                            x       y       z     vdW  Elec       q    Type
REMARK                         _______ _______ _______ _____ _____    ______ ____
ROOT
ATOM      1  O   UNL     1      36.702 -24.676 -15.463  0.00  0.00    -0.327 OA
ATOM      2  C   UNL     1      35.442 -24.574 -12.873  0.00  0.00    +0.162 C 
ATOM      3  C   UNL     1      34.645 -24.458 -14.177  0.00  0.00    +0.158 C 
ATOM      4  C   UNL     1      36.733 -25.355 -13.133  0.00  0.00    +0.169 C 
ATOM      5  C   UNL     1      37.519 -24.724 -14.290  0.00  0.00    +0.176 C 
ATOM      6  C   UNL     1      35.520 -23.888 -15.302  0.00  0.00    +0.253 C 
ENDROOT
BRANCH   3   8
ATOM      7  O   UNL     1      31.908 -25.410 -13.977  0.00  0.00    -0.275 OA
ATOM      8  N   UNL     1      33.450 -23.665 -13.986  0.00  0.00    -0.299 N 
ATOM      9  C   UNL     1      32.182 -24.215 -13.902  0.00  0.00    +0.223 C 
ATOM     10  C   UNL     1      31.121 -23.171 -13.677  0.00  0.00    +0.095 C 
ATOM     11  H   UNL     1      33.544 -22.689 -13.910  0.00  0.00    +0.150 HD
ENDBRANCH   3   8
BRANCH   2  12
ATOM     12  O   UNL     1      35.771 -23.261 -12.410  0.00  0.00    -0.380 OA
ATOM     13  H   UNL     1      36.206 -22.766 -13.122  0.00  0.00    +0.211 HD
ENDBRANCH   2  12
BRANCH   4  14
ATOM     14  O   UNL     1      37.532 -25.382 -11.957  0.00  0.00    -0.379 OA
ATOM     15  H   UNL     1      38.036 -24.557 -11.889  0.00  0.00    +0.211 HD
ENDBRANCH   4  14
BRANCH   6  16
ATOM     16  O   UNL     1      34.766 -23.919 -16.515  0.00  0.00    -0.359 OA
ATOM     17  H   UNL     1      35.182 -24.535 -17.138  0.00  0.00    +0.213 HD
ENDBRANCH   6  16
BRANCH   5  18
ATOM     18  C   UNL     1      38.766 -25.532 -14.633  0.00  0.00    +0.169 C 
BRANCH  18  19
ATOM     19  O   UNL     1      38.454 -26.909 -14.520  0.00  0.00    -0.379 OA
ATOM     20  H   UNL     1      38.763 -27.377 -15.312  0.00  0.00    +0.211 HD
ENDBRANCH  18  19
ENDBRANCH   5  18
TORSDOF 6
ENDMDL
MODEL 3
REMARK VINA RESULT:      -6.6      2.346      5.415
REMARK  Name = 445246
REMARK  6 active torsions:
REMARK  status: ('A' for Active; 'I' for Inactive)
REMARK    1  A    between atoms: C_2  and  O_12
REMARK    2  A    between atoms: C_3  and  N_8
REMARK    3  A    between atoms: C_4  and  O_14
REMARK    4  A    between atoms: C_5  and  C_18
REMARK    5  A    between atoms: C_6  and  O_16
REMARK    6  A    between atoms: C_18  and  O_19
REMARK                            x       y       z     vdW  Elec       q    Type
REMARK                         _______ _______ _______ _____ _____    ______ ____
ROOT
ATOM      1  O   UNL     1      35.559 -25.402 -15.170  0.00  0.00    -0.327 OA
ATOM      2  C   UNL     1      37.496 -24.656 -13.171  0.00  0.00    +0.162 C 
ATOM      3  C   UNL     1      37.874 -25.469 -14.414  0.00  0.00    +0.158 C 
ATOM      4  C   UNL     1      36.252 -23.815 -13.471  0.00  0.00    +0.169 C 
ATOM      5  C   UNL     1      35.119 -24.702 -14.004  0.00  0.00    +0.176 C 
ATOM      6  C   UNL     1      36.669 -26.271 -14.929  0.00  0.00    +0.253 C 
ENDROOT
BRANCH   3   8
ATOM      7  O   UNL     1      40.691 -24.769 -14.522  0.00  0.00    -0.275 OA
ATOM      8  N   UNL     1      39.004 -26.330 -14.147  0.00  0.00    -0.299 N 
ATOM      9  C   UNL     1      40.318 -25.901 -14.225  0.00  0.00    +0.223 C 
ATOM     10  C   UNL     1      41.297 -26.990 -13.874  0.00  0.00    +0.095 C 
ATOM     11  H   UNL     1      38.831 -27.266 -13.897  0.00  0.00    +0.150 HD
ENDBRANCH   3   8
BRANCH   2  12
ATOM     12  O   UNL     1      37.208 -25.556 -12.097  0.00  0.00    -0.380 OA
ATOM     13  H   UNL     1      37.391 -25.117 -11.250  0.00  0.00    +0.211 HD
ENDBRANCH   2  12
BRANCH   4  14
ATOM     14  O   UNL     1      35.829 -23.134 -12.296  0.00  0.00    -0.379 OA
ATOM     15  H   UNL     1      36.581 -22.660 -11.909  0.00  0.00    +0.211 HD
ENDBRANCH   4  14
BRANCH   6  16
ATOM     16  O   UNL     1      37.044 -26.906 -16.152  0.00  0.00    -0.359 OA
ATOM     17  H   UNL     1      37.025 -26.257 -16.872  0.00  0.00    +0.213 HD
ENDBRANCH   6  16
BRANCH   5  18
ATOM     18  C   UNL     1      33.897 -23.880 -14.398  0.00  0.00    +0.169 C 
BRANCH  18  19
ATOM     19  O   UNL     1      33.192 -23.530 -13.221  0.00  0.00    -0.379 OA
ATOM     20  H   UNL     1      32.359 -23.094 -13.459  0.00  0.00    +0.211 HD
ENDBRANCH  18  19
ENDBRANCH   5  18
TORSDOF 6
ENDMDL
MODEL 4
REMARK VINA RESULT:      -6.5     10.798     12.684
REMARK  Name = 445246
REMARK  6 active torsions:
REMARK  status: ('A' for Active; 'I' for Inactive)
REMARK    1  A    between atoms: C_2  and  O_12
REMARK    2  A    between atoms: C_3  and  N_8
REMARK    3  A    between atoms: C_4  and  O_14
REMARK    4  A    between atoms: C_5  and  C_18
REMARK    5  A    between atoms: C_6  and  O_16
REMARK    6  A    between atoms: C_18  and  O_19
REMARK                            x       y       z     vdW  Elec       q    Type
REMARK                         _______ _______ _______ _____ _____    ______ ____
ROOT
ATOM      1  O   UNL     1      35.121 -17.500 -23.516  0.00  0.00    -0.327 OA
ATOM      2  C   UNL     1      33.789 -15.066 -22.738  0.00  0.00    +0.162 C 
ATOM      3  C   UNL     1      33.754 -15.595 -24.176  0.00  0.00    +0.158 C 
ATOM      4  C   UNL     1      34.009 -16.233 -21.771  0.00  0.00    +0.169 C 
ATOM      5  C   UNL     1      35.255 -17.034 -22.171  0.00  0.00    +0.176 C 
ATOM      6  C   UNL     1      34.997 -16.446 -24.474  0.00  0.00    +0.253 C 
ENDROOT
BRANCH   3   8
ATOM      7  O   UNL     1      32.507 -15.690 -26.797  0.00  0.00    -0.275 OA
ATOM      8  N   UNL     1      33.617 -14.512 -25.124  0.00  0.00    -0.299 N 
ATOM      9  C   UNL     1      33.003 -14.657 -26.356  0.00  0.00    +0.223 C 
ATOM     10  C   UNL     1      32.973 -13.369 -27.135  0.00  0.00    +0.095 C 
ATOM     11  H   UNL     1      33.978 -13.630 -24.881  0.00  0.00    +0.150 HD
ENDBRANCH   3   8
BRANCH   2  12
ATOM     12  O   UNL     1      34.870 -14.138 -22.610  0.00  0.00    -0.380 OA
ATOM     13  H   UNL     1      34.637 -13.308 -23.055  0.00  0.00    +0.211 HD
ENDBRANCH   2  12
BRANCH   4  14
ATOM     14  O   UNL     1      34.146 -15.745 -20.442  0.00  0.00    -0.379 OA
ATOM     15  H   UNL     1      34.574 -16.420 -19.893  0.00  0.00    +0.211 HD
ENDBRANCH   4  14
BRANCH   6  16
ATOM     16  O   UNL     1      34.850 -17.011 -25.777  0.00  0.00    -0.359 OA
ATOM     17  H   UNL     1      34.007 -17.487 -25.830  0.00  0.00    +0.213 HD
ENDBRANCH   6  16
BRANCH   5  18
ATOM     18  C   UNL     1      35.449 -18.257 -21.280  0.00  0.00    +0.169 C 
BRANCH  18  19
ATOM     19  O   UNL     1      34.175 -18.737 -20.892  0.00  0.00    -0.379 OA
ATOM     20  H   UNL     1      34.282 -19.493 -20.294  0.00  0.00    +0.211 HD
ENDBRANCH  18  19
ENDBRANCH   5  18
TORSDOF 6
ENDMDL
MODEL 5
REMARK VINA RESULT:      -6.5      2.147      5.461
REMARK  Name = 445246
REMARK  6 active torsions:
REMARK  status: ('A' for Active; 'I' for Inactive)
REMARK    1  A    between atoms: C_2  and  O_12
REMARK    2  A    between atoms: C_3  and  N_8
REMARK    3  A    between atoms: C_4  and  O_14
REMARK    4  A    between atoms: C_5  and  C_18
REMARK    5  A    between atoms: C_6  and  O_16
REMARK    6  A    between atoms: C_18  and  O_19
REMARK                            x       y       z     vdW  Elec       q    Type
REMARK                         _______ _______ _______ _____ _____    ______ ____
ROOT
ATOM      1  O   UNL     1      34.375 -24.705 -12.548  0.00  0.00    -0.327 OA
ATOM      2  C   UNL     1      35.901 -24.383 -14.972  0.00  0.00    +0.162 C 
ATOM      3  C   UNL     1      36.464 -25.099 -13.739  0.00  0.00    +0.158 C 
ATOM      4  C   UNL     1      34.373 -24.480 -14.964  0.00  0.00    +0.169 C 
ATOM      5  C   UNL     1      33.808 -23.967 -13.633  0.00  0.00    +0.176 C 
ATOM      6  C   UNL     1      35.797 -24.582 -12.456  0.00  0.00    +0.253 C 
ENDROOT
BRANCH   3   8
ATOM      7  O   UNL     1      38.452 -26.956 -14.755  0.00  0.00    -0.275 OA
ATOM      8  N   UNL     1      37.902 -24.968 -13.675  0.00  0.00    -0.299 N 
ATOM      9  C   UNL     1      38.773 -25.913 -14.191  0.00  0.00    +0.223 C 
ATOM     10  C   UNL     1      40.215 -25.518 -14.014  0.00  0.00    +0.095 C 
ATOM     11  H   UNL     1      38.280 -24.168 -13.244  0.00  0.00    +0.150 HD
ENDBRANCH   3   8
BRANCH   2  12
ATOM     12  O   UNL     1      36.285 -23.006 -14.927  0.00  0.00    -0.380 OA
ATOM     13  H   UNL     1      36.230 -22.626 -15.818  0.00  0.00    +0.211 HD
ENDBRANCH   2  12
BRANCH   4  14
ATOM     14  O   UNL     1      33.831 -23.734 -16.047  0.00  0.00    -0.379 OA
ATOM     15  H   UNL     1      34.529 -23.193 -16.448  0.00  0.00    +0.211 HD
ENDBRANCH   4  14
BRANCH   6  16
ATOM     16  O   UNL     1      36.267 -25.366 -11.360  0.00  0.00    -0.359 OA
ATOM     17  H   UNL     1      36.981 -24.893 -10.906  0.00  0.00    +0.213 HD
ENDBRANCH   6  16
BRANCH   5  18
ATOM     18  C   UNL     1      32.294 -24.136 -13.560  0.00  0.00    +0.169 C 
BRANCH  18  19
ATOM     19  O   UNL     1      31.968 -25.451 -13.968  0.00  0.00    -0.379 OA
ATOM     20  H   UNL     1      32.244 -25.583 -14.888  0.00  0.00    +0.211 HD
ENDBRANCH  18  19
ENDBRANCH   5  18
TORSDOF 6
ENDMDL
MODEL 6
REMARK VINA RESULT:      -6.5      1.870      2.776
REMARK  Name = 445246
REMARK  6 active torsions:
REMARK  status: ('A' for Active; 'I' for Inactive)
REMARK    1  A    between atoms: C_2  and  O_12
REMARK    2  A    between atoms: C_3  and  N_8
REMARK    3  A    between atoms: C_4  and  O_14
REMARK    4  A    between atoms: C_5  and  C_18
REMARK    5  A    between atoms: C_6  and  O_16
REMARK    6  A    between atoms: C_18  and  O_19
REMARK                            x       y       z     vdW  Elec       q    Type
REMARK                         _______ _______ _______ _____ _____    ______ ____
ROOT
ATOM      1  O   UNL     1      38.228 -26.308 -14.907  0.00  0.00    -0.327 OA
ATOM      2  C   UNL     1      36.929 -24.286 -13.317  0.00  0.00    +0.162 C 
ATOM      3  C   UNL     1      36.142 -25.342 -14.101  0.00  0.00    +0.158 C 
ATOM      4  C   UNL     1      38.321 -24.830 -12.985  0.00  0.00    +0.169 C 
ATOM      5  C   UNL     1      39.027 -25.315 -14.258  0.00  0.00    +0.176 C 
ATOM      6  C   UNL     1      36.945 -25.829 -15.316  0.00  0.00    +0.253 C 
ENDROOT
BRANCH   3   8
ATOM      7  O   UNL     1      34.043 -24.329 -12.368  0.00  0.00    -0.275 OA
ATOM      8  N   UNL     1      34.846 -24.837 -14.494  0.00  0.00    -0.299 N 
ATOM      9  C   UNL     1      33.907 -24.373 -13.588  0.00  0.00    +0.223 C 
ATOM     10  C   UNL     1      32.655 -23.882 -14.264  0.00  0.00    +0.095 C 
ATOM     11  H   UNL     1      34.621 -24.821 -15.452  0.00  0.00    +0.150 HD
ENDBRANCH   3   8
BRANCH   2  12
ATOM     12  O   UNL     1      37.063 -23.111 -14.123  0.00  0.00    -0.380 OA
ATOM     13  H   UNL     1      37.127 -22.331 -13.549  0.00  0.00    +0.211 HD
ENDBRANCH   2  12
BRANCH   4  14
ATOM     14  O   UNL     1      39.099 -23.824 -12.347  0.00  0.00    -0.379 OA
ATOM     15  H   UNL     1      38.980 -23.884 -11.386  0.00  0.00    +0.211 HD
ENDBRANCH   4  14
BRANCH   6  16
ATOM     16  O   UNL     1      36.221 -26.894 -15.933  0.00  0.00    -0.359 OA
ATOM     17  H   UNL     1      35.372 -26.559 -16.263  0.00  0.00    +0.213 HD
ENDBRANCH   6  16
BRANCH   5  18
ATOM     18  C   UNL     1      40.380 -25.947 -13.947  0.00  0.00    +0.169 C 
BRANCH  18  19
ATOM     19  O   UNL     1      40.992 -26.321 -15.167  0.00  0.00    -0.379 OA
ATOM     20  H   UNL     1      41.947 -26.422 -15.033  0.00  0.00    +0.211 HD
ENDBRANCH  18  19
ENDBRANCH   5  18
TORSDOF 6
ENDMDL
MODEL 7
REMARK VINA RESULT:      -6.4      2.896      4.728
REMARK  Name = 445246
REMARK  6 active torsions:
REMARK  status: ('A' for Active; 'I' for Inactive)
REMARK    1  A    between atoms: C_2  and  O_12
REMARK    2  A    between atoms: C_3  and  N_8
REMARK    3  A    between atoms: C_4  and  O_14
REMARK    4  A    between atoms: C_5  and  C_18
REMARK    5  A    between atoms: C_6  and  O_16
REMARK    6  A    between atoms: C_18  and  O_19
REMARK                            x       y       z     vdW  Elec       q    Type
REMARK                         _______ _______ _______ _____ _____    ______ ____
ROOT
ATOM      1  O   UNL     1      34.196 -23.842 -16.530  0.00  0.00    -0.327 OA
ATOM      2  C   UNL     1      32.117 -23.844 -14.533  0.00  0.00    +0.162 C 
ATOM      3  C   UNL     1      31.818 -23.670 -16.026  0.00  0.00    +0.158 C 
ATOM      4  C   UNL     1      33.428 -24.617 -14.362  0.00  0.00    +0.169 C 
ATOM      5  C   UNL     1      34.558 -23.941 -15.150  0.00  0.00    +0.176 C 
ATOM      6  C   UNL     1      33.022 -23.057 -16.756  0.00  0.00    +0.253 C 
ENDROOT
BRANCH   3   8
ATOM      7  O   UNL     1      29.081 -24.627 -16.189  0.00  0.00    -0.275 OA
ATOM      8  N   UNL     1      30.623 -22.883 -16.228  0.00  0.00    -0.299 N 
ATOM      9  C   UNL     1      29.354 -23.434 -16.292  0.00  0.00    +0.223 C 
ATOM     10  C   UNL     1      28.287 -22.390 -16.482  0.00  0.00    +0.095 C 
ATOM     11  H   UNL     1      30.716 -21.908 -16.324  0.00  0.00    +0.150 HD
ENDBRANCH   3   8
BRANCH   2  12
ATOM     12  O   UNL     1      32.251 -22.553 -13.932  0.00  0.00    -0.380 OA
ATOM     13  H   UNL     1      32.061 -21.867 -14.592  0.00  0.00    +0.211 HD
ENDBRANCH   2  12
BRANCH   4  14
ATOM     14  O   UNL     1      33.771 -24.697 -12.984  0.00  0.00    -0.379 OA
ATOM     15  H   UNL     1      33.621 -25.600 -12.665  0.00  0.00    +0.211 HD
ENDBRANCH   4  14
BRANCH   6  16
ATOM     16  O   UNL     1      32.734 -23.035 -18.154  0.00  0.00    -0.359 OA
ATOM     17  H   UNL     1      32.589 -23.940 -18.469  0.00  0.00    +0.213 HD
ENDBRANCH   6  16
BRANCH   5  18
ATOM     18  C   UNL     1      35.855 -24.739 -15.073  0.00  0.00    +0.169 C 
BRANCH  18  19
ATOM     19  O   UNL     1      35.535 -26.118 -15.055  0.00  0.00    -0.379 OA
ATOM     20  H   UNL     1      35.840 -26.532 -15.877  0.00  0.00    +0.211 HD
ENDBRANCH  18  19
ENDBRANCH   5  18
TORSDOF 6
ENDMDL
MODEL 8
REMARK VINA RESULT:      -6.4      9.992     12.354
REMARK  Name = 445246
REMARK  6 active torsions:
REMARK  status: ('A' for Active; 'I' for Inactive)
REMARK    1  A    between atoms: C_2  and  O_12
REMARK    2  A    between atoms: C_3  and  N_8
REMARK    3  A    between atoms: C_4  and  O_14
REMARK    4  A    between atoms: C_5  and  C_18
REMARK    5  A    between atoms: C_6  and  O_16
REMARK    6  A    between atoms: C_18  and  O_19
REMARK                            x       y       z     vdW  Elec       q    Type
REMARK                         _______ _______ _______ _____ _____    ______ ____
ROOT
ATOM      1  O   UNL     1      34.116 -14.256 -21.761  0.00  0.00    -0.327 OA
ATOM      2  C   UNL     1      34.356 -16.536 -23.506  0.00  0.00    +0.162 C 
ATOM      3  C   UNL     1      34.355 -16.670 -21.979  0.00  0.00    +0.158 C 
ATOM      4  C   UNL     1      33.602 -15.265 -23.907  0.00  0.00    +0.169 C 
ATOM      5  C   UNL     1      34.177 -14.046 -23.174  0.00  0.00    +0.176 C 
ATOM      6  C   UNL     1      34.874 -15.385 -21.319  0.00  0.00    +0.253 C 
ENDROOT
BRANCH   3   8
ATOM      7  O   UNL     1      33.332 -19.183 -20.941  0.00  0.00    -0.275 OA
ATOM      8  N   UNL     1      35.119 -17.823 -21.559  0.00  0.00    -0.299 N 
ATOM      9  C   UNL     1      34.537 -18.983 -21.075  0.00  0.00    +0.223 C 
ATOM     10  C   UNL     1      35.558 -20.036 -20.735  0.00  0.00    +0.095 C 
ATOM     11  H   UNL     1      36.100 -17.782 -21.621  0.00  0.00    +0.150 HD
ENDBRANCH   3   8
BRANCH   2  12
ATOM     12  O   UNL     1      35.708 -16.446 -23.965  0.00  0.00    -0.380 OA
ATOM     13  H   UNL     1      36.307 -16.408 -23.202  0.00  0.00    +0.211 HD
ENDBRANCH   2  12
BRANCH   4  14
ATOM     14  O   UNL     1      33.683 -15.073 -25.314  0.00  0.00    -0.379 OA
ATOM     15  H   UNL     1      34.470 -14.548 -25.524  0.00  0.00    +0.211 HD
ENDBRANCH   4  14
BRANCH   6  16
ATOM     16  O   UNL     1      34.734 -15.520 -19.904  0.00  0.00    -0.359 OA
ATOM     17  H   UNL     1      34.581 -14.648 -19.510  0.00  0.00    +0.213 HD
ENDBRANCH   6  16
BRANCH   5  18
ATOM     18  C   UNL     1      33.388 -12.778 -23.483  0.00  0.00    +0.169 C 
BRANCH  18  19
ATOM     19  O   UNL     1      34.129 -12.000 -24.404  0.00  0.00    -0.379 OA
ATOM     20  H   UNL     1      34.993 -12.413 -24.556  0.00  0.00    +0.211 HD
ENDBRANCH  18  19
ENDBRANCH   5  18
TORSDOF 6
ENDMDL
MODEL 9
REMARK VINA RESULT:      -6.3      8.680     10.999
REMARK  Name = 445246
REMARK  6 active torsions:
REMARK  status: ('A' for Active; 'I' for Inactive)
REMARK    1  A    between atoms: C_2  and  O_12
REMARK    2  A    between atoms: C_3  and  N_8
REMARK    3  A    between atoms: C_4  and  O_14
REMARK    4  A    between atoms: C_5  and  C_18
REMARK    5  A    between atoms: C_6  and  O_16
REMARK    6  A    between atoms: C_18  and  O_19
REMARK                            x       y       z     vdW  Elec       q    Type
REMARK                         _______ _______ _______ _____ _____    ______ ____
ROOT
ATOM      1  O   UNL     1      34.394 -16.015 -22.515  0.00  0.00    -0.327 OA
ATOM      2  C   UNL     1      35.025 -18.742 -23.202  0.00  0.00    +0.162 C 
ATOM      3  C   UNL     1      34.884 -18.275 -21.749  0.00  0.00    +0.158 C 
ATOM      4  C   UNL     1      34.197 -17.831 -24.113  0.00  0.00    +0.169 C 
ATOM      5  C   UNL     1      34.577 -16.361 -23.891  0.00  0.00    +0.176 C 
ATOM      6  C   UNL     1      35.209 -16.780 -21.622  0.00  0.00    +0.253 C 
ENDROOT
BRANCH   3   8
ATOM      7  O   UNL     1      34.189 -20.789 -20.471  0.00  0.00    -0.275 OA
ATOM      8  N   UNL     1      35.708 -19.070 -20.866  0.00  0.00    -0.299 N 
ATOM      9  C   UNL     1      35.285 -20.262 -20.304  0.00  0.00    +0.223 C 
ATOM     10  C   UNL     1      36.347 -20.897 -19.446  0.00  0.00    +0.095 C 
ATOM     11  H   UNL     1      36.614 -18.748 -20.656  0.00  0.00    +0.150 HD
ENDBRANCH   3   8
BRANCH   2  12
ATOM     12  O   UNL     1      36.402 -18.664 -23.584  0.00  0.00    -0.380 OA
ATOM     13  H   UNL     1      36.956 -18.618 -22.789  0.00  0.00    +0.211 HD
ENDBRANCH   2  12
BRANCH   4  14
ATOM     14  O   UNL     1      34.400 -18.188 -25.474  0.00  0.00    -0.379 OA
ATOM     15  H   UNL     1      34.566 -17.389 -25.997  0.00  0.00    +0.211 HD
ENDBRANCH   4  14
BRANCH   6  16
ATOM     16  O   UNL     1      34.941 -16.376 -20.279  0.00  0.00    -0.359 OA
ATOM     17  H   UNL     1      33.982 -16.321 -20.143  0.00  0.00    +0.213 HD
ENDBRANCH   6  16
BRANCH   5  18
ATOM     18  C   UNL     1      33.705 -15.422 -24.718  0.00  0.00    +0.169 C 
BRANCH  18  19
ATOM     19  O   UNL     1      34.031 -15.593 -26.085  0.00  0.00    -0.379 OA
ATOM     20  H   UNL     1      33.436 -16.248 -26.481  0.00  0.00    +0.211 HD
ENDBRANCH  18  19
ENDBRANCH   5  18
TORSDOF 6
ENDMDL
