MODEL 1
REMARK VINA RESULT:      -7.9      0.000      0.000
REMARK  Name = 39912
REMARK  5 active torsions:
REMARK  status: ('A' for Active; 'I' for Inactive)
REMARK    1  A    between atoms: C_1  and  C_13
REMARK    2  A    between atoms: C_2  and  C_7
REMARK    3  A    between atoms: C_7  and  C_10
REMARK    4  A    between atoms: C_10  and  O_11
REMARK    5  A    between atoms: C_13  and  C_14
REMARK                            x       y       z     vdW  Elec       q    Type
REMARK                         _______ _______ _______ _____ _____    ______ ____
ROOT
ATOM      1  C   UNL     1      34.185 -21.854 -19.425  0.00  0.00    -0.022 C 
ATOM      2  C   UNL     1      35.084 -19.634 -20.817  0.00  0.00    -0.012 C 
ATOM      3  C   UNL     1      35.547 -21.669 -19.601  0.00  0.00    -0.005 C 
ATOM      4  C   UNL     1      33.263 -20.951 -19.933  0.00  0.00    -0.005 C 
ATOM      5  C   UNL     1      36.000 -20.551 -20.302  0.00  0.00    -0.004 C 
ATOM      6  C   UNL     1      33.717 -19.834 -20.633  0.00  0.00    -0.004 C 
ENDROOT
BRANCH   2   7
ATOM      7  C   UNL     1      35.569 -18.439 -21.567  0.00  0.00    +0.121 C 
ATOM      8  C   UNL     1      34.962 -17.110 -21.074  0.00  0.00    +0.016 C 
BRANCH   7  10
ATOM      9  O   UNL     1      34.933 -19.570 -23.637  0.00  0.00    -0.250 OA
ATOM     10  C   UNL     1      35.343 -18.560 -23.078  0.00  0.00    +0.317 C 
BRANCH  10  11
ATOM     11  O   UNL     1      35.655 -17.424 -23.758  0.00  0.00    -0.480 OA
ATOM     12  H   UNL     1      35.788 -17.456 -24.685  0.00  0.00    +0.295 HD
ENDBRANCH  10  11
ENDBRANCH   7  10
ENDBRANCH   2   7
BRANCH   1  13
ATOM     13  C   UNL     1      33.694 -23.065 -18.667  0.00  0.00    +0.026 C 
BRANCH  13  14
ATOM     14  C   UNL     1      33.424 -22.779 -17.177  0.00  0.00    +0.004 C 
ATOM     15  C   UNL     1      34.383 -23.542 -16.259  0.00  0.00    +0.000 C 
ATOM     16  C   UNL     1      31.979 -23.152 -16.832  0.00  0.00    +0.000 C 
ENDBRANCH  13  14
ENDBRANCH   1  13
TORSDOF 5
ENDMDL
MODEL 2
REMARK VINA RESULT:      -7.9      3.599      6.417
REMARK  Name = 39912
REMARK  5 active torsions:
REMARK  status: ('A' for Active; 'I' for Inactive)
REMARK    1  A    between atoms: C_1  and  C_13
REMARK    2  A    between atoms: C_2  and  C_7
REMARK    3  A    between atoms: C_7  and  C_10
REMARK    4  A    between atoms: C_10  and  O_11
REMARK    5  A    between atoms: C_13  and  C_14
REMARK                            x       y       z     vdW  Elec       q    Type
REMARK                         _______ _______ _______ _____ _____    ______ ____
ROOT
ATOM      1  C   UNL     1      35.088 -20.575 -20.140  0.00  0.00    -0.022 C 
ATOM      2  C   UNL     1      34.096 -22.400 -18.307  0.00  0.00    -0.012 C 
ATOM      3  C   UNL     1      33.721 -20.794 -20.072  0.00  0.00    -0.005 C 
ATOM      4  C   UNL     1      35.969 -21.251 -19.311  0.00  0.00    -0.005 C 
ATOM      5  C   UNL     1      33.222 -21.713 -19.149  0.00  0.00    -0.004 C 
ATOM      6  C   UNL     1      35.469 -22.169 -18.388  0.00  0.00    -0.004 C 
ENDROOT
BRANCH   2   7
ATOM      7  C   UNL     1      33.562 -23.382 -17.320  0.00  0.00    +0.121 C 
ATOM      8  C   UNL     1      32.127 -23.071 -16.848  0.00  0.00    +0.016 C 
BRANCH   7  10
ATOM      9  O   UNL     1      35.358 -24.370 -15.990  0.00  0.00    -0.250 OA
ATOM     10  C   UNL     1      34.468 -23.536 -16.093  0.00  0.00    +0.317 C 
BRANCH  10  11
ATOM     11  O   UNL     1      34.180 -22.649 -15.102  0.00  0.00    -0.480 OA
ATOM     12  H   UNL     1      34.749 -22.576 -14.362  0.00  0.00    +0.295 HD
ENDBRANCH  10  11
ENDBRANCH   7  10
ENDBRANCH   2   7
BRANCH   1  13
ATOM     13  C   UNL     1      35.629 -19.581 -21.141  0.00  0.00    +0.026 C 
BRANCH  13  14
ATOM     14  C   UNL     1      34.527 -18.899 -21.975  0.00  0.00    +0.004 C 
ATOM     15  C   UNL     1      34.790 -19.007 -23.479  0.00  0.00    +0.000 C 
ATOM     16  C   UNL     1      34.417 -17.424 -21.578  0.00  0.00    +0.000 C 
ENDBRANCH  13  14
ENDBRANCH   1  13
TORSDOF 5
ENDMDL
MODEL 3
REMARK VINA RESULT:      -7.8      1.532      1.788
REMARK  Name = 39912
REMARK  5 active torsions:
REMARK  status: ('A' for Active; 'I' for Inactive)
REMARK    1  A    between atoms: C_1  and  C_13
REMARK    2  A    between atoms: C_2  and  C_7
REMARK    3  A    between atoms: C_7  and  C_10
REMARK    4  A    between atoms: C_10  and  O_11
REMARK    5  A    between atoms: C_13  and  C_14
REMARK                            x       y       z     vdW  Elec       q    Type
REMARK                         _______ _______ _______ _____ _____    ______ ____
ROOT
ATOM      1  C   UNL     1      34.055 -21.810 -19.453  0.00  0.00    -0.022 C 
ATOM      2  C   UNL     1      34.368 -19.545 -21.017  0.00  0.00    -0.012 C 
ATOM      3  C   UNL     1      35.328 -21.424 -19.840  0.00  0.00    -0.005 C 
ATOM      4  C   UNL     1      32.935 -21.088 -19.832  0.00  0.00    -0.005 C 
ATOM      5  C   UNL     1      35.485 -20.283 -20.628  0.00  0.00    -0.004 C 
ATOM      6  C   UNL     1      33.093 -19.948 -20.619  0.00  0.00    -0.004 C 
ENDROOT
BRANCH   2   7
ATOM      7  C   UNL     1      34.536 -18.326 -21.859  0.00  0.00    +0.121 C 
ATOM      8  C   UNL     1      35.833 -18.323 -22.694  0.00  0.00    +0.016 C 
BRANCH   7  10
ATOM      9  O   UNL     1      35.323 -16.671 -20.242  0.00  0.00    -0.250 OA
ATOM     10  C   UNL     1      34.467 -17.032 -21.041  0.00  0.00    +0.317 C 
BRANCH  10  11
ATOM     11  O   UNL     1      33.341 -16.308 -21.280  0.00  0.00    -0.480 OA
ATOM     12  H   UNL     1      32.794 -16.522 -22.010  0.00  0.00    +0.295 HD
ENDBRANCH  10  11
ENDBRANCH   7  10
ENDBRANCH   2   7
BRANCH   1  13
ATOM     13  C   UNL     1      33.884 -23.046 -18.601  0.00  0.00    +0.026 C 
BRANCH  13  14
ATOM     14  C   UNL     1      33.541 -22.728 -17.133  0.00  0.00    +0.004 C 
ATOM     15  C   UNL     1      34.521 -23.382 -16.155  0.00  0.00    +0.000 C 
ATOM     16  C   UNL     1      32.117 -23.196 -16.821  0.00  0.00    +0.000 C 
ENDBRANCH  13  14
ENDBRANCH   1  13
TORSDOF 5
ENDMDL
MODEL 4
REMARK VINA RESULT:      -7.7      2.822      6.264
REMARK  Name = 39912
REMARK  5 active torsions:
REMARK  status: ('A' for Active; 'I' for Inactive)
REMARK    1  A    between atoms: C_1  and  C_13
REMARK    2  A    between atoms: C_2  and  C_7
REMARK    3  A    between atoms: C_7  and  C_10
REMARK    4  A    between atoms: C_10  and  O_11
REMARK    5  A    between atoms: C_13  and  C_14
REMARK                            x       y       z     vdW  Elec       q    Type
REMARK                         _______ _______ _______ _____ _____    ______ ____
ROOT
ATOM      1  C   UNL     1      34.745 -18.728 -21.515  0.00  0.00    -0.022 C 
ATOM      2  C   UNL     1      35.030 -20.953 -19.889  0.00  0.00    -0.012 C 
ATOM      3  C   UNL     1      33.612 -19.369 -21.037  0.00  0.00    -0.005 C 
ATOM      4  C   UNL     1      36.016 -19.178 -21.197  0.00  0.00    -0.005 C 
ATOM      5  C   UNL     1      33.756 -20.489 -20.218  0.00  0.00    -0.004 C 
ATOM      6  C   UNL     1      36.159 -20.297 -20.378  0.00  0.00    -0.004 C 
ENDROOT
BRANCH   2   7
ATOM      7  C   UNL     1      35.184 -22.150 -19.013  0.00  0.00    +0.121 C 
ATOM      8  C   UNL     1      33.845 -22.717 -18.497  0.00  0.00    +0.016 C 
BRANCH   7  10
ATOM      9  O   UNL     1      36.902 -20.962 -17.748  0.00  0.00    -0.250 OA
ATOM     10  C   UNL     1      36.109 -21.892 -17.820  0.00  0.00    +0.317 C 
BRANCH  10  11
ATOM     11  O   UNL     1      35.975 -22.815 -16.830  0.00  0.00    -0.480 OA
ATOM     12  H   UNL     1      36.735 -23.232 -16.474  0.00  0.00    +0.295 HD
ENDBRANCH  10  11
ENDBRANCH   7  10
ENDBRANCH   2   7
BRANCH   1  13
ATOM     13  C   UNL     1      34.589 -17.516 -22.403  0.00  0.00    +0.026 C 
BRANCH  13  14
ATOM     14  C   UNL     1      35.127 -17.735 -23.830  0.00  0.00    +0.004 C 
ATOM     15  C   UNL     1      34.774 -16.576 -24.765  0.00  0.00    +0.000 C 
ATOM     16  C   UNL     1      34.568 -19.042 -24.399  0.00  0.00    +0.000 C 
ENDBRANCH  13  14
ENDBRANCH   1  13
TORSDOF 5
ENDMDL
MODEL 5
REMARK VINA RESULT:      -7.7      2.832      6.184
REMARK  Name = 39912
REMARK  5 active torsions:
REMARK  status: ('A' for Active; 'I' for Inactive)
REMARK    1  A    between atoms: C_1  and  C_13
REMARK    2  A    between atoms: C_2  and  C_7
REMARK    3  A    between atoms: C_7  and  C_10
REMARK    4  A    between atoms: C_10  and  O_11
REMARK    5  A    between atoms: C_13  and  C_14
REMARK                            x       y       z     vdW  Elec       q    Type
REMARK                         _______ _______ _______ _____ _____    ______ ____
ROOT
ATOM      1  C   UNL     1      35.029 -18.261 -21.583  0.00  0.00    -0.022 C 
ATOM      2  C   UNL     1      35.268 -20.635 -20.175  0.00  0.00    -0.012 C 
ATOM      3  C   UNL     1      33.884 -18.950 -21.217  0.00  0.00    -0.005 C 
ATOM      4  C   UNL     1      36.291 -18.734 -21.260  0.00  0.00    -0.005 C 
ATOM      5  C   UNL     1      34.004 -20.146 -20.508  0.00  0.00    -0.004 C 
ATOM      6  C   UNL     1      36.410 -19.929 -20.551  0.00  0.00    -0.004 C 
ENDROOT
BRANCH   2   7
ATOM      7  C   UNL     1      35.396 -21.913 -19.417  0.00  0.00    +0.121 C 
ATOM      8  C   UNL     1      34.049 -22.615 -19.153  0.00  0.00    +0.016 C 
BRANCH   7  10
ATOM      9  O   UNL     1      36.934 -20.838 -17.852  0.00  0.00    -0.250 OA
ATOM     10  C   UNL     1      36.135 -21.737 -18.087  0.00  0.00    +0.317 C 
BRANCH  10  11
ATOM     11  O   UNL     1      35.827 -22.695 -17.172  0.00  0.00    -0.480 OA
ATOM     12  H   UNL     1      36.281 -23.515 -17.183  0.00  0.00    +0.295 HD
ENDBRANCH  10  11
ENDBRANCH   7  10
ENDBRANCH   2   7
BRANCH   1  13
ATOM     13  C   UNL     1      34.899 -16.967 -22.351  0.00  0.00    +0.026 C 
BRANCH  13  14
ATOM     14  C   UNL     1      33.950 -15.955 -21.680  0.00  0.00    +0.004 C 
ATOM     15  C   UNL     1      33.589 -14.796 -22.612  0.00  0.00    +0.000 C 
ATOM     16  C   UNL     1      34.596 -15.406 -20.405  0.00  0.00    +0.000 C 
ENDBRANCH  13  14
ENDBRANCH   1  13
TORSDOF 5
ENDMDL
MODEL 6
REMARK VINA RESULT:      -7.6      2.786      6.804
REMARK  Name = 39912
REMARK  5 active torsions:
REMARK  status: ('A' for Active; 'I' for Inactive)
REMARK    1  A    between atoms: C_1  and  C_13
REMARK    2  A    between atoms: C_2  and  C_7
REMARK    3  A    between atoms: C_7  and  C_10
REMARK    4  A    between atoms: C_10  and  O_11
REMARK    5  A    between atoms: C_13  and  C_14
REMARK                            x       y       z     vdW  Elec       q    Type
REMARK                         _______ _______ _______ _____ _____    ______ ____
ROOT
ATOM      1  C   UNL     1      34.855 -17.225 -23.385  0.00  0.00    -0.022 C 
ATOM      2  C   UNL     1      34.765 -19.107 -21.353  0.00  0.00    -0.012 C 
ATOM      3  C   UNL     1      34.781 -18.571 -23.709  0.00  0.00    -0.005 C 
ATOM      4  C   UNL     1      34.887 -16.802 -22.065  0.00  0.00    -0.005 C 
ATOM      5  C   UNL     1      34.735 -19.518 -22.686  0.00  0.00    -0.004 C 
ATOM      6  C   UNL     1      34.841 -17.750 -21.044  0.00  0.00    -0.004 C 
ENDROOT
BRANCH   2   7
ATOM      7  C   UNL     1      34.717 -20.120 -20.260  0.00  0.00    +0.121 C 
ATOM      8  C   UNL     1      35.800 -21.211 -20.376  0.00  0.00    +0.016 C 
BRANCH   7  10
ATOM      9  O   UNL     1      33.173 -21.968 -19.845  0.00  0.00    -0.250 OA
ATOM     10  C   UNL     1      33.345 -20.792 -20.140  0.00  0.00    +0.317 C 
BRANCH  10  11
ATOM     11  O   UNL     1      32.311 -19.948 -20.406  0.00  0.00    -0.480 OA
ATOM     12  H   UNL     1      31.548 -20.268 -20.846  0.00  0.00    +0.295 HD
ENDBRANCH  10  11
ENDBRANCH   7  10
ENDBRANCH   2   7
BRANCH   1  13
ATOM     13  C   UNL     1      34.905 -16.200 -24.492  0.00  0.00    +0.026 C 
BRANCH  13  14
ATOM     14  C   UNL     1      33.601 -15.390 -24.629  0.00  0.00    +0.004 C 
ATOM     15  C   UNL     1      33.184 -15.209 -26.091  0.00  0.00    +0.000 C 
ATOM     16  C   UNL     1      33.772 -14.018 -23.971  0.00  0.00    +0.000 C 
ENDBRANCH  13  14
ENDBRANCH   1  13
TORSDOF 5
ENDMDL
MODEL 7
REMARK VINA RESULT:      -7.6      2.855      6.814
REMARK  Name = 39912
REMARK  5 active torsions:
REMARK  status: ('A' for Active; 'I' for Inactive)
REMARK    1  A    between atoms: C_1  and  C_13
REMARK    2  A    between atoms: C_2  and  C_7
REMARK    3  A    between atoms: C_7  and  C_10
REMARK    4  A    between atoms: C_10  and  O_11
REMARK    5  A    between atoms: C_13  and  C_14
REMARK                            x       y       z     vdW  Elec       q    Type
REMARK                         _______ _______ _______ _____ _____    ______ ____
ROOT
ATOM      1  C   UNL     1      34.782 -17.000 -23.136  0.00  0.00    -0.022 C 
ATOM      2  C   UNL     1      34.496 -19.296 -21.612  0.00  0.00    -0.012 C 
ATOM      3  C   UNL     1      35.102 -18.228 -23.692  0.00  0.00    -0.005 C 
ATOM      4  C   UNL     1      34.322 -16.897 -21.832  0.00  0.00    -0.005 C 
ATOM      5  C   UNL     1      34.959 -19.384 -22.925  0.00  0.00    -0.004 C 
ATOM      6  C   UNL     1      34.178 -18.053 -21.066  0.00  0.00    -0.004 C 
ENDROOT
BRANCH   2   7
ATOM      7  C   UNL     1      34.343 -20.532 -20.791  0.00  0.00    +0.121 C 
ATOM      8  C   UNL     1      33.059 -20.554 -19.936  0.00  0.00    +0.016 C 
BRANCH   7  10
ATOM      9  O   UNL     1      36.548 -20.081 -19.842  0.00  0.00    -0.250 OA
ATOM     10  C   UNL     1      35.550 -20.790 -19.884  0.00  0.00    +0.317 C 
BRANCH  10  11
ATOM     11  O   UNL     1      35.416 -21.908 -19.120  0.00  0.00    -0.480 OA
ATOM     12  H   UNL     1      36.131 -22.200 -18.589  0.00  0.00    +0.295 HD
ENDBRANCH  10  11
ENDBRANCH   7  10
ENDBRANCH   2   7
BRANCH   1  13
ATOM     13  C   UNL     1      34.938 -15.748 -23.966  0.00  0.00    +0.026 C 
BRANCH  13  14
ATOM     14  C   UNL     1      33.617 -14.977 -24.157  0.00  0.00    +0.004 C 
ATOM     15  C   UNL     1      33.189 -14.919 -25.625  0.00  0.00    +0.000 C 
ATOM     16  C   UNL     1      33.765 -13.555 -23.608  0.00  0.00    +0.000 C 
ENDBRANCH  13  14
ENDBRANCH   1  13
TORSDOF 5
ENDMDL
MODEL 8
REMARK VINA RESULT:      -7.5      4.174      6.897
REMARK  Name = 39912
REMARK  5 active torsions:
REMARK  status: ('A' for Active; 'I' for Inactive)
REMARK    1  A    between atoms: C_1  and  C_13
REMARK    2  A    between atoms: C_2  and  C_7
REMARK    3  A    between atoms: C_7  and  C_10
REMARK    4  A    between atoms: C_10  and  O_11
REMARK    5  A    between atoms: C_13  and  C_14
REMARK                            x       y       z     vdW  Elec       q    Type
REMARK                         _______ _______ _______ _____ _____    ______ ____
ROOT
ATOM      1  C   UNL     1      35.348 -21.768 -19.027  0.00  0.00    -0.022 C 
ATOM      2  C   UNL     1      35.574 -22.791 -16.463  0.00  0.00    -0.012 C 
ATOM      3  C   UNL     1      34.280 -22.457 -18.475  0.00  0.00    -0.005 C 
ATOM      4  C   UNL     1      36.527 -21.581 -18.323  0.00  0.00    -0.005 C 
ATOM      5  C   UNL     1      34.394 -22.972 -17.183  0.00  0.00    -0.004 C 
ATOM      6  C   UNL     1      36.640 -22.097 -17.033  0.00  0.00    -0.004 C 
ENDROOT
BRANCH   2   7
ATOM      7  C   UNL     1      35.695 -23.342 -15.082  0.00  0.00    +0.121 C 
ATOM      8  C   UNL     1      37.097 -23.163 -14.463  0.00  0.00    +0.016 C 
BRANCH   7  10
ATOM      9  O   UNL     1      35.897 -25.728 -15.568  0.00  0.00    -0.250 OA
ATOM     10  C   UNL     1      35.301 -24.821 -15.001  0.00  0.00    +0.317 C 
BRANCH  10  11
ATOM     11  O   UNL     1      34.199 -25.039 -14.235  0.00  0.00    -0.480 OA
ATOM     12  H   UNL     1      33.905 -25.915 -14.077  0.00  0.00    +0.295 HD
ENDBRANCH  10  11
ENDBRANCH   7  10
ENDBRANCH   2   7
BRANCH   1  13
ATOM     13  C   UNL     1      35.225 -21.211 -20.426  0.00  0.00    +0.026 C 
BRANCH  13  14
ATOM     14  C   UNL     1      34.410 -19.905 -20.489  0.00  0.00    +0.004 C 
ATOM     15  C   UNL     1      32.911 -20.166 -20.653  0.00  0.00    +0.000 C 
ATOM     16  C   UNL     1      34.910 -19.039 -21.650  0.00  0.00    +0.000 C 
ENDBRANCH  13  14
ENDBRANCH   1  13
TORSDOF 5
ENDMDL
MODEL 9
REMARK VINA RESULT:      -7.5      2.842      6.003
REMARK  Name = 39912
REMARK  5 active torsions:
REMARK  status: ('A' for Active; 'I' for Inactive)
REMARK    1  A    between atoms: C_1  and  C_13
REMARK    2  A    between atoms: C_2  and  C_7
REMARK    3  A    between atoms: C_7  and  C_10
REMARK    4  A    between atoms: C_10  and  O_11
REMARK    5  A    between atoms: C_13  and  C_14
REMARK                            x       y       z     vdW  Elec       q    Type
REMARK                         _______ _______ _______ _____ _____    ______ ____
ROOT
ATOM      1  C   UNL     1      34.729 -18.986 -21.993  0.00  0.00    -0.022 C 
ATOM      2  C   UNL     1      34.709 -20.719 -19.832  0.00  0.00    -0.012 C 
ATOM      3  C   UNL     1      35.932 -19.382 -21.430  0.00  0.00    -0.005 C 
ATOM      4  C   UNL     1      33.517 -19.439 -21.498  0.00  0.00    -0.005 C 
ATOM      5  C   UNL     1      35.922 -20.255 -20.341  0.00  0.00    -0.004 C 
ATOM      6  C   UNL     1      33.508 -20.311 -20.410  0.00  0.00    -0.004 C 
ENDROOT
BRANCH   2   7
ATOM      7  C   UNL     1      34.698 -21.653 -18.669  0.00  0.00    +0.121 C 
ATOM      8  C   UNL     1      36.102 -22.126 -18.240  0.00  0.00    +0.016 C 
BRANCH   7  10
ATOM      9  O   UNL     1      34.105 -23.815 -19.638  0.00  0.00    -0.250 OA
ATOM     10  C   UNL     1      33.810 -22.879 -18.906  0.00  0.00    +0.317 C 
BRANCH  10  11
ATOM     11  O   UNL     1      32.635 -22.828 -18.223  0.00  0.00    -0.480 OA
ATOM     12  H   UNL     1      31.875 -22.460 -18.628  0.00  0.00    +0.295 HD
ENDBRANCH  10  11
ENDBRANCH   7  10
ENDBRANCH   2   7
BRANCH   1  13
ATOM     13  C   UNL     1      34.740 -18.040 -23.171  0.00  0.00    +0.026 C 
BRANCH  13  14
ATOM     14  C   UNL     1      35.168 -16.608 -22.795  0.00  0.00    +0.004 C 
ATOM     15  C   UNL     1      34.651 -16.194 -21.416  0.00  0.00    +0.000 C 
ATOM     16  C   UNL     1      34.659 -15.623 -23.851  0.00  0.00    +0.000 C 
ENDBRANCH  13  14
ENDBRANCH   1  13
TORSDOF 5
ENDMDL
