MODEL 1
REMARK VINA RESULT:      -9.4      0.000      0.000
REMARK  Name = 92834
REMARK  0 active torsions:
REMARK  status: ('A' for Active; 'I' for Inactive)
REMARK                            x       y       z     vdW  Elec       q    Type
REMARK                         _______ _______ _______ _____ _____    ______ ____
ROOT
ATOM      1  O   UNL     1      34.916 -24.528 -12.028  0.00  0.00    -0.296 OA
ATOM      2  O   UNL     1      33.825 -19.453 -21.273  0.00  0.00    -0.291 OA
ATOM      3  C   UNL     1      36.155 -23.021 -14.903  0.00  0.00    +0.007 C 
ATOM      4  C   UNL     1      36.112 -22.883 -16.426  0.00  0.00    +0.001 C 
ATOM      5  C   UNL     1      35.225 -24.151 -14.412  0.00  0.00    +0.052 C 
ATOM      6  C   UNL     1      34.656 -22.512 -16.842  0.00  0.00    +0.004 C 
ATOM      7  C   UNL     1      33.790 -23.746 -14.732  0.00  0.00    +0.007 C 
ATOM      8  C   UNL     1      33.611 -23.488 -16.240  0.00  0.00    +0.001 C 
ATOM      9  C   UNL     1      34.532 -22.385 -18.391  0.00  0.00    +0.019 C 
ATOM     10  C   UNL     1      37.480 -23.294 -14.200  0.00  0.00    +0.008 C 
ATOM     11  C   UNL     1      37.087 -21.818 -16.939  0.00  0.00    +0.004 C 
ATOM     12  C   UNL     1      35.626 -24.140 -12.947  0.00  0.00    +0.150 C 
ATOM     13  C   UNL     1      37.039 -23.615 -12.763  0.00  0.00    +0.064 C 
ATOM     14  C   UNL     1      37.018 -21.712 -18.458  0.00  0.00    +0.022 C 
ATOM     15  C   UNL     1      35.613 -21.473 -18.955  0.00  0.00    -0.042 C 
ATOM     16  C   UNL     1      35.539 -25.562 -14.942  0.00  0.00    +0.007 C 
ATOM     17  C   UNL     1      33.118 -21.908 -18.781  0.00  0.00    +0.012 C 
ATOM     18  C   UNL     1      33.032 -21.460 -20.229  0.00  0.00    +0.069 C 
ATOM     19  C   UNL     1      35.384 -20.522 -19.876  0.00  0.00    +0.029 C 
ATOM     20  C   UNL     1      34.048 -20.382 -20.500  0.00  0.00    +0.173 C 
ENDROOT
TORSDOF 0
ENDMDL
MODEL 2
REMARK VINA RESULT:      -9.3      8.437     12.026
REMARK  Name = 92834
REMARK  0 active torsions:
REMARK  status: ('A' for Active; 'I' for Inactive)
REMARK                            x       y       z     vdW  Elec       q    Type
REMARK                         _______ _______ _______ _____ _____    ______ ____
ROOT
ATOM      1  O   UNL     1      32.013  -8.510 -21.465  0.00  0.00    -0.296 OA
ATOM      2  O   UNL     1      35.818 -18.254 -23.194  0.00  0.00    -0.291 OA
ATOM      3  C   UNL     1      32.333 -11.889 -20.727  0.00  0.00    +0.007 C 
ATOM      4  C   UNL     1      32.296 -13.340 -21.210  0.00  0.00    +0.001 C 
ATOM      5  C   UNL     1      31.899 -10.911 -21.838  0.00  0.00    +0.052 C 
ATOM      6  C   UNL     1      33.303 -13.489 -22.391  0.00  0.00    +0.004 C 
ATOM      7  C   UNL     1      32.936 -10.984 -22.954  0.00  0.00    +0.007 C 
ATOM      8  C   UNL     1      33.071 -12.420 -23.493  0.00  0.00    +0.001 C 
ATOM      9  C   UNL     1      33.293 -14.942 -22.956  0.00  0.00    +0.019 C 
ATOM     10  C   UNL     1      31.510 -11.468 -19.515  0.00  0.00    +0.008 C 
ATOM     11  C   UNL     1      32.649 -14.332 -20.096  0.00  0.00    +0.004 C 
ATOM     12  C   UNL     1      31.876  -9.638 -21.011  0.00  0.00    +0.150 C 
ATOM     13  C   UNL     1      31.628  -9.937 -19.543  0.00  0.00    +0.064 C 
ATOM     14  C   UNL     1      32.596 -15.765 -20.616  0.00  0.00    +0.022 C 
ATOM     15  C   UNL     1      33.456 -15.965 -21.839  0.00  0.00    -0.042 C 
ATOM     16  C   UNL     1      30.474 -11.104 -22.387  0.00  0.00    +0.007 C 
ATOM     17  C   UNL     1      34.373 -15.103 -24.044  0.00  0.00    +0.012 C 
ATOM     18  C   UNL     1      34.630 -16.557 -24.401  0.00  0.00    +0.069 C 
ATOM     19  C   UNL     1      34.277 -17.026 -21.912  0.00  0.00    +0.029 C 
ATOM     20  C   UNL     1      35.002 -17.335 -23.166  0.00  0.00    +0.173 C 
ENDROOT
TORSDOF 0
ENDMDL
MODEL 3
REMARK VINA RESULT:      -9.2      3.296      5.900
REMARK  Name = 92834
REMARK  0 active torsions:
REMARK  status: ('A' for Active; 'I' for Inactive)
REMARK                            x       y       z     vdW  Elec       q    Type
REMARK                         _______ _______ _______ _____ _____    ______ ____
ROOT
ATOM      1  O   UNL     1      29.166 -24.709 -14.808  0.00  0.00    -0.296 OA
ATOM      2  O   UNL     1      39.760 -25.070 -14.562  0.00  0.00    -0.291 OA
ATOM      3  C   UNL     1      32.328 -23.649 -15.781  0.00  0.00    +0.007 C 
ATOM      4  C   UNL     1      33.734 -23.198 -15.381  0.00  0.00    +0.001 C 
ATOM      5  C   UNL     1      31.419 -23.828 -14.547  0.00  0.00    +0.052 C 
ATOM      6  C   UNL     1      34.367 -24.305 -14.485  0.00  0.00    +0.004 C 
ATOM      7  C   UNL     1      31.983 -24.977 -13.717  0.00  0.00    +0.007 C 
ATOM      8  C   UNL     1      33.440 -24.700 -13.304  0.00  0.00    +0.001 C 
ATOM      9  C   UNL     1      35.795 -23.895 -14.012  0.00  0.00    +0.019 C 
ATOM     10  C   UNL     1      31.498 -22.799 -16.737  0.00  0.00    +0.008 C 
ATOM     11  C   UNL     1      34.628 -22.939 -16.598  0.00  0.00    +0.004 C 
ATOM     12  C   UNL     1      30.113 -24.090 -15.276  0.00  0.00    +0.150 C 
ATOM     13  C   UNL     1      30.112 -23.456 -16.656  0.00  0.00    +0.064 C 
ATOM     14  C   UNL     1      36.017 -22.488 -16.159  0.00  0.00    +0.022 C 
ATOM     15  C   UNL     1      36.655 -23.452 -15.189  0.00  0.00    -0.042 C 
ATOM     16  C   UNL     1      31.197 -22.572 -13.685  0.00  0.00    +0.007 C 
ATOM     17  C   UNL     1      36.451 -25.046 -13.224  0.00  0.00    +0.012 C 
ATOM     18  C   UNL     1      37.941 -24.837 -13.017  0.00  0.00    +0.069 C 
ATOM     19  C   UNL     1      37.929 -23.838 -15.371  0.00  0.00    +0.029 C 
ATOM     20  C   UNL     1      38.627 -24.646 -14.345  0.00  0.00    +0.173 C 
ENDROOT
TORSDOF 0
ENDMDL
MODEL 4
REMARK VINA RESULT:      -9.1      7.213     10.211
REMARK  Name = 92834
REMARK  0 active torsions:
REMARK  status: ('A' for Active; 'I' for Inactive)
REMARK                            x       y       z     vdW  Elec       q    Type
REMARK                         _______ _______ _______ _____ _____    ______ ____
ROOT
ATOM      1  O   UNL     1      36.315 -18.805 -20.625  0.00  0.00    -0.296 OA
ATOM      2  O   UNL     1      31.674  -9.401 -22.189  0.00  0.00    -0.291 OA
ATOM      3  C   UNL     1      34.804 -16.384 -22.607  0.00  0.00    +0.007 C 
ATOM      4  C   UNL     1      33.638 -15.420 -22.827  0.00  0.00    +0.001 C 
ATOM      5  C   UNL     1      34.575 -17.277 -21.369  0.00  0.00    +0.052 C 
ATOM      6  C   UNL     1      33.533 -14.486 -21.583  0.00  0.00    +0.004 C 
ATOM      7  C   UNL     1      34.568 -16.375 -20.139  0.00  0.00    +0.007 C 
ATOM      8  C   UNL     1      33.485 -15.287 -20.255  0.00  0.00    +0.001 C 
ATOM      9  C   UNL     1      32.340 -13.493 -21.727  0.00  0.00    +0.019 C 
ATOM     10  C   UNL     1      35.201 -17.364 -23.706  0.00  0.00    +0.008 C 
ATOM     11  C   UNL     1      33.812 -14.579 -24.096  0.00  0.00    +0.004 C 
ATOM     12  C   UNL     1      35.774 -18.193 -21.536  0.00  0.00    +0.150 C 
ATOM     13  C   UNL     1      36.201 -18.285 -22.991  0.00  0.00    +0.064 C 
ATOM     14  C   UNL     1      32.629 -13.635 -24.282  0.00  0.00    +0.022 C 
ATOM     15  C   UNL     1      32.384 -12.774 -23.068  0.00  0.00    -0.042 C 
ATOM     16  C   UNL     1      33.325 -18.176 -21.408  0.00  0.00    +0.007 C 
ATOM     17  C   UNL     1      32.319 -12.503 -20.545  0.00  0.00    +0.012 C 
ATOM     18  C   UNL     1      31.391 -11.325 -20.787  0.00  0.00    +0.069 C 
ATOM     19  C   UNL     1      32.179 -11.454 -23.216  0.00  0.00    +0.029 C 
ATOM     20  C   UNL     1      31.771 -10.620 -22.063  0.00  0.00    +0.173 C 
ENDROOT
TORSDOF 0
ENDMDL
MODEL 5
REMARK VINA RESULT:      -9.1      7.038     10.151
REMARK  Name = 92834
REMARK  0 active torsions:
REMARK  status: ('A' for Active; 'I' for Inactive)
REMARK                            x       y       z     vdW  Elec       q    Type
REMARK                         _______ _______ _______ _____ _____    ______ ____
ROOT
ATOM      1  O   UNL     1      35.059 -19.974 -24.029  0.00  0.00    -0.296 OA
ATOM      2  O   UNL     1      31.014 -10.298 -22.476  0.00  0.00    -0.291 OA
ATOM      3  C   UNL     1      33.719 -17.456 -22.047  0.00  0.00    +0.007 C 
ATOM      4  C   UNL     1      33.730 -15.988 -21.618  0.00  0.00    +0.001 C 
ATOM      5  C   UNL     1      34.881 -17.772 -23.011  0.00  0.00    +0.052 C 
ATOM      6  C   UNL     1      33.544 -15.105 -22.889  0.00  0.00    +0.004 C 
ATOM      7  C   UNL     1      34.650 -16.982 -24.295  0.00  0.00    +0.007 C 
ATOM      8  C   UNL     1      34.555 -15.472 -24.008  0.00  0.00    +0.001 C 
ATOM      9  C   UNL     1      33.577 -13.588 -22.528  0.00  0.00    +0.019 C 
ATOM     10  C   UNL     1      33.794 -18.557 -20.996  0.00  0.00    +0.008 C 
ATOM     11  C   UNL     1      32.629 -15.673 -20.599  0.00  0.00    +0.004 C 
ATOM     12  C   UNL     1      34.693 -19.277 -23.093  0.00  0.00    +0.150 C 
ATOM     13  C   UNL     1      34.018 -19.818 -21.845  0.00  0.00    +0.064 C 
ATOM     14  C   UNL     1      32.676 -14.204 -20.194  0.00  0.00    +0.022 C 
ATOM     15  C   UNL     1      32.621 -13.277 -21.384  0.00  0.00    -0.042 C 
ATOM     16  C   UNL     1      36.299 -17.536 -22.458  0.00  0.00    +0.007 C 
ATOM     17  C   UNL     1      33.278 -12.731 -23.774  0.00  0.00    +0.012 C 
ATOM     18  C   UNL     1      32.980 -11.283 -23.429  0.00  0.00    +0.069 C 
ATOM     19  C   UNL     1      31.789 -12.222 -21.371  0.00  0.00    +0.029 C 
ATOM     20  C   UNL     1      31.839 -11.208 -22.449  0.00  0.00    +0.173 C 
ENDROOT
TORSDOF 0
ENDMDL
MODEL 6
REMARK VINA RESULT:      -9.1      3.001      4.727
REMARK  Name = 92834
REMARK  0 active torsions:
REMARK  status: ('A' for Active; 'I' for Inactive)
REMARK                            x       y       z     vdW  Elec       q    Type
REMARK                         _______ _______ _______ _____ _____    ______ ____
ROOT
ATOM      1  O   UNL     1      37.911 -23.482 -13.210  0.00  0.00    -0.296 OA
ATOM      2  O   UNL     1      27.574 -22.885 -15.492  0.00  0.00    -0.291 OA
ATOM      3  C   UNL     1      35.236 -23.033 -15.380  0.00  0.00    +0.007 C 
ATOM      4  C   UNL     1      33.891 -23.528 -15.913  0.00  0.00    +0.001 C 
ATOM      5  C   UNL     1      35.854 -24.036 -14.385  0.00  0.00    +0.052 C 
ATOM      6  C   UNL     1      32.909 -23.667 -14.710  0.00  0.00    +0.004 C 
ATOM      7  C   UNL     1      34.944 -24.102 -13.163  0.00  0.00    +0.007 C 
ATOM      8  C   UNL     1      33.514 -24.513 -13.559  0.00  0.00    +0.001 C 
ATOM      9  C   UNL     1      31.521 -24.200 -15.179  0.00  0.00    +0.019 C 
ATOM     10  C   UNL     1      36.371 -22.719 -16.349  0.00  0.00    +0.008 C 
ATOM     11  C   UNL     1      33.299 -22.581 -16.962  0.00  0.00    +0.004 C 
ATOM     12  C   UNL     1      37.199 -23.357 -14.197  0.00  0.00    +0.150 C 
ATOM     13  C   UNL     1      37.571 -22.521 -15.410  0.00  0.00    +0.064 C 
ATOM     14  C   UNL     1      31.962 -23.110 -17.471  0.00  0.00    +0.022 C 
ATOM     15  C   UNL     1      30.989 -23.387 -16.352  0.00  0.00    -0.042 C 
ATOM     16  C   UNL     1      36.147 -25.443 -14.939  0.00  0.00    +0.007 C 
ATOM     17  C   UNL     1      30.527 -24.224 -14.000  0.00  0.00    +0.012 C 
ATOM     18  C   UNL     1      29.091 -24.423 -14.451  0.00  0.00    +0.069 C 
ATOM     19  C   UNL     1      29.720 -22.955 -16.448  0.00  0.00    +0.029 C 
ATOM     20  C   UNL     1      28.708 -23.358 -15.445  0.00  0.00    +0.173 C 
ENDROOT
TORSDOF 0
ENDMDL
MODEL 7
REMARK VINA RESULT:      -8.9     10.585     14.780
REMARK  Name = 92834
REMARK  0 active torsions:
REMARK  status: ('A' for Active; 'I' for Inactive)
REMARK                            x       y       z     vdW  Elec       q    Type
REMARK                         _______ _______ _______ _____ _____    ______ ____
ROOT
ATOM      1  O   UNL     1      33.065  -5.747 -23.704  0.00  0.00    -0.296 OA
ATOM      2  O   UNL     1      33.663 -16.010 -21.112  0.00  0.00    -0.291 OA
ATOM      3  C   UNL     1      32.288  -8.496 -21.727  0.00  0.00    +0.007 C 
ATOM      4  C   UNL     1      31.810  -9.945 -21.638  0.00  0.00    +0.001 C 
ATOM      5  C   UNL     1      32.214  -7.963 -23.173  0.00  0.00    +0.052 C 
ATOM      6  C   UNL     1      32.751 -10.826 -22.516  0.00  0.00    +0.004 C 
ATOM      7  C   UNL     1      33.205  -8.759 -24.015  0.00  0.00    +0.007 C 
ATOM      8  C   UNL     1      32.897 -10.267 -23.957  0.00  0.00    +0.001 C 
ATOM      9  C   UNL     1      32.300 -12.318 -22.497  0.00  0.00    +0.019 C 
ATOM     10  C   UNL     1      31.606  -7.416 -20.895  0.00  0.00    +0.008 C 
ATOM     11  C   UNL     1      31.803 -10.467 -20.197  0.00  0.00    +0.004 C 
ATOM     12  C   UNL     1      32.569  -6.514 -22.890  0.00  0.00    +0.150 C 
ATOM     13  C   UNL     1      32.200  -6.121 -21.470  0.00  0.00    +0.064 C 
ATOM     14  C   UNL     1      31.318 -11.912 -20.150  0.00  0.00    +0.022 C 
ATOM     15  C   UNL     1      32.104 -12.813 -21.070  0.00  0.00    -0.042 C 
ATOM     16  C   UNL     1      30.815  -7.954 -23.817  0.00  0.00    +0.007 C 
ATOM     17  C   UNL     1      33.304 -13.193 -23.274  0.00  0.00    +0.012 C 
ATOM     18  C   UNL     1      33.101 -14.678 -23.024  0.00  0.00    +0.069 C 
ATOM     19  C   UNL     1      32.551 -13.998 -20.621  0.00  0.00    +0.029 C 
ATOM     20  C   UNL     1      33.176 -14.969 -21.548  0.00  0.00    +0.173 C 
ENDROOT
TORSDOF 0
ENDMDL
MODEL 8
REMARK VINA RESULT:      -8.8      1.079      6.659
REMARK  Name = 92834
REMARK  0 active torsions:
REMARK  status: ('A' for Active; 'I' for Inactive)
REMARK                            x       y       z     vdW  Elec       q    Type
REMARK                         _______ _______ _______ _____ _____    ______ ____
ROOT
ATOM      1  O   UNL     1      36.059 -19.211 -21.280  0.00  0.00    -0.296 OA
ATOM      2  O   UNL     1      34.479 -24.339 -12.135  0.00  0.00    -0.291 OA
ATOM      3  C   UNL     1      34.206 -21.212 -19.126  0.00  0.00    +0.007 C 
ATOM      4  C   UNL     1      34.151 -22.422 -18.194  0.00  0.00    +0.001 C 
ATOM      5  C   UNL     1      35.565 -21.118 -19.852  0.00  0.00    +0.052 C 
ATOM      6  C   UNL     1      35.257 -22.255 -17.108  0.00  0.00    +0.004 C 
ATOM      7  C   UNL     1      36.638 -20.858 -18.801  0.00  0.00    +0.007 C 
ATOM      8  C   UNL     1      36.648 -21.967 -17.732  0.00  0.00    +0.001 C 
ATOM      9  C   UNL     1      35.278 -23.474 -16.137  0.00  0.00    +0.019 C 
ATOM     10  C   UNL     1      33.176 -21.059 -20.240  0.00  0.00    +0.008 C 
ATOM     11  C   UNL     1      32.782 -22.576 -17.523  0.00  0.00    +0.004 C 
ATOM     12  C   UNL     1      35.233 -19.969 -20.788  0.00  0.00    +0.150 C 
ATOM     13  C   UNL     1      33.742 -19.895 -21.066  0.00  0.00    +0.064 C 
ATOM     14  C   UNL     1      32.765 -23.794 -16.606  0.00  0.00    +0.022 C 
ATOM     15  C   UNL     1      33.886 -23.768 -15.595  0.00  0.00    -0.042 C 
ATOM     16  C   UNL     1      35.936 -22.317 -20.744  0.00  0.00    +0.007 C 
ATOM     17  C   UNL     1      36.297 -23.242 -15.003  0.00  0.00    +0.012 C 
ATOM     18  C   UNL     1      36.138 -24.232 -13.863  0.00  0.00    +0.069 C 
ATOM     19  C   UNL     1      33.627 -24.037 -14.305  0.00  0.00    +0.029 C 
ATOM     20  C   UNL     1      34.730 -24.183 -13.328  0.00  0.00    +0.173 C 
ENDROOT
TORSDOF 0
ENDMDL
MODEL 9
REMARK VINA RESULT:      -8.6      6.455      9.748
REMARK  Name = 92834
REMARK  0 active torsions:
REMARK  status: ('A' for Active; 'I' for Inactive)
REMARK                            x       y       z     vdW  Elec       q    Type
REMARK                         _______ _______ _______ _____ _____    ______ ____
ROOT
ATOM      1  O   UNL     1      35.946 -19.575 -20.098  0.00  0.00    -0.296 OA
ATOM      2  O   UNL     1      33.954 -10.841 -25.770  0.00  0.00    -0.291 OA
ATOM      3  C   UNL     1      34.926 -17.909 -22.971  0.00  0.00    +0.007 C 
ATOM      4  C   UNL     1      34.056 -16.826 -23.613  0.00  0.00    +0.001 C 
ATOM      5  C   UNL     1      34.620 -18.062 -21.467  0.00  0.00    +0.052 C 
ATOM      6  C   UNL     1      34.381 -15.466 -22.923  0.00  0.00    +0.004 C 
ATOM      7  C   UNL     1      35.027 -16.766 -20.774  0.00  0.00    +0.007 C 
ATOM      8  C   UNL     1      34.285 -15.559 -21.377  0.00  0.00    +0.001 C 
ATOM      9  C   UNL     1      33.504 -14.318 -23.509  0.00  0.00    +0.019 C 
ATOM     10  C   UNL     1      34.886 -19.335 -23.508  0.00  0.00    +0.008 C 
ATOM     11  C   UNL     1      34.291 -16.714 -25.123  0.00  0.00    +0.004 C 
ATOM     12  C   UNL     1      35.483 -19.281 -21.192  0.00  0.00    +0.150 C 
ATOM     13  C   UNL     1      35.673 -20.118 -22.446  0.00  0.00    +0.064 C 
ATOM     14  C   UNL     1      33.405 -15.628 -25.725  0.00  0.00    +0.022 C 
ATOM     15  C   UNL     1      33.571 -14.299 -25.031  0.00  0.00    -0.042 C 
ATOM     16  C   UNL     1      33.175 -18.456 -21.108  0.00  0.00    +0.007 C 
ATOM     17  C   UNL     1      33.916 -12.962 -22.900  0.00  0.00    +0.012 C 
ATOM     18  C   UNL     1      33.331 -11.781 -23.655  0.00  0.00    +0.069 C 
ATOM     19  C   UNL     1      33.726 -13.180 -25.758  0.00  0.00    +0.029 C 
ATOM     20  C   UNL     1      33.722 -11.850 -25.108  0.00  0.00    +0.173 C 
ENDROOT
TORSDOF 0
ENDMDL
