MODEL 1
REMARK VINA RESULT:      -8.7      0.000      0.000
REMARK  Name = 10062713
REMARK  10 active torsions:
REMARK  status: ('A' for Active; 'I' for Inactive)
REMARK    1  A    between atoms: O_1  and  C_4
REMARK    2  A    between atoms: O_1  and  C_13
REMARK    3  A    between atoms: N_3  and  CA_6
REMARK    4  A    between atoms: CA_6  and  C_8
REMARK    5  A    between atoms: CA_6  and  C_9
REMARK    6  A    between atoms: C_9  and  C_10
REMARK    7  A    between atoms: C_10  and  C_11
REMARK    8  A    between atoms: C_13  and  C_14
REMARK    9  A    between atoms: C_13  and  C_17
REMARK   10  A    between atoms: C_17  and  C_18
REMARK                            x       y       z     vdW  Elec       q    Type
REMARK                         _______ _______ _______ _____ _____    ______ ____
ROOT
ATOM      1  O   UNL     1      35.383 -16.446 -22.454  0.00  0.00    -0.438 OA
ENDROOT
BRANCH   1   4
ATOM      2  O   UNL     1      35.161 -16.076 -20.198  0.00  0.00    -0.226 OA
ATOM      3  N   UNL     1      33.762 -15.060 -21.746  0.00  0.00    -0.265 N 
ATOM      4  C   UNL     1      34.803 -15.879 -21.354  0.00  0.00    +0.402 C 
ATOM      5  H   UNL     1      33.569 -14.983 -22.708  0.00  0.00    +0.153 HD
BRANCH   3   6
ATOM      6  CA  UNL     1      32.940 -14.313 -20.827  0.00  0.00    +0.139 C 
BRANCH   6   8
ATOM      7  O   UNL     1      31.607 -16.334 -20.724  0.00  0.00    -0.286 OA
ATOM      8  C   UNL     1      32.062 -15.347 -20.153  0.00  0.00    +0.227 C 
ENDBRANCH   6   8
BRANCH   6   9
ATOM      9  C   UNL     1      32.145 -13.232 -21.559  0.00  0.00    +0.028 C 
BRANCH   9  10
ATOM     10  C   UNL     1      31.703 -12.094 -20.632  0.00  0.00    +0.002 C 
BRANCH  10  11
ATOM     11  C   UNL     1      30.928 -11.023 -21.401  0.00  0.00    +0.000 C 
ATOM     12  C   UNL     1      31.774  -9.782 -21.632  0.00  0.00    +0.000 C 
ENDBRANCH  10  11
ENDBRANCH   9  10
ENDBRANCH   6   9
ENDBRANCH   3   6
ENDBRANCH   1   4
BRANCH   1  13
ATOM     13  C   UNL     1      34.987 -17.792 -22.745  0.00  0.00    +0.175 C 
BRANCH  13  14
ATOM     14  C   UNL     1      35.105 -18.030 -24.268  0.00  0.00    +0.041 C 
ATOM     15  C   UNL     1      34.368 -19.287 -24.739  0.00  0.00    +0.004 C 
ATOM     16  C   UNL     1      34.583 -16.817 -25.047  0.00  0.00    +0.004 C 
ENDBRANCH  13  14
BRANCH  13  17
ATOM     17  C   UNL     1      35.852 -18.767 -21.929  0.00  0.00    +0.070 C 
BRANCH  17  18
ATOM     18  C   UNL     1      35.024 -19.692 -21.067  0.00  0.00    -0.019 C 
ATOM     19  C   UNL     1      33.641 -19.525 -20.993  0.00  0.00    -0.004 C 
ATOM     20  C   UNL     1      35.642 -20.713 -20.345  0.00  0.00    -0.004 C 
ATOM     21  C   UNL     1      32.877 -20.378 -20.198  0.00  0.00    -0.000 C 
ATOM     22  C   UNL     1      34.877 -21.567 -19.550  0.00  0.00    -0.000 C 
ATOM     23  C   UNL     1      33.494 -21.400 -19.477  0.00  0.00    -0.000 C 
ENDBRANCH  17  18
ENDBRANCH  13  17
ENDBRANCH   1  13
TORSDOF 10
ENDMDL
MODEL 2
REMARK VINA RESULT:      -8.7      1.321      2.030
REMARK  Name = 10062713
REMARK  10 active torsions:
REMARK  status: ('A' for Active; 'I' for Inactive)
REMARK    1  A    between atoms: O_1  and  C_4
REMARK    2  A    between atoms: O_1  and  C_13
REMARK    3  A    between atoms: N_3  and  CA_6
REMARK    4  A    between atoms: CA_6  and  C_8
REMARK    5  A    between atoms: CA_6  and  C_9
REMARK    6  A    between atoms: C_9  and  C_10
REMARK    7  A    between atoms: C_10  and  C_11
REMARK    8  A    between atoms: C_13  and  C_14
REMARK    9  A    between atoms: C_13  and  C_17
REMARK   10  A    between atoms: C_17  and  C_18
REMARK                            x       y       z     vdW  Elec       q    Type
REMARK                         _______ _______ _______ _____ _____    ______ ____
ROOT
ATOM      1  O   UNL     1      34.900 -16.465 -21.903  0.00  0.00    -0.438 OA
ENDROOT
BRANCH   1   4
ATOM      2  O   UNL     1      32.796 -16.474 -20.984  0.00  0.00    -0.226 OA
ATOM      3  N   UNL     1      33.603 -14.650 -22.170  0.00  0.00    -0.265 N 
ATOM      4  C   UNL     1      33.680 -15.916 -21.624  0.00  0.00    +0.402 C 
ATOM      5  H   UNL     1      34.383 -14.310 -22.666  0.00  0.00    +0.153 HD
BRANCH   3   6
ATOM      6  CA  UNL     1      32.445 -13.798 -22.058  0.00  0.00    +0.139 C 
BRANCH   6   8
ATOM      7  O   UNL     1      33.568 -12.715 -23.913  0.00  0.00    -0.286 OA
ATOM      8  C   UNL     1      32.575 -12.806 -23.196  0.00  0.00    +0.227 C 
ENDBRANCH   6   8
BRANCH   6   9
ATOM      9  C   UNL     1      32.386 -13.134 -20.683  0.00  0.00    +0.028 C 
BRANCH   9  10
ATOM     10  C   UNL     1      31.524 -11.867 -20.676  0.00  0.00    +0.002 C 
BRANCH  10  11
ATOM     11  C   UNL     1      31.567 -11.175 -19.312  0.00  0.00    +0.000 C 
ATOM     12  C   UNL     1      31.931  -9.705 -19.445  0.00  0.00    +0.000 C 
ENDBRANCH  10  11
ENDBRANCH   9  10
ENDBRANCH   6   9
ENDBRANCH   3   6
ENDBRANCH   1   4
BRANCH   1  13
ATOM     13  C   UNL     1      34.892 -17.852 -22.265  0.00  0.00    +0.175 C 
BRANCH  13  14
ATOM     14  C   UNL     1      35.304 -17.984 -23.750  0.00  0.00    +0.041 C 
ATOM     15  C   UNL     1      34.882 -19.317 -24.374  0.00  0.00    +0.004 C 
ATOM     16  C   UNL     1      34.721 -16.832 -24.577  0.00  0.00    +0.004 C 
ENDBRANCH  13  14
BRANCH  13  17
ATOM     17  C   UNL     1      35.827 -18.630 -21.324  0.00  0.00    +0.070 C 
BRANCH  17  18
ATOM     18  C   UNL     1      35.134 -19.796 -20.656  0.00  0.00    -0.019 C 
ATOM     19  C   UNL     1      35.889 -20.802 -20.052  0.00  0.00    -0.004 C 
ATOM     20  C   UNL     1      33.741 -19.866 -20.643  0.00  0.00    -0.004 C 
ATOM     21  C   UNL     1      35.251 -21.878 -19.435  0.00  0.00    -0.000 C 
ATOM     22  C   UNL     1      33.104 -20.943 -20.025  0.00  0.00    -0.000 C 
ATOM     23  C   UNL     1      33.858 -21.948 -19.421  0.00  0.00    -0.000 C 
ENDBRANCH  17  18
ENDBRANCH  13  17
ENDBRANCH   1  13
TORSDOF 10
ENDMDL
MODEL 3
REMARK VINA RESULT:      -8.7      2.135      2.532
REMARK  Name = 10062713
REMARK  10 active torsions:
REMARK  status: ('A' for Active; 'I' for Inactive)
REMARK    1  A    between atoms: O_1  and  C_4
REMARK    2  A    between atoms: O_1  and  C_13
REMARK    3  A    between atoms: N_3  and  CA_6
REMARK    4  A    between atoms: CA_6  and  C_8
REMARK    5  A    between atoms: CA_6  and  C_9
REMARK    6  A    between atoms: C_9  and  C_10
REMARK    7  A    between atoms: C_10  and  C_11
REMARK    8  A    between atoms: C_13  and  C_14
REMARK    9  A    between atoms: C_13  and  C_17
REMARK   10  A    between atoms: C_17  and  C_18
REMARK                            x       y       z     vdW  Elec       q    Type
REMARK                         _______ _______ _______ _____ _____    ______ ____
ROOT
ATOM      1  O   UNL     1      35.424 -16.220 -23.030  0.00  0.00    -0.438 OA
ENDROOT
BRANCH   1   4
ATOM      2  O   UNL     1      34.607 -14.997 -21.266  0.00  0.00    -0.226 OA
ATOM      3  N   UNL     1      34.440 -14.245 -23.455  0.00  0.00    -0.265 N 
ATOM      4  C   UNL     1      34.805 -15.139 -22.468  0.00  0.00    +0.402 C 
ATOM      5  H   UNL     1      34.653 -14.472 -24.389  0.00  0.00    +0.153 HD
BRANCH   3   6
ATOM      6  CA  UNL     1      33.764 -12.998 -23.197  0.00  0.00    +0.139 C 
BRANCH   6   8
ATOM      7  O   UNL     1      31.831 -13.230 -21.754  0.00  0.00    -0.286 OA
ATOM      8  C   UNL     1      32.338 -13.385 -22.862  0.00  0.00    +0.227 C 
ENDBRANCH   6   8
BRANCH   6   9
ATOM      9  C   UNL     1      33.867 -12.060 -24.400  0.00  0.00    +0.028 C 
BRANCH   9  10
ATOM     10  C   UNL     1      33.701 -10.586 -24.016  0.00  0.00    +0.002 C 
BRANCH  10  11
ATOM     11  C   UNL     1      34.897  -9.754 -24.482  0.00  0.00    +0.000 C 
ATOM     12  C   UNL     1      35.489 -10.303 -25.771  0.00  0.00    +0.000 C 
ENDBRANCH  10  11
ENDBRANCH   9  10
ENDBRANCH   6   9
ENDBRANCH   3   6
ENDBRANCH   1   4
BRANCH   1  13
ATOM     13  C   UNL     1      34.763 -17.479 -22.856  0.00  0.00    +0.175 C 
BRANCH  13  14
ATOM     14  C   UNL     1      34.362 -18.031 -24.243  0.00  0.00    +0.041 C 
ATOM     15  C   UNL     1      34.769 -17.111 -25.397  0.00  0.00    +0.004 C 
ATOM     16  C   UNL     1      34.970 -19.421 -24.468  0.00  0.00    +0.004 C 
ENDBRANCH  13  14
BRANCH  13  17
ATOM     17  C   UNL     1      35.686 -18.438 -22.086  0.00  0.00    +0.070 C 
BRANCH  17  18
ATOM     18  C   UNL     1      34.919 -19.400 -21.208  0.00  0.00    -0.019 C 
ATOM     19  C   UNL     1      33.535 -19.279 -21.085  0.00  0.00    -0.004 C 
ATOM     20  C   UNL     1      35.595 -20.408 -20.520  0.00  0.00    -0.004 C 
ATOM     21  C   UNL     1      32.827 -20.166 -20.275  0.00  0.00    -0.000 C 
ATOM     22  C   UNL     1      34.885 -21.295 -19.710  0.00  0.00    -0.000 C 
ATOM     23  C   UNL     1      33.501 -21.174 -19.588  0.00  0.00    -0.000 C 
ENDBRANCH  17  18
ENDBRANCH  13  17
ENDBRANCH   1  13
TORSDOF 10
ENDMDL
MODEL 4
REMARK VINA RESULT:      -8.7      1.114      1.694
REMARK  Name = 10062713
REMARK  10 active torsions:
REMARK  status: ('A' for Active; 'I' for Inactive)
REMARK    1  A    between atoms: O_1  and  C_4
REMARK    2  A    between atoms: O_1  and  C_13
REMARK    3  A    between atoms: N_3  and  CA_6
REMARK    4  A    between atoms: CA_6  and  C_8
REMARK    5  A    between atoms: CA_6  and  C_9
REMARK    6  A    between atoms: C_9  and  C_10
REMARK    7  A    between atoms: C_10  and  C_11
REMARK    8  A    between atoms: C_13  and  C_14
REMARK    9  A    between atoms: C_13  and  C_17
REMARK   10  A    between atoms: C_17  and  C_18
REMARK                            x       y       z     vdW  Elec       q    Type
REMARK                         _______ _______ _______ _____ _____    ______ ____
ROOT
ATOM      1  O   UNL     1      35.485 -16.524 -22.364  0.00  0.00    -0.438 OA
ENDROOT
BRANCH   1   4
ATOM      2  O   UNL     1      35.110 -16.101 -20.139  0.00  0.00    -0.226 OA
ATOM      3  N   UNL     1      33.871 -15.065 -21.805  0.00  0.00    -0.265 N 
ATOM      4  C   UNL     1      34.847 -15.914 -21.322  0.00  0.00    +0.402 C 
ATOM      5  H   UNL     1      33.754 -15.000 -22.780  0.00  0.00    +0.153 HD
BRANCH   3   6
ATOM      6  CA  UNL     1      33.013 -14.268 -20.963  0.00  0.00    +0.139 C 
BRANCH   6   8
ATOM      7  O   UNL     1      31.625 -16.244 -20.751  0.00  0.00    -0.286 OA
ATOM      8  C   UNL     1      32.151 -15.269 -20.221  0.00  0.00    +0.227 C 
ENDBRANCH   6   8
BRANCH   6   9
ATOM      9  C   UNL     1      32.203 -13.273 -21.794  0.00  0.00    +0.028 C 
BRANCH   9  10
ATOM     10  C   UNL     1      32.678 -13.193 -23.248  0.00  0.00    +0.002 C 
BRANCH  10  11
ATOM     11  C   UNL     1      33.282 -11.823 -23.559  0.00  0.00    +0.000 C 
ATOM     12  C   UNL     1      33.941 -11.803 -24.929  0.00  0.00    +0.000 C 
ENDBRANCH  10  11
ENDBRANCH   9  10
ENDBRANCH   6   9
ENDBRANCH   3   6
ENDBRANCH   1   4
BRANCH   1  13
ATOM     13  C   UNL     1      35.015 -17.834 -22.704  0.00  0.00    +0.175 C 
BRANCH  13  14
ATOM     14  C   UNL     1      35.092 -18.013 -24.238  0.00  0.00    +0.041 C 
ATOM     15  C   UNL     1      34.475 -19.328 -24.722  0.00  0.00    +0.004 C 
ATOM     16  C   UNL     1      34.408 -16.841 -24.953  0.00  0.00    +0.004 C 
ENDBRANCH  13  14
BRANCH  13  17
ATOM     17  C   UNL     1      35.844 -18.886 -21.948  0.00  0.00    +0.070 C 
BRANCH  17  18
ATOM     18  C   UNL     1      34.992 -19.765 -21.060  0.00  0.00    -0.019 C 
ATOM     19  C   UNL     1      35.584 -20.784 -20.313  0.00  0.00    -0.004 C 
ATOM     20  C   UNL     1      33.615 -19.558 -20.988  0.00  0.00    -0.004 C 
ATOM     21  C   UNL     1      34.800 -21.595 -19.494  0.00  0.00    -0.000 C 
ATOM     22  C   UNL     1      32.830 -20.370 -20.168  0.00  0.00    -0.000 C 
ATOM     23  C   UNL     1      33.423 -21.388 -19.422  0.00  0.00    -0.000 C 
ENDBRANCH  17  18
ENDBRANCH  13  17
ENDBRANCH   1  13
TORSDOF 10
ENDMDL
MODEL 5
REMARK VINA RESULT:      -8.5      5.408      9.013
REMARK  Name = 10062713
REMARK  10 active torsions:
REMARK  status: ('A' for Active; 'I' for Inactive)
REMARK    1  A    between atoms: O_1  and  C_4
REMARK    2  A    between atoms: O_1  and  C_13
REMARK    3  A    between atoms: N_3  and  CA_6
REMARK    4  A    between atoms: CA_6  and  C_8
REMARK    5  A    between atoms: CA_6  and  C_9
REMARK    6  A    between atoms: C_9  and  C_10
REMARK    7  A    between atoms: C_10  and  C_11
REMARK    8  A    between atoms: C_13  and  C_14
REMARK    9  A    between atoms: C_13  and  C_17
REMARK   10  A    between atoms: C_17  and  C_18
REMARK                            x       y       z     vdW  Elec       q    Type
REMARK                         _______ _______ _______ _____ _____    ______ ____
ROOT
ATOM      1  O   UNL     1      33.571 -23.576 -17.334  0.00  0.00    -0.438 OA
ENDROOT
BRANCH   1   4
ATOM      2  O   UNL     1      31.649 -22.346 -17.582  0.00  0.00    -0.226 OA
ATOM      3  N   UNL     1      31.983 -23.734 -15.753  0.00  0.00    -0.265 N 
ATOM      4  C   UNL     1      32.334 -23.142 -16.950  0.00  0.00    +0.402 C 
ATOM      5  H   UNL     1      32.621 -24.360 -15.339  0.00  0.00    +0.153 HD
BRANCH   3   6
ATOM      6  CA  UNL     1      30.736 -23.488 -15.072  0.00  0.00    +0.139 C 
BRANCH   6   8
ATOM      7  O   UNL     1      32.239 -23.560 -13.172  0.00  0.00    -0.286 OA
ATOM      8  C   UNL     1      31.096 -23.428 -13.602  0.00  0.00    +0.227 C 
ENDBRANCH   6   8
BRANCH   6   9
ATOM      9  C   UNL     1      29.711 -24.574 -15.398  0.00  0.00    +0.028 C 
BRANCH   9  10
ATOM     10  C   UNL     1      28.694 -24.128 -16.453  0.00  0.00    +0.002 C 
BRANCH  10  11
ATOM     11  C   UNL     1      28.467 -22.616 -16.400  0.00  0.00    +0.000 C 
ATOM     12  C   UNL     1      27.128 -22.276 -15.766  0.00  0.00    +0.000 C 
ENDBRANCH  10  11
ENDBRANCH   9  10
ENDBRANCH   6   9
ENDBRANCH   3   6
ENDBRANCH   1   4
BRANCH   1  13
ATOM     13  C   UNL     1      34.523 -22.552 -17.647  0.00  0.00    +0.175 C 
BRANCH  13  14
ATOM     14  C   UNL     1      35.779 -22.748 -16.766  0.00  0.00    +0.041 C 
ATOM     15  C   UNL     1      36.897 -21.751 -17.082  0.00  0.00    +0.004 C 
ATOM     16  C   UNL     1      35.417 -22.646 -15.280  0.00  0.00    +0.004 C 
ENDBRANCH  13  14
BRANCH  13  17
ATOM     17  C   UNL     1      34.847 -22.598 -19.150  0.00  0.00    +0.070 C 
BRANCH  17  18
ATOM     18  C   UNL     1      34.530 -21.296 -19.850  0.00  0.00    -0.019 C 
ATOM     19  C   UNL     1      35.561 -20.516 -20.373  0.00  0.00    -0.004 C 
ATOM     20  C   UNL     1      33.206 -20.875 -19.974  0.00  0.00    -0.004 C 
ATOM     21  C   UNL     1      35.269 -19.315 -21.019  0.00  0.00    -0.000 C 
ATOM     22  C   UNL     1      32.914 -19.673 -20.621  0.00  0.00    -0.000 C 
ATOM     23  C   UNL     1      33.946 -18.894 -21.143  0.00  0.00    -0.000 C 
ENDBRANCH  17  18
ENDBRANCH  13  17
ENDBRANCH   1  13
TORSDOF 10
ENDMDL
MODEL 6
REMARK VINA RESULT:      -8.5      2.757      7.845
REMARK  Name = 10062713
REMARK  10 active torsions:
REMARK  status: ('A' for Active; 'I' for Inactive)
REMARK    1  A    between atoms: O_1  and  C_4
REMARK    2  A    between atoms: O_1  and  C_13
REMARK    3  A    between atoms: N_3  and  CA_6
REMARK    4  A    between atoms: CA_6  and  C_8
REMARK    5  A    between atoms: CA_6  and  C_9
REMARK    6  A    between atoms: C_9  and  C_10
REMARK    7  A    between atoms: C_10  and  C_11
REMARK    8  A    between atoms: C_13  and  C_14
REMARK    9  A    between atoms: C_13  and  C_17
REMARK   10  A    between atoms: C_17  and  C_18
REMARK                            x       y       z     vdW  Elec       q    Type
REMARK                         _______ _______ _______ _____ _____    ______ ____
ROOT
ATOM      1  O   UNL     1      33.804 -12.018 -24.911  0.00  0.00    -0.438 OA
ENDROOT
BRANCH   1   4
ATOM      2  O   UNL     1      32.463 -13.882 -24.934  0.00  0.00    -0.226 OA
ATOM      3  N   UNL     1      34.212 -13.654 -23.426  0.00  0.00    -0.265 N 
ATOM      4  C   UNL     1      33.403 -13.246 -24.468  0.00  0.00    +0.402 C 
ATOM      5  H   UNL     1      34.938 -13.053 -23.139  0.00  0.00    +0.153 HD
BRANCH   3   6
ATOM      6  CA  UNL     1      34.056 -14.908 -22.732  0.00  0.00    +0.139 C 
BRANCH   6   8
ATOM      7  O   UNL     1      34.904 -15.216 -20.483  0.00  0.00    -0.286 OA
ATOM      8  C   UNL     1      34.214 -14.568 -21.264  0.00  0.00    +0.227 C 
ENDBRANCH   6   8
BRANCH   6   9
ATOM      9  C   UNL     1      35.072 -15.937 -23.225  0.00  0.00    +0.028 C 
BRANCH   9  10
ATOM     10  C   UNL     1      34.595 -16.687 -24.473  0.00  0.00    +0.002 C 
BRANCH  10  11
ATOM     11  C   UNL     1      34.841 -18.191 -24.344  0.00  0.00    +0.000 C 
ATOM     12  C   UNL     1      35.292 -18.562 -22.940  0.00  0.00    +0.000 C 
ENDBRANCH  10  11
ENDBRANCH   9  10
ENDBRANCH   6   9
ENDBRANCH   3   6
ENDBRANCH   1   4
BRANCH   1  13
ATOM     13  C   UNL     1      33.971 -11.014 -23.902  0.00  0.00    +0.175 C 
BRANCH  13  14
ATOM     14  C   UNL     1      35.084 -10.037 -24.347  0.00  0.00    +0.041 C 
ATOM     15  C   UNL     1      35.505 -10.229 -25.806  0.00  0.00    +0.004 C 
ATOM     16  C   UNL     1      34.642  -8.584 -24.136  0.00  0.00    +0.004 C 
ENDBRANCH  13  14
BRANCH  13  17
ATOM     17  C   UNL     1      32.629 -10.305 -23.659  0.00  0.00    +0.070 C 
BRANCH  17  18
ATOM     18  C   UNL     1      32.191 -10.374 -22.214  0.00  0.00    -0.019 C 
ATOM     19  C   UNL     1      32.271  -9.239 -21.406  0.00  0.00    -0.004 C 
ATOM     20  C   UNL     1      31.707 -11.571 -21.687  0.00  0.00    -0.004 C 
ATOM     21  C   UNL     1      31.868  -9.302 -20.073  0.00  0.00    -0.000 C 
ATOM     22  C   UNL     1      31.303 -11.633 -20.353  0.00  0.00    -0.000 C 
ATOM     23  C   UNL     1      31.383 -10.499 -19.546  0.00  0.00    -0.000 C 
ENDBRANCH  17  18
ENDBRANCH  13  17
ENDBRANCH   1  13
TORSDOF 10
ENDMDL
MODEL 7
REMARK VINA RESULT:      -8.4      1.728      7.492
REMARK  Name = 10062713
REMARK  10 active torsions:
REMARK  status: ('A' for Active; 'I' for Inactive)
REMARK    1  A    between atoms: O_1  and  C_4
REMARK    2  A    between atoms: O_1  and  C_13
REMARK    3  A    between atoms: N_3  and  CA_6
REMARK    4  A    between atoms: CA_6  and  C_8
REMARK    5  A    between atoms: CA_6  and  C_9
REMARK    6  A    between atoms: C_9  and  C_10
REMARK    7  A    between atoms: C_10  and  C_11
REMARK    8  A    between atoms: C_13  and  C_14
REMARK    9  A    between atoms: C_13  and  C_17
REMARK   10  A    between atoms: C_17  and  C_18
REMARK                            x       y       z     vdW  Elec       q    Type
REMARK                         _______ _______ _______ _____ _____    ______ ____
ROOT
ATOM      1  O   UNL     1      32.960 -14.749 -22.091  0.00  0.00    -0.438 OA
ENDROOT
BRANCH   1   4
ATOM      2  O   UNL     1      34.798 -14.988 -20.736  0.00  0.00    -0.226 OA
ATOM      3  N   UNL     1      34.230 -16.589 -22.318  0.00  0.00    -0.265 N 
ATOM      4  C   UNL     1      34.067 -15.403 -21.629  0.00  0.00    +0.402 C 
ATOM      5  H   UNL     1      33.574 -16.813 -23.017  0.00  0.00    +0.153 HD
BRANCH   3   6
ATOM      6  CA  UNL     1      35.306 -17.517 -22.073  0.00  0.00    +0.139 C 
BRANCH   6   8
ATOM      7  O   UNL     1      35.032 -17.822 -24.462  0.00  0.00    -0.286 OA
ATOM      8  C   UNL     1      35.601 -18.142 -23.421  0.00  0.00    +0.227 C 
ENDBRANCH   6   8
BRANCH   6   9
ATOM      9  C   UNL     1      34.915 -18.539 -21.007  0.00  0.00    +0.028 C 
BRANCH   9  10
ATOM     10  C   UNL     1      33.993 -19.635 -21.549  0.00  0.00    +0.002 C 
BRANCH  10  11
ATOM     11  C   UNL     1      32.922 -20.015 -20.525  0.00  0.00    +0.000 C 
ATOM     12  C   UNL     1      33.371 -21.180 -19.657  0.00  0.00    +0.000 C 
ENDBRANCH  10  11
ENDBRANCH   9  10
ENDBRANCH   6   9
ENDBRANCH   3   6
ENDBRANCH   1   4
BRANCH   1  13
ATOM     13  C   UNL     1      33.158 -13.385 -22.481  0.00  0.00    +0.175 C 
BRANCH  13  14
ATOM     14  C   UNL     1      33.808 -13.354 -23.884  0.00  0.00    +0.041 C 
ATOM     15  C   UNL     1      33.062 -14.210 -24.912  0.00  0.00    +0.004 C 
ATOM     16  C   UNL     1      33.906 -11.914 -24.402  0.00  0.00    +0.004 C 
ENDBRANCH  13  14
BRANCH  13  17
ATOM     17  C   UNL     1      31.812 -12.642 -22.441  0.00  0.00    +0.070 C 
BRANCH  17  18
ATOM     18  C   UNL     1      31.792 -11.535 -21.412  0.00  0.00    -0.019 C 
ATOM     19  C   UNL     1      31.642 -11.843 -20.059  0.00  0.00    -0.004 C 
ATOM     20  C   UNL     1      31.924 -10.206 -21.814  0.00  0.00    -0.004 C 
ATOM     21  C   UNL     1      31.624 -10.822 -19.110  0.00  0.00    -0.000 C 
ATOM     22  C   UNL     1      31.906  -9.185 -20.862  0.00  0.00    -0.000 C 
ATOM     23  C   UNL     1      31.756  -9.493 -19.511  0.00  0.00    -0.000 C 
ENDBRANCH  17  18
ENDBRANCH  13  17
ENDBRANCH   1  13
TORSDOF 10
ENDMDL
MODEL 8
REMARK VINA RESULT:      -8.1      4.121      8.356
REMARK  Name = 10062713
REMARK  10 active torsions:
REMARK  status: ('A' for Active; 'I' for Inactive)
REMARK    1  A    between atoms: O_1  and  C_4
REMARK    2  A    between atoms: O_1  and  C_13
REMARK    3  A    between atoms: N_3  and  CA_6
REMARK    4  A    between atoms: CA_6  and  C_8
REMARK    5  A    between atoms: CA_6  and  C_9
REMARK    6  A    between atoms: C_9  and  C_10
REMARK    7  A    between atoms: C_10  and  C_11
REMARK    8  A    between atoms: C_13  and  C_14
REMARK    9  A    between atoms: C_13  and  C_17
REMARK   10  A    between atoms: C_17  and  C_18
REMARK                            x       y       z     vdW  Elec       q    Type
REMARK                         _______ _______ _______ _____ _____    ______ ____
ROOT
ATOM      1  O   UNL     1      33.015  -9.938 -24.728  0.00  0.00    -0.438 OA
ENDROOT
BRANCH   1   4
ATOM      2  O   UNL     1      34.995 -10.977 -25.248  0.00  0.00    -0.226 OA
ATOM      3  N   UNL     1      33.279 -12.095 -24.157  0.00  0.00    -0.265 N 
ATOM      4  C   UNL     1      33.871 -11.002 -24.758  0.00  0.00    +0.402 C 
ATOM      5  H   UNL     1      32.367 -11.991 -23.800  0.00  0.00    +0.153 HD
BRANCH   3   6
ATOM      6  CA  UNL     1      33.917 -13.381 -24.024  0.00  0.00    +0.139 C 
BRANCH   6   8
ATOM      7  O   UNL     1      33.187 -14.334 -26.130  0.00  0.00    -0.286 OA
ATOM      8  C   UNL     1      33.110 -14.314 -24.904  0.00  0.00    +0.227 C 
ENDBRANCH   6   8
BRANCH   6   9
ATOM      9  C   UNL     1      33.962 -13.820 -22.561  0.00  0.00    +0.028 C 
BRANCH   9  10
ATOM     10  C   UNL     1      32.666 -14.501 -22.108  0.00  0.00    +0.002 C 
BRANCH  10  11
ATOM     11  C   UNL     1      32.859 -15.230 -20.777  0.00  0.00    +0.000 C 
ATOM     12  C   UNL     1      34.332 -15.385 -20.436  0.00  0.00    +0.000 C 
ENDBRANCH  10  11
ENDBRANCH   9  10
ENDBRANCH   6   9
ENDBRANCH   3   6
ENDBRANCH   1   4
BRANCH   1  13
ATOM     13  C   UNL     1      33.070  -9.124 -23.550  0.00  0.00    +0.175 C 
BRANCH  13  14
ATOM     14  C   UNL     1      33.586  -7.718 -23.936  0.00  0.00    +0.041 C 
ATOM     15  C   UNL     1      32.681  -6.588 -23.439  0.00  0.00    +0.004 C 
ATOM     16  C   UNL     1      35.006  -7.499 -23.403  0.00  0.00    +0.004 C 
ENDBRANCH  13  14
BRANCH  13  17
ATOM     17  C   UNL     1      31.680  -9.080 -22.894  0.00  0.00    +0.070 C 
BRANCH  17  18
ATOM     18  C   UNL     1      31.659  -9.748 -21.538  0.00  0.00    -0.019 C 
ATOM     19  C   UNL     1      32.066  -9.041 -20.406  0.00  0.00    -0.004 C 
ATOM     20  C   UNL     1      31.234 -11.071 -21.418  0.00  0.00    -0.004 C 
ATOM     21  C   UNL     1      32.047  -9.657 -19.155  0.00  0.00    -0.000 C 
ATOM     22  C   UNL     1      31.215 -11.686 -20.166  0.00  0.00    -0.000 C 
ATOM     23  C   UNL     1      31.621 -10.979 -19.035  0.00  0.00    -0.000 C 
ENDBRANCH  17  18
ENDBRANCH  13  17
ENDBRANCH   1  13
TORSDOF 10
ENDMDL
MODEL 9
REMARK VINA RESULT:      -8.0      2.166      3.537
REMARK  Name = 10062713
REMARK  10 active torsions:
REMARK  status: ('A' for Active; 'I' for Inactive)
REMARK    1  A    between atoms: O_1  and  C_4
REMARK    2  A    between atoms: O_1  and  C_13
REMARK    3  A    between atoms: N_3  and  CA_6
REMARK    4  A    between atoms: CA_6  and  C_8
REMARK    5  A    between atoms: CA_6  and  C_9
REMARK    6  A    between atoms: C_9  and  C_10
REMARK    7  A    between atoms: C_10  and  C_11
REMARK    8  A    between atoms: C_13  and  C_14
REMARK    9  A    between atoms: C_13  and  C_17
REMARK   10  A    between atoms: C_17  and  C_18
REMARK                            x       y       z     vdW  Elec       q    Type
REMARK                         _______ _______ _______ _____ _____    ______ ____
ROOT
ATOM      1  O   UNL     1      35.209 -15.572 -23.420  0.00  0.00    -0.438 OA
ENDROOT
BRANCH   1   4
ATOM      2  O   UNL     1      33.342 -15.339 -24.736  0.00  0.00    -0.226 OA
ATOM      3  N   UNL     1      34.220 -13.558 -23.535  0.00  0.00    -0.265 N 
ATOM      4  C   UNL     1      34.176 -14.868 -23.971  0.00  0.00    +0.402 C 
ATOM      5  H   UNL     1      34.942 -13.297 -22.919  0.00  0.00    +0.153 HD
BRANCH   3   6
ATOM      6  CA  UNL     1      33.270 -12.548 -23.932  0.00  0.00    +0.139 C 
BRANCH   6   8
ATOM      7  O   UNL     1      33.935 -11.813 -26.143  0.00  0.00    -0.286 OA
ATOM      8  C   UNL     1      34.012 -11.678 -24.925  0.00  0.00    +0.227 C 
ENDBRANCH   6   8
BRANCH   6   9
ATOM      9  C   UNL     1      32.754 -11.775 -22.719  0.00  0.00    +0.028 C 
BRANCH   9  10
ATOM     10  C   UNL     1      31.797 -12.603 -21.854  0.00  0.00    +0.002 C 
BRANCH  10  11
ATOM     11  C   UNL     1      31.880 -12.189 -20.384  0.00  0.00    +0.000 C 
ATOM     12  C   UNL     1      31.084 -10.921 -20.117  0.00  0.00    +0.000 C 
ENDBRANCH  10  11
ENDBRANCH   9  10
ENDBRANCH   6   9
ENDBRANCH   3   6
ENDBRANCH   1   4
BRANCH   1  13
ATOM     13  C   UNL     1      34.911 -16.271 -22.205  0.00  0.00    +0.175 C 
BRANCH  13  14
ATOM     14  C   UNL     1      33.914 -15.430 -21.375  0.00  0.00    +0.041 C 
ATOM     15  C   UNL     1      32.663 -16.212 -20.965  0.00  0.00    +0.004 C 
ATOM     16  C   UNL     1      34.594 -14.871 -20.119  0.00  0.00    +0.004 C 
ENDBRANCH  13  14
BRANCH  13  17
ATOM     17  C   UNL     1      34.364 -17.668 -22.541  0.00  0.00    +0.070 C 
BRANCH  17  18
ATOM     18  C   UNL     1      34.910 -18.739 -21.624  0.00  0.00    -0.019 C 
ATOM     19  C   UNL     1      36.271 -18.770 -21.319  0.00  0.00    -0.004 C 
ATOM     20  C   UNL     1      34.052 -19.697 -21.082  0.00  0.00    -0.004 C 
ATOM     21  C   UNL     1      36.774 -19.757 -20.474  0.00  0.00    -0.000 C 
ATOM     22  C   UNL     1      34.557 -20.684 -20.235  0.00  0.00    -0.000 C 
ATOM     23  C   UNL     1      35.917 -20.714 -19.931  0.00  0.00    -0.000 C 
ENDBRANCH  17  18
ENDBRANCH  13  17
ENDBRANCH   1  13
TORSDOF 10
ENDMDL
