MODEL 1
REMARK VINA RESULT:     -10.4      0.000      0.000
REMARK  Name = 25271580
REMARK  8 active torsions:
REMARK  status: ('A' for Active; 'I' for Inactive)
REMARK    1  A    between atoms: S_1  and  C_4
REMARK    2  A    between atoms: S_1  and  N_16
REMARK    3  A    between atoms: C_7  and  C_10
REMARK    4  A    between atoms: N_16  and  C_18
REMARK    5  A    between atoms: C_18  and  C_20
REMARK    6  A    between atoms: C_18  and  C_23
REMARK    7  A    between atoms: C_20  and  O_21
REMARK    8  A    between atoms: C_23  and  C_24
REMARK                            x       y       z     vdW  Elec       q    Type
REMARK                         _______ _______ _______ _____ _____    ______ ____
ROOT
ATOM      1  S   UNL     1      33.987 -23.023 -18.040  0.00  0.00    +0.061 S 
ATOM      2  O   UNL     1      33.701 -24.242 -18.772  0.00  0.00    -0.153 OA
ATOM      3  O   UNL     1      35.124 -22.959 -17.144  0.00  0.00    -0.153 OA
ENDROOT
BRANCH   1   4
ATOM      4  C   UNL     1      34.180 -21.715 -19.213  0.00  0.00    +0.122 C 
ATOM      5  C   UNL     1      33.058 -21.037 -19.692  0.00  0.00    +0.020 C 
ATOM      6  C   UNL     1      35.453 -21.361 -19.660  0.00  0.00    +0.020 C 
ATOM      7  C   UNL     1      34.484 -19.651 -21.064  0.00  0.00    +0.000 C 
ATOM      8  C   UNL     1      33.211 -20.005 -20.618  0.00  0.00    +0.001 C 
ATOM      9  C   UNL     1      35.606 -20.329 -20.586  0.00  0.00    +0.001 C 
BRANCH   7  10
ATOM     10  C   UNL     1      34.642 -18.580 -22.025  0.00  0.00    +0.000 C 
ATOM     11  C   UNL     1      34.753 -18.873 -23.384  0.00  0.00    +0.000 C 
ATOM     12  C   UNL     1      34.682 -17.255 -21.592  0.00  0.00    +0.000 C 
ATOM     13  C   UNL     1      34.905 -17.842 -24.311  0.00  0.00    +0.000 C 
ATOM     14  C   UNL     1      34.834 -16.222 -22.518  0.00  0.00    +0.000 C 
ATOM     15  C   UNL     1      34.945 -16.516 -23.877  0.00  0.00    +0.000 C 
ENDBRANCH   7  10
ENDBRANCH   1   4
BRANCH   1  16
ATOM     16  N   UNL     1      32.595 -22.531 -17.196  0.00  0.00    -0.170 NA
ATOM     17  H   UNL     1      31.923 -22.215 -17.895  0.00  0.00    +0.149 HD
BRANCH  16  18
ATOM     18  C   UNL     1      31.884 -23.490 -16.321  0.00  0.00    +0.174 C 
BRANCH  18  20
ATOM     19  O   UNL     1      33.474 -24.311 -14.662  0.00  0.00    -0.249 OA
ATOM     20  C   UNL     1      32.617 -23.509 -15.001  0.00  0.00    +0.330 C 
BRANCH  20  21
ATOM     21  O   UNL     1      32.198 -22.484 -14.211  0.00  0.00    -0.479 OA
ATOM     22  H   UNL     1      32.825 -21.910 -13.819  0.00  0.00    +0.295 HD
ENDBRANCH  20  21
ENDBRANCH  18  20
BRANCH  18  23
ATOM     23  C   UNL     1      30.430 -23.047 -16.135  0.00  0.00    +0.029 C 
BRANCH  23  24
ATOM     24  C   UNL     1      29.383 -24.166 -16.307  0.00  0.00    +0.002 C 
ATOM     25  C   UNL     1      28.092 -23.660 -16.954  0.00  0.00    +0.000 C 
ATOM     26  C   UNL     1      29.066 -24.791 -14.945  0.00  0.00    +0.000 C 
ENDBRANCH  23  24
ENDBRANCH  18  23
ENDBRANCH  16  18
ENDBRANCH   1  16
TORSDOF 8
ENDMDL
MODEL 2
REMARK VINA RESULT:     -10.2      2.217      2.892
REMARK  Name = 25271580
REMARK  8 active torsions:
REMARK  status: ('A' for Active; 'I' for Inactive)
REMARK    1  A    between atoms: S_1  and  C_4
REMARK    2  A    between atoms: S_1  and  N_16
REMARK    3  A    between atoms: C_7  and  C_10
REMARK    4  A    between atoms: N_16  and  C_18
REMARK    5  A    between atoms: C_18  and  C_20
REMARK    6  A    between atoms: C_18  and  C_23
REMARK    7  A    between atoms: C_20  and  O_21
REMARK    8  A    between atoms: C_23  and  C_24
REMARK                            x       y       z     vdW  Elec       q    Type
REMARK                         _______ _______ _______ _____ _____    ______ ____
ROOT
ATOM      1  S   UNL     1      33.635 -22.817 -18.347  0.00  0.00    +0.061 S 
ATOM      2  O   UNL     1      32.370 -22.579 -17.679  0.00  0.00    -0.153 OA
ATOM      3  O   UNL     1      33.855 -24.051 -19.077  0.00  0.00    -0.153 OA
ENDROOT
BRANCH   1   4
ATOM      4  C   UNL     1      33.910 -21.491 -19.483  0.00  0.00    +0.122 C 
ATOM      5  C   UNL     1      32.827 -20.776 -19.996  0.00  0.00    +0.020 C 
ATOM      6  C   UNL     1      35.210 -21.158 -19.865  0.00  0.00    +0.020 C 
ATOM      7  C   UNL     1      34.345 -19.397 -21.273  0.00  0.00    +0.000 C 
ATOM      8  C   UNL     1      33.045 -19.729 -20.891  0.00  0.00    +0.001 C 
ATOM      9  C   UNL     1      35.427 -20.110 -20.760  0.00  0.00    +0.001 C 
BRANCH   7  10
ATOM     10  C   UNL     1      34.570 -18.310 -22.202  0.00  0.00    +0.000 C 
ATOM     11  C   UNL     1      34.705 -18.575 -23.566  0.00  0.00    +0.000 C 
ATOM     12  C   UNL     1      34.649 -16.998 -21.737  0.00  0.00    +0.000 C 
ATOM     13  C   UNL     1      34.922 -17.529 -24.462  0.00  0.00    +0.000 C 
ATOM     14  C   UNL     1      34.865 -15.951 -22.632  0.00  0.00    +0.000 C 
ATOM     15  C   UNL     1      35.002 -16.216 -23.995  0.00  0.00    +0.000 C 
ENDBRANCH   7  10
ENDBRANCH   1   4
BRANCH   1  16
ATOM     16  N   UNL     1      34.908 -22.599 -17.242  0.00  0.00    -0.170 NA
ATOM     17  H   UNL     1      34.769 -21.687 -16.809  0.00  0.00    +0.149 HD
BRANCH  16  18
ATOM     18  C   UNL     1      35.106 -23.569 -16.142  0.00  0.00    +0.174 C 
BRANCH  18  20
ATOM     19  O   UNL     1      37.162 -22.423 -15.496  0.00  0.00    -0.249 OA
ATOM     20  C   UNL     1      36.550 -23.459 -15.712  0.00  0.00    +0.330 C 
BRANCH  20  21
ATOM     21  O   UNL     1      37.102 -24.694 -15.584  0.00  0.00    -0.479 OA
ATOM     22  H   UNL     1      36.559 -25.431 -15.388  0.00  0.00    +0.295 HD
ENDBRANCH  20  21
ENDBRANCH  18  20
BRANCH  18  23
ATOM     23  C   UNL     1      34.163 -23.241 -14.981  0.00  0.00    +0.029 C 
BRANCH  23  24
ATOM     24  C   UNL     1      33.870 -24.419 -14.029  0.00  0.00    +0.002 C 
ATOM     25  C   UNL     1      32.374 -24.594 -13.763  0.00  0.00    +0.000 C 
ATOM     26  C   UNL     1      34.608 -24.208 -12.704  0.00  0.00    +0.000 C 
ENDBRANCH  23  24
ENDBRANCH  18  23
ENDBRANCH  16  18
ENDBRANCH   1  16
TORSDOF 8
ENDMDL
MODEL 3
REMARK VINA RESULT:     -10.0      1.286      2.582
REMARK  Name = 25271580
REMARK  8 active torsions:
REMARK  status: ('A' for Active; 'I' for Inactive)
REMARK    1  A    between atoms: S_1  and  C_4
REMARK    2  A    between atoms: S_1  and  N_16
REMARK    3  A    between atoms: C_7  and  C_10
REMARK    4  A    between atoms: N_16  and  C_18
REMARK    5  A    between atoms: C_18  and  C_20
REMARK    6  A    between atoms: C_18  and  C_23
REMARK    7  A    between atoms: C_20  and  O_21
REMARK    8  A    between atoms: C_23  and  C_24
REMARK                            x       y       z     vdW  Elec       q    Type
REMARK                         _______ _______ _______ _____ _____    ______ ____
ROOT
ATOM      1  S   UNL     1      33.593 -22.940 -18.114  0.00  0.00    +0.061 S 
ATOM      2  O   UNL     1      33.718 -24.200 -18.822  0.00  0.00    -0.153 OA
ATOM      3  O   UNL     1      34.417 -22.671 -16.952  0.00  0.00    -0.153 OA
ENDROOT
BRANCH   1   4
ATOM      4  C   UNL     1      33.888 -21.635 -19.269  0.00  0.00    +0.122 C 
ATOM      5  C   UNL     1      35.191 -21.342 -19.673  0.00  0.00    +0.020 C 
ATOM      6  C   UNL     1      32.817 -20.898 -19.776  0.00  0.00    +0.020 C 
ATOM      7  C   UNL     1      34.352 -19.575 -21.092  0.00  0.00    +0.000 C 
ATOM      8  C   UNL     1      35.423 -20.312 -20.584  0.00  0.00    +0.001 C 
ATOM      9  C   UNL     1      33.050 -19.868 -20.688  0.00  0.00    +0.001 C 
BRANCH   7  10
ATOM     10  C   UNL     1      34.594 -18.507 -22.037  0.00  0.00    +0.000 C 
ATOM     11  C   UNL     1      34.666 -17.186 -21.594  0.00  0.00    +0.000 C 
ATOM     12  C   UNL     1      34.756 -18.797 -23.392  0.00  0.00    +0.000 C 
ATOM     13  C   UNL     1      34.898 -16.156 -22.504  0.00  0.00    +0.000 C 
ATOM     14  C   UNL     1      34.989 -17.767 -24.303  0.00  0.00    +0.000 C 
ATOM     15  C   UNL     1      35.060 -16.446 -23.860  0.00  0.00    +0.000 C 
ENDBRANCH   7  10
ENDBRANCH   1   4
BRANCH   1  16
ATOM     16  N   UNL     1      31.964 -22.682 -17.704  0.00  0.00    -0.170 NA
ATOM     17  H   UNL     1      31.416 -23.362 -18.230  0.00  0.00    +0.149 HD
BRANCH  16  18
ATOM     18  C   UNL     1      31.531 -22.784 -16.292  0.00  0.00    +0.174 C 
BRANCH  18  20
ATOM     19  O   UNL     1      29.293 -22.912 -17.257  0.00  0.00    -0.249 OA
ATOM     20  C   UNL     1      30.022 -22.741 -16.290  0.00  0.00    +0.330 C 
BRANCH  20  21
ATOM     21  O   UNL     1      29.556 -22.490 -15.038  0.00  0.00    -0.479 OA
ATOM     22  H   UNL     1      30.118 -22.101 -14.399  0.00  0.00    +0.295 HD
ENDBRANCH  20  21
ENDBRANCH  18  20
BRANCH  18  23
ATOM     23  C   UNL     1      32.043 -24.093 -15.684  0.00  0.00    +0.029 C 
BRANCH  23  24
ATOM     24  C   UNL     1      32.329 -24.037 -14.169  0.00  0.00    +0.002 C 
ATOM     25  C   UNL     1      33.809 -24.255 -13.849  0.00  0.00    +0.000 C 
ATOM     26  C   UNL     1      31.485 -25.088 -13.444  0.00  0.00    +0.000 C 
ENDBRANCH  23  24
ENDBRANCH  18  23
ENDBRANCH  16  18
ENDBRANCH   1  16
TORSDOF 8
ENDMDL
MODEL 4
REMARK VINA RESULT:      -9.9      2.632      3.866
REMARK  Name = 25271580
REMARK  8 active torsions:
REMARK  status: ('A' for Active; 'I' for Inactive)
REMARK    1  A    between atoms: S_1  and  C_4
REMARK    2  A    between atoms: S_1  and  N_16
REMARK    3  A    between atoms: C_7  and  C_10
REMARK    4  A    between atoms: N_16  and  C_18
REMARK    5  A    between atoms: C_18  and  C_20
REMARK    6  A    between atoms: C_18  and  C_23
REMARK    7  A    between atoms: C_20  and  O_21
REMARK    8  A    between atoms: C_23  and  C_24
REMARK                            x       y       z     vdW  Elec       q    Type
REMARK                         _______ _______ _______ _____ _____    ______ ____
ROOT
ATOM      1  S   UNL     1      33.793 -23.153 -17.720  0.00  0.00    +0.061 S 
ATOM      2  O   UNL     1      32.726 -22.720 -16.837  0.00  0.00    -0.153 OA
ATOM      3  O   UNL     1      33.679 -24.404 -18.443  0.00  0.00    -0.153 OA
ENDROOT
BRANCH   1   4
ATOM      4  C   UNL     1      34.055 -21.884 -18.921  0.00  0.00    +0.122 C 
ATOM      5  C   UNL     1      32.966 -21.196 -19.458  0.00  0.00    +0.020 C 
ATOM      6  C   UNL     1      35.350 -21.569 -19.333  0.00  0.00    +0.020 C 
ATOM      7  C   UNL     1      34.468 -19.880 -20.817  0.00  0.00    +0.000 C 
ATOM      8  C   UNL     1      33.172 -20.195 -20.406  0.00  0.00    +0.001 C 
ATOM      9  C   UNL     1      35.557 -20.566 -20.280  0.00  0.00    +0.001 C 
BRANCH   7  10
ATOM     10  C   UNL     1      34.682 -18.840 -21.800  0.00  0.00    +0.000 C 
ATOM     11  C   UNL     1      34.751 -19.165 -23.155  0.00  0.00    +0.000 C 
ATOM     12  C   UNL     1      34.818 -17.513 -21.395  0.00  0.00    +0.000 C 
ATOM     13  C   UNL     1      34.957 -18.164 -24.104  0.00  0.00    +0.000 C 
ATOM     14  C   UNL     1      35.024 -16.510 -22.343  0.00  0.00    +0.000 C 
ATOM     15  C   UNL     1      35.093 -16.836 -23.698  0.00  0.00    +0.000 C 
ENDBRANCH   7  10
ENDBRANCH   1   4
BRANCH   1  16
ATOM     16  N   UNL     1      35.267 -23.141 -16.873  0.00  0.00    -0.170 NA
ATOM     17  H   UNL     1      35.691 -22.228 -17.034  0.00  0.00    +0.149 HD
BRANCH  16  18
ATOM     18  C   UNL     1      35.281 -23.367 -15.411  0.00  0.00    +0.174 C 
BRANCH  18  20
ATOM     19  O   UNL     1      35.529 -25.778 -15.697  0.00  0.00    -0.249 OA
ATOM     20  C   UNL     1      34.957 -24.825 -15.188  0.00  0.00    +0.330 C 
BRANCH  20  21
ATOM     21  O   UNL     1      33.922 -24.954 -14.316  0.00  0.00    -0.479 OA
ATOM     22  H   UNL     1      33.582 -24.199 -13.879  0.00  0.00    +0.295 HD
ENDBRANCH  20  21
ENDBRANCH  18  20
BRANCH  18  23
ATOM     23  C   UNL     1      36.660 -23.019 -14.843  0.00  0.00    +0.029 C 
BRANCH  23  24
ATOM     24  C   UNL     1      37.070 -23.827 -13.594  0.00  0.00    +0.002 C 
ATOM     25  C   UNL     1      37.271 -22.937 -12.366  0.00  0.00    +0.000 C 
ATOM     26  C   UNL     1      38.357 -24.606 -13.881  0.00  0.00    +0.000 C 
ENDBRANCH  23  24
ENDBRANCH  18  23
ENDBRANCH  16  18
ENDBRANCH   1  16
TORSDOF 8
ENDMDL
MODEL 5
REMARK VINA RESULT:      -9.6      2.832      3.999
REMARK  Name = 25271580
REMARK  8 active torsions:
REMARK  status: ('A' for Active; 'I' for Inactive)
REMARK    1  A    between atoms: S_1  and  C_4
REMARK    2  A    between atoms: S_1  and  N_16
REMARK    3  A    between atoms: C_7  and  C_10
REMARK    4  A    between atoms: N_16  and  C_18
REMARK    5  A    between atoms: C_18  and  C_20
REMARK    6  A    between atoms: C_18  and  C_23
REMARK    7  A    between atoms: C_20  and  O_21
REMARK    8  A    between atoms: C_23  and  C_24
REMARK                            x       y       z     vdW  Elec       q    Type
REMARK                         _______ _______ _______ _____ _____    ______ ____
ROOT
ATOM      1  S   UNL     1      36.649 -23.915 -15.071  0.00  0.00    +0.061 S 
ATOM      2  O   UNL     1      36.391 -25.318 -15.333  0.00  0.00    -0.153 OA
ATOM      3  O   UNL     1      37.989 -23.468 -14.750  0.00  0.00    -0.153 OA
ENDROOT
BRANCH   1   4
ATOM      4  C   UNL     1      36.121 -22.992 -16.483  0.00  0.00    +0.122 C 
ATOM      5  C   UNL     1      37.015 -22.141 -17.134  0.00  0.00    +0.020 C 
ATOM      6  C   UNL     1      34.810 -23.114 -16.946  0.00  0.00    +0.020 C 
ATOM      7  C   UNL     1      35.288 -21.535 -18.710  0.00  0.00    +0.000 C 
ATOM      8  C   UNL     1      36.598 -21.413 -18.247  0.00  0.00    +0.001 C 
ATOM      9  C   UNL     1      34.394 -22.385 -18.060  0.00  0.00    +0.001 C 
BRANCH   7  10
ATOM     10  C   UNL     1      34.856 -20.779 -19.866  0.00  0.00    +0.000 C 
ATOM     11  C   UNL     1      33.494 -20.613 -20.122  0.00  0.00    +0.000 C 
ATOM     12  C   UNL     1      35.799 -20.215 -20.724  0.00  0.00    +0.000 C 
ATOM     13  C   UNL     1      33.077 -19.884 -21.236  0.00  0.00    +0.000 C 
ATOM     14  C   UNL     1      35.383 -19.486 -21.838  0.00  0.00    +0.000 C 
ATOM     15  C   UNL     1      34.022 -19.321 -22.094  0.00  0.00    +0.000 C 
ENDBRANCH   7  10
ENDBRANCH   1   4
BRANCH   1  16
ATOM     16  N   UNL     1      35.581 -23.359 -13.871  0.00  0.00    -0.170 NA
ATOM     17  H   UNL     1      34.866 -22.809 -14.345  0.00  0.00    +0.149 HD
BRANCH  16  18
ATOM     18  C   UNL     1      34.872 -24.328 -13.006  0.00  0.00    +0.174 C 
BRANCH  18  20
ATOM     19  O   UNL     1      35.373 -25.078 -10.738  0.00  0.00    -0.249 OA
ATOM     20  C   UNL     1      35.550 -24.291 -11.657  0.00  0.00    +0.330 C 
BRANCH  20  21
ATOM     21  O   UNL     1      36.417 -23.247 -11.589  0.00  0.00    -0.479 OA
ATOM     22  H   UNL     1      36.102 -22.370 -11.684  0.00  0.00    +0.295 HD
ENDBRANCH  20  21
ENDBRANCH  18  20
BRANCH  18  23
ATOM     23  C   UNL     1      33.396 -23.938 -12.888  0.00  0.00    +0.029 C 
BRANCH  23  24
ATOM     24  C   UNL     1      32.549 -24.214 -14.148  0.00  0.00    +0.002 C 
ATOM     25  C   UNL     1      32.011 -22.928 -14.779  0.00  0.00    +0.000 C 
ATOM     26  C   UNL     1      31.383 -25.141 -13.794  0.00  0.00    +0.000 C 
ENDBRANCH  23  24
ENDBRANCH  18  23
ENDBRANCH  16  18
ENDBRANCH   1  16
TORSDOF 8
ENDMDL
MODEL 6
REMARK VINA RESULT:      -9.5      8.365     11.937
REMARK  Name = 25271580
REMARK  8 active torsions:
REMARK  status: ('A' for Active; 'I' for Inactive)
REMARK    1  A    between atoms: S_1  and  C_4
REMARK    2  A    between atoms: S_1  and  N_16
REMARK    3  A    between atoms: C_7  and  C_10
REMARK    4  A    between atoms: N_16  and  C_18
REMARK    5  A    between atoms: C_18  and  C_20
REMARK    6  A    between atoms: C_18  and  C_23
REMARK    7  A    between atoms: C_20  and  O_21
REMARK    8  A    between atoms: C_23  and  C_24
REMARK                            x       y       z     vdW  Elec       q    Type
REMARK                         _______ _______ _______ _____ _____    ______ ____
ROOT
ATOM      1  S   UNL     1      31.401 -11.305 -20.671  0.00  0.00    +0.061 S 
ATOM      2  O   UNL     1      30.104 -11.177 -21.307  0.00  0.00    -0.153 OA
ATOM      3  O   UNL     1      31.500 -11.387 -19.227  0.00  0.00    -0.153 OA
ENDROOT
BRANCH   1   4
ATOM      4  C   UNL     1      32.189 -12.745 -21.326  0.00  0.00    +0.122 C 
ATOM      5  C   UNL     1      32.569 -13.781 -20.472  0.00  0.00    +0.020 C 
ATOM      6  C   UNL     1      32.430 -12.846 -22.696  0.00  0.00    +0.020 C 
ATOM      7  C   UNL     1      33.432 -15.018 -22.360  0.00  0.00    +0.000 C 
ATOM      8  C   UNL     1      33.190 -14.917 -20.989  0.00  0.00    +0.001 C 
ATOM      9  C   UNL     1      33.051 -13.983 -23.213  0.00  0.00    +0.001 C 
BRANCH   7  10
ATOM     10  C   UNL     1      34.076 -16.197 -22.895  0.00  0.00    +0.000 C 
ATOM     11  C   UNL     1      34.216 -16.350 -24.275  0.00  0.00    +0.000 C 
ATOM     12  C   UNL     1      34.560 -17.181 -22.034  0.00  0.00    +0.000 C 
ATOM     13  C   UNL     1      34.837 -17.486 -24.793  0.00  0.00    +0.000 C 
ATOM     14  C   UNL     1      35.183 -18.318 -22.550  0.00  0.00    +0.000 C 
ATOM     15  C   UNL     1      35.321 -18.471 -23.930  0.00  0.00    +0.000 C 
ENDBRANCH   7  10
ENDBRANCH   1   4
BRANCH   1  16
ATOM     16  N   UNL     1      32.425 -10.066 -21.222  0.00  0.00    -0.170 NA
ATOM     17  H   UNL     1      33.050 -10.484 -21.910  0.00  0.00    +0.149 HD
BRANCH  16  18
ATOM     18  C   UNL     1      31.850  -8.854 -21.848  0.00  0.00    +0.174 C 
BRANCH  18  20
ATOM     19  O   UNL     1      31.879  -6.522 -21.129  0.00  0.00    -0.249 OA
ATOM     20  C   UNL     1      32.192  -7.690 -20.949  0.00  0.00    +0.330 C 
BRANCH  20  21
ATOM     21  O   UNL     1      32.908  -8.114 -19.874  0.00  0.00    -0.479 OA
ATOM     22  H   UNL     1      33.791  -8.404 -19.985  0.00  0.00    +0.295 HD
ENDBRANCH  20  21
ENDBRANCH  18  20
BRANCH  18  23
ATOM     23  C   UNL     1      32.441  -8.659 -23.247  0.00  0.00    +0.029 C 
BRANCH  23  24
ATOM     24  C   UNL     1      33.983  -8.676 -23.308  0.00  0.00    +0.002 C 
ATOM     25  C   UNL     1      34.558  -7.363 -23.842  0.00  0.00    +0.000 C 
ATOM     26  C   UNL     1      34.453  -9.838 -24.186  0.00  0.00    +0.000 C 
ENDBRANCH  23  24
ENDBRANCH  18  23
ENDBRANCH  16  18
ENDBRANCH   1  16
TORSDOF 8
ENDMDL
MODEL 7
REMARK VINA RESULT:      -9.3      6.052     10.062
REMARK  Name = 25271580
REMARK  8 active torsions:
REMARK  status: ('A' for Active; 'I' for Inactive)
REMARK    1  A    between atoms: S_1  and  C_4
REMARK    2  A    between atoms: S_1  and  N_16
REMARK    3  A    between atoms: C_7  and  C_10
REMARK    4  A    between atoms: N_16  and  C_18
REMARK    5  A    between atoms: C_18  and  C_20
REMARK    6  A    between atoms: C_18  and  C_23
REMARK    7  A    between atoms: C_20  and  O_21
REMARK    8  A    between atoms: C_23  and  C_24
REMARK                            x       y       z     vdW  Elec       q    Type
REMARK                         _______ _______ _______ _____ _____    ______ ____
ROOT
ATOM      1  S   UNL     1      34.338 -15.878 -24.767  0.00  0.00    +0.061 S 
ATOM      2  O   UNL     1      35.522 -15.908 -25.603  0.00  0.00    -0.153 OA
ATOM      3  O   UNL     1      33.023 -16.036 -25.357  0.00  0.00    -0.153 OA
ENDROOT
BRANCH   1   4
ATOM      4  C   UNL     1      34.506 -17.139 -23.539  0.00  0.00    +0.122 C 
ATOM      5  C   UNL     1      34.519 -18.482 -23.915  0.00  0.00    +0.020 C 
ATOM      6  C   UNL     1      34.628 -16.789 -22.193  0.00  0.00    +0.020 C 
ATOM      7  C   UNL     1      34.774 -19.126 -21.601  0.00  0.00    +0.000 C 
ATOM      8  C   UNL     1      34.652 -19.476 -22.946  0.00  0.00    +0.001 C 
ATOM      9  C   UNL     1      34.762 -17.784 -21.224  0.00  0.00    +0.001 C 
BRANCH   7  10
ATOM     10  C   UNL     1      34.912 -20.158 -20.595  0.00  0.00    +0.000 C 
ATOM     11  C   UNL     1      36.175 -20.485 -20.100  0.00  0.00    +0.000 C 
ATOM     12  C   UNL     1      33.784 -20.826 -20.120  0.00  0.00    +0.000 C 
ATOM     13  C   UNL     1      36.310 -21.479 -19.132  0.00  0.00    +0.000 C 
ATOM     14  C   UNL     1      33.917 -21.820 -19.150  0.00  0.00    +0.000 C 
ATOM     15  C   UNL     1      35.180 -22.147 -18.657  0.00  0.00    +0.000 C 
ENDBRANCH   7  10
ENDBRANCH   1   4
BRANCH   1  16
ATOM     16  N   UNL     1      34.349 -14.466 -23.821  0.00  0.00    -0.170 NA
ATOM     17  H   UNL     1      35.212 -13.970 -24.042  0.00  0.00    +0.149 HD
BRANCH  16  18
ATOM     18  C   UNL     1      33.249 -13.485 -23.945  0.00  0.00    +0.174 C 
BRANCH  18  20
ATOM     19  O   UNL     1      32.251 -14.673 -22.060  0.00  0.00    -0.249 OA
ATOM     20  C   UNL     1      32.367 -13.657 -22.731  0.00  0.00    +0.330 C 
BRANCH  20  21
ATOM     21  O   UNL     1      31.700 -12.504 -22.460  0.00  0.00    -0.479 OA
ATOM     22  H   UNL     1      30.777 -12.451 -22.608  0.00  0.00    +0.295 HD
ENDBRANCH  20  21
ENDBRANCH  18  20
BRANCH  18  23
ATOM     23  C   UNL     1      33.820 -12.066 -24.009  0.00  0.00    +0.029 C 
BRANCH  23  24
ATOM     24  C   UNL     1      33.825 -11.431 -25.416  0.00  0.00    +0.002 C 
ATOM     25  C   UNL     1      33.662 -12.473 -26.524  0.00  0.00    +0.000 C 
ATOM     26  C   UNL     1      35.127 -10.653 -25.627  0.00  0.00    +0.000 C 
ENDBRANCH  23  24
ENDBRANCH  18  23
ENDBRANCH  16  18
ENDBRANCH   1  16
TORSDOF 8
ENDMDL
MODEL 8
REMARK VINA RESULT:      -9.3      5.101      7.818
REMARK  Name = 25271580
REMARK  8 active torsions:
REMARK  status: ('A' for Active; 'I' for Inactive)
REMARK    1  A    between atoms: S_1  and  C_4
REMARK    2  A    between atoms: S_1  and  N_16
REMARK    3  A    between atoms: C_7  and  C_10
REMARK    4  A    between atoms: N_16  and  C_18
REMARK    5  A    between atoms: C_18  and  C_20
REMARK    6  A    between atoms: C_18  and  C_23
REMARK    7  A    between atoms: C_20  and  O_21
REMARK    8  A    between atoms: C_23  and  C_24
REMARK                            x       y       z     vdW  Elec       q    Type
REMARK                         _______ _______ _______ _____ _____    ______ ____
ROOT
ATOM      1  S   UNL     1      36.963 -22.765 -15.811  0.00  0.00    +0.061 S 
ATOM      2  O   UNL     1      37.326 -22.162 -17.080  0.00  0.00    -0.153 OA
ATOM      3  O   UNL     1      37.299 -22.103 -14.566  0.00  0.00    -0.153 OA
ENDROOT
BRANCH   1   4
ATOM      4  C   UNL     1      35.213 -23.014 -15.807  0.00  0.00    +0.122 C 
ATOM      5  C   UNL     1      34.534 -23.178 -14.599  0.00  0.00    +0.020 C 
ATOM      6  C   UNL     1      34.510 -23.046 -17.012  0.00  0.00    +0.020 C 
ATOM      7  C   UNL     1      32.451 -23.405 -15.801  0.00  0.00    +0.000 C 
ATOM      8  C   UNL     1      33.154 -23.374 -14.596  0.00  0.00    +0.001 C 
ATOM      9  C   UNL     1      33.129 -23.241 -17.009  0.00  0.00    +0.001 C 
BRANCH   7  10
ATOM     10  C   UNL     1      31.019 -23.609 -15.798  0.00  0.00    +0.000 C 
ATOM     11  C   UNL     1      30.467 -24.675 -15.087  0.00  0.00    +0.000 C 
ATOM     12  C   UNL     1      30.188 -22.738 -16.503  0.00  0.00    +0.000 C 
ATOM     13  C   UNL     1      29.087 -24.872 -15.083  0.00  0.00    +0.000 C 
ATOM     14  C   UNL     1      28.807 -22.934 -16.499  0.00  0.00    +0.000 C 
ATOM     15  C   UNL     1      28.256 -24.001 -15.789  0.00  0.00    +0.000 C 
ENDBRANCH   7  10
ENDBRANCH   1   4
BRANCH   1  16
ATOM     16  N   UNL     1      37.542 -24.362 -15.759  0.00  0.00    -0.170 NA
ATOM     17  H   UNL     1      38.560 -24.307 -15.782  0.00  0.00    +0.149 HD
BRANCH  16  18
ATOM     18  C   UNL     1      37.187 -25.240 -14.621  0.00  0.00    +0.174 C 
BRANCH  18  20
ATOM     19  O   UNL     1      36.261 -27.076 -15.935  0.00  0.00    -0.249 OA
ATOM     20  C   UNL     1      37.104 -26.648 -15.161  0.00  0.00    +0.330 C 
BRANCH  20  21
ATOM     21  O   UNL     1      38.122 -27.405 -14.672  0.00  0.00    -0.479 OA
ATOM     22  H   UNL     1      38.807 -27.003 -14.176  0.00  0.00    +0.295 HD
ENDBRANCH  20  21
ENDBRANCH  18  20
BRANCH  18  23
ATOM     23  C   UNL     1      38.253 -25.134 -13.528  0.00  0.00    +0.029 C 
BRANCH  23  24
ATOM     24  C   UNL     1      37.707 -24.852 -12.113  0.00  0.00    +0.002 C 
ATOM     25  C   UNL     1      36.193 -25.048 -12.025  0.00  0.00    +0.000 C 
ATOM     26  C   UNL     1      38.066 -23.423 -11.696  0.00  0.00    +0.000 C 
ENDBRANCH  23  24
ENDBRANCH  18  23
ENDBRANCH  16  18
ENDBRANCH   1  16
TORSDOF 8
ENDMDL
MODEL 9
REMARK VINA RESULT:      -9.3      8.679     12.158
REMARK  Name = 25271580
REMARK  8 active torsions:
REMARK  status: ('A' for Active; 'I' for Inactive)
REMARK    1  A    between atoms: S_1  and  C_4
REMARK    2  A    between atoms: S_1  and  N_16
REMARK    3  A    between atoms: C_7  and  C_10
REMARK    4  A    between atoms: N_16  and  C_18
REMARK    5  A    between atoms: C_18  and  C_20
REMARK    6  A    between atoms: C_18  and  C_23
REMARK    7  A    between atoms: C_20  and  O_21
REMARK    8  A    between atoms: C_23  and  C_24
REMARK                            x       y       z     vdW  Elec       q    Type
REMARK                         _______ _______ _______ _____ _____    ______ ____
ROOT
ATOM      1  S   UNL     1      31.189 -11.005 -21.503  0.00  0.00    +0.061 S 
ATOM      2  O   UNL     1      30.308 -10.854 -22.644  0.00  0.00    -0.153 OA
ATOM      3  O   UNL     1      30.647 -11.025 -20.159  0.00  0.00    -0.153 OA
ENDROOT
BRANCH   1   4
ATOM      4  C   UNL     1      32.102 -12.505 -21.713  0.00  0.00    +0.122 C 
ATOM      5  C   UNL     1      32.570 -12.865 -22.977  0.00  0.00    +0.020 C 
ATOM      6  C   UNL     1      32.354 -13.327 -20.615  0.00  0.00    +0.020 C 
ATOM      7  C   UNL     1      33.542 -14.870 -22.045  0.00  0.00    +0.000 C 
ATOM      8  C   UNL     1      33.289 -14.047 -23.143  0.00  0.00    +0.001 C 
ATOM      9  C   UNL     1      33.075 -14.510 -20.781  0.00  0.00    +0.001 C 
BRANCH   7  10
ATOM     10  C   UNL     1      34.289 -16.097 -22.217  0.00  0.00    +0.000 C 
ATOM     11  C   UNL     1      34.774 -16.781 -21.102  0.00  0.00    +0.000 C 
ATOM     12  C   UNL     1      34.524 -16.598 -23.498  0.00  0.00    +0.000 C 
ATOM     13  C   UNL     1      35.494 -17.964 -21.267  0.00  0.00    +0.000 C 
ATOM     14  C   UNL     1      35.244 -17.781 -23.664  0.00  0.00    +0.000 C 
ATOM     15  C   UNL     1      35.729 -18.464 -22.549  0.00  0.00    +0.000 C 
ENDBRANCH   7  10
ENDBRANCH   1   4
BRANCH   1  16
ATOM     16  N   UNL     1      32.420  -9.835 -21.581  0.00  0.00    -0.170 NA
ATOM     17  H   UNL     1      32.819  -9.889 -22.518  0.00  0.00    +0.149 HD
BRANCH  16  18
ATOM     18  C   UNL     1      32.102  -8.411 -21.332  0.00  0.00    +0.174 C 
BRANCH  18  20
ATOM     19  O   UNL     1      32.898  -6.973 -19.527  0.00  0.00    -0.249 OA
ATOM     20  C   UNL     1      32.604  -8.084 -19.946  0.00  0.00    +0.330 C 
BRANCH  20  21
ATOM     21  O   UNL     1      32.685  -9.212 -19.192  0.00  0.00    -0.479 OA
ATOM     22  H   UNL     1      33.345  -9.850 -19.375  0.00  0.00    +0.295 HD
ENDBRANCH  20  21
ENDBRANCH  18  20
BRANCH  18  23
ATOM     23  C   UNL     1      32.786  -7.533 -22.384  0.00  0.00    +0.029 C 
BRANCH  23  24
ATOM     24  C   UNL     1      31.834  -6.627 -23.192  0.00  0.00    +0.002 C 
ATOM     25  C   UNL     1      30.948  -5.765 -22.291  0.00  0.00    +0.000 C 
ATOM     26  C   UNL     1      30.957  -7.485 -24.107  0.00  0.00    +0.000 C 
ENDBRANCH  23  24
ENDBRANCH  18  23
ENDBRANCH  16  18
ENDBRANCH   1  16
TORSDOF 8
ENDMDL
