MODEL 1
REMARK VINA RESULT:      -5.7      0.000      0.000
REMARK  Name = 71113
REMARK  5 active torsions:
REMARK  status: ('A' for Active; 'I' for Inactive)
REMARK    1  A    between atoms: C_1  and  C_4
REMARK    2  A    between atoms: C_1  and  C_7
REMARK    3  A    between atoms: C_1  and  C_10
REMARK    4  A    between atoms: C_7  and  C_8
REMARK    5  A    between atoms: C_10  and  C_11
REMARK                            x       y       z     vdW  Elec       q    Type
REMARK                         _______ _______ _______ _____ _____    ______ ____
ROOT
ATOM      1  C   UNL     1      35.293 -18.071 -21.541  0.00  0.00    +0.076 C 
ENDROOT
BRANCH   1   4
ATOM      2  O   UNL     1      34.986 -16.153 -20.074  0.00  0.00    -0.275 OA
ATOM      3  N   UNL     1      34.613 -15.873 -22.322  0.00  0.00    -0.329 N 
ATOM      4  C   UNL     1      34.950 -16.618 -21.212  0.00  0.00    +0.219 C 
ATOM      5  H   UNL     1      34.375 -14.924 -22.223  0.00  0.00    +0.145 HD
ATOM      6  H   UNL     1      34.611 -16.292 -23.213  0.00  0.00    +0.145 HD
ENDBRANCH   1   4
BRANCH   1   7
ATOM      7  C   UNL     1      35.835 -18.231 -22.972  0.00  0.00    +0.009 C 
BRANCH   7   8
ATOM      8  C   UNL     1      34.925 -19.103 -23.844  0.00  0.00    +0.000 C 
ATOM      9  C   UNL     1      34.387 -18.327 -25.036  0.00  0.00    +0.000 C 
ENDBRANCH   7   8
ENDBRANCH   1   7
BRANCH   1  10
ATOM     10  C   UNL     1      34.073 -18.978 -21.277  0.00  0.00    +0.009 C 
BRANCH  10  11
ATOM     11  C   UNL     1      34.374 -20.228 -20.442  0.00  0.00    +0.000 C 
ATOM     12  C   UNL     1      33.103 -20.808 -19.838  0.00  0.00    +0.000 C 
ENDBRANCH  10  11
ENDBRANCH   1  10
TORSDOF 5
ENDMDL
MODEL 2
REMARK VINA RESULT:      -5.6      0.706      3.551
REMARK  Name = 71113
REMARK  5 active torsions:
REMARK  status: ('A' for Active; 'I' for Inactive)
REMARK    1  A    between atoms: C_1  and  C_4
REMARK    2  A    between atoms: C_1  and  C_7
REMARK    3  A    between atoms: C_1  and  C_10
REMARK    4  A    between atoms: C_7  and  C_8
REMARK    5  A    between atoms: C_10  and  C_11
REMARK                            x       y       z     vdW  Elec       q    Type
REMARK                         _______ _______ _______ _____ _____    ______ ____
ROOT
ATOM      1  C   UNL     1      34.501 -18.277 -21.971  0.00  0.00    +0.076 C 
ENDROOT
BRANCH   1   4
ATOM      2  O   UNL     1      35.282 -16.720 -20.271  0.00  0.00    -0.275 OA
ATOM      3  N   UNL     1      34.780 -15.893 -22.353  0.00  0.00    -0.329 N 
ATOM      4  C   UNL     1      34.892 -16.904 -21.422  0.00  0.00    +0.219 C 
ATOM      5  H   UNL     1      35.007 -14.969 -22.104  0.00  0.00    +0.145 HD
ATOM      6  H   UNL     1      34.473 -16.097 -23.265  0.00  0.00    +0.145 HD
ENDBRANCH   1   4
BRANCH   1   7
ATOM      7  C   UNL     1      34.564 -19.373 -20.894  0.00  0.00    +0.009 C 
BRANCH   7   8
ATOM      8  C   UNL     1      33.190 -19.997 -20.619  0.00  0.00    +0.000 C 
ATOM      9  C   UNL     1      33.298 -21.182 -19.672  0.00  0.00    +0.000 C 
ENDBRANCH   7   8
ENDBRANCH   1   7
BRANCH   1  10
ATOM     10  C   UNL     1      35.365 -18.622 -23.203  0.00  0.00    +0.009 C 
BRANCH  10  11
ATOM     11  C   UNL     1      34.569 -18.926 -24.477  0.00  0.00    +0.000 C 
ATOM     12  C   UNL     1      34.382 -17.674 -25.322  0.00  0.00    +0.000 C 
ENDBRANCH  10  11
ENDBRANCH   1  10
TORSDOF 5
ENDMDL
MODEL 3
REMARK VINA RESULT:      -5.5      3.966      5.017
REMARK  Name = 71113
REMARK  5 active torsions:
REMARK  status: ('A' for Active; 'I' for Inactive)
REMARK    1  A    between atoms: C_1  and  C_4
REMARK    2  A    between atoms: C_1  and  C_7
REMARK    3  A    between atoms: C_1  and  C_10
REMARK    4  A    between atoms: C_7  and  C_8
REMARK    5  A    between atoms: C_10  and  C_11
REMARK                            x       y       z     vdW  Elec       q    Type
REMARK                         _______ _______ _______ _____ _____    ______ ____
ROOT
ATOM      1  C   UNL     1      34.218 -21.280 -19.464  0.00  0.00    +0.076 C 
ENDROOT
BRANCH   1   4
ATOM      2  O   UNL     1      33.904 -23.690 -19.322  0.00  0.00    -0.275 OA
ATOM      3  N   UNL     1      32.397 -22.332 -18.248  0.00  0.00    -0.329 N 
ATOM      4  C   UNL     1      33.511 -22.563 -19.025  0.00  0.00    +0.219 C 
ATOM      5  H   UNL     1      31.867 -23.090 -17.911  0.00  0.00    +0.145 HD
ATOM      6  H   UNL     1      32.131 -21.410 -18.030  0.00  0.00    +0.145 HD
ENDBRANCH   1   4
BRANCH   1   7
ATOM      7  C   UNL     1      33.403 -20.495 -20.507  0.00  0.00    +0.009 C 
BRANCH   7   8
ATOM      8  C   UNL     1      34.117 -19.216 -20.960  0.00  0.00    +0.000 C 
ATOM      9  C   UNL     1      34.477 -19.274 -22.436  0.00  0.00    +0.000 C 
ENDBRANCH   7   8
ENDBRANCH   1   7
BRANCH   1  10
ATOM     10  C   UNL     1      35.644 -21.601 -19.962  0.00  0.00    +0.009 C 
BRANCH  10  11
ATOM     11  C   UNL     1      36.768 -21.089 -19.055  0.00  0.00    +0.000 C 
ATOM     12  C   UNL     1      36.737 -21.776 -17.696  0.00  0.00    +0.000 C 
ENDBRANCH  10  11
ENDBRANCH   1  10
TORSDOF 5
ENDMDL
MODEL 4
REMARK VINA RESULT:      -5.5      2.016      3.883
REMARK  Name = 71113
REMARK  5 active torsions:
REMARK  status: ('A' for Active; 'I' for Inactive)
REMARK    1  A    between atoms: C_1  and  C_4
REMARK    2  A    between atoms: C_1  and  C_7
REMARK    3  A    between atoms: C_1  and  C_10
REMARK    4  A    between atoms: C_7  and  C_8
REMARK    5  A    between atoms: C_10  and  C_11
REMARK                            x       y       z     vdW  Elec       q    Type
REMARK                         _______ _______ _______ _____ _____    ______ ____
ROOT
ATOM      1  C   UNL     1      35.135 -18.185 -21.839  0.00  0.00    +0.076 C 
ENDROOT
BRANCH   1   4
ATOM      2  O   UNL     1      35.032 -19.336 -23.982  0.00  0.00    -0.275 OA
ATOM      3  N   UNL     1      35.467 -17.082 -23.979  0.00  0.00    -0.329 N 
ATOM      4  C   UNL     1      35.205 -18.288 -23.364  0.00  0.00    +0.219 C 
ATOM      5  H   UNL     1      35.534 -17.036 -24.960  0.00  0.00    +0.145 HD
ATOM      6  H   UNL     1      35.588 -16.270 -23.438  0.00  0.00    +0.145 HD
ENDBRANCH   1   4
BRANCH   1   7
ATOM      7  C   UNL     1      34.888 -19.551 -21.175  0.00  0.00    +0.009 C 
BRANCH   7   8
ATOM      8  C   UNL     1      33.413 -19.762 -20.812  0.00  0.00    +0.000 C 
ATOM      9  C   UNL     1      33.241 -20.917 -19.838  0.00  0.00    +0.000 C 
ENDBRANCH   7   8
ENDBRANCH   1   7
BRANCH   1  10
ATOM     10  C   UNL     1      34.078 -17.138 -21.426  0.00  0.00    +0.009 C 
BRANCH  10  11
ATOM     11  C   UNL     1      34.646 -15.904 -20.717  0.00  0.00    +0.000 C 
ATOM     12  C   UNL     1      33.649 -14.754 -20.726  0.00  0.00    +0.000 C 
ENDBRANCH  10  11
ENDBRANCH   1  10
TORSDOF 5
ENDMDL
MODEL 5
REMARK VINA RESULT:      -5.4      2.530      3.715
REMARK  Name = 71113
REMARK  5 active torsions:
REMARK  status: ('A' for Active; 'I' for Inactive)
REMARK    1  A    between atoms: C_1  and  C_4
REMARK    2  A    between atoms: C_1  and  C_7
REMARK    3  A    between atoms: C_1  and  C_10
REMARK    4  A    between atoms: C_7  and  C_8
REMARK    5  A    between atoms: C_10  and  C_11
REMARK                            x       y       z     vdW  Elec       q    Type
REMARK                         _______ _______ _______ _____ _____    ______ ____
ROOT
ATOM      1  C   UNL     1      34.776 -17.331 -23.315  0.00  0.00    +0.076 C 
ENDROOT
BRANCH   1   4
ATOM      2  O   UNL     1      34.831 -16.896 -25.710  0.00  0.00    -0.275 OA
ATOM      3  N   UNL     1      34.352 -19.027 -25.003  0.00  0.00    -0.329 N 
ATOM      4  C   UNL     1      34.657 -17.699 -24.795  0.00  0.00    +0.219 C 
ATOM      5  H   UNL     1      34.252 -19.371 -25.920  0.00  0.00    +0.145 HD
ATOM      6  H   UNL     1      34.233 -19.631 -24.235  0.00  0.00    +0.145 HD
ENDBRANCH   1   4
BRANCH   1   7
ATOM      7  C   UNL     1      34.926 -15.814 -23.104  0.00  0.00    +0.009 C 
BRANCH   7   8
ATOM      8  C   UNL     1      33.899 -15.262 -22.109  0.00  0.00    +0.000 C 
ATOM      9  C   UNL     1      34.466 -15.208 -20.698  0.00  0.00    +0.000 C 
ENDBRANCH   7   8
ENDBRANCH   1   7
BRANCH   1  10
ATOM     10  C   UNL     1      35.925 -18.126 -22.660  0.00  0.00    +0.009 C 
BRANCH  10  11
ATOM     11  C   UNL     1      35.586 -18.729 -21.292  0.00  0.00    +0.000 C 
ATOM     12  C   UNL     1      34.108 -19.078 -21.194  0.00  0.00    +0.000 C 
ENDBRANCH  10  11
ENDBRANCH   1  10
TORSDOF 5
ENDMDL
MODEL 6
REMARK VINA RESULT:      -5.4      2.074      3.005
REMARK  Name = 71113
REMARK  5 active torsions:
REMARK  status: ('A' for Active; 'I' for Inactive)
REMARK    1  A    between atoms: C_1  and  C_4
REMARK    2  A    between atoms: C_1  and  C_7
REMARK    3  A    between atoms: C_1  and  C_10
REMARK    4  A    between atoms: C_7  and  C_8
REMARK    5  A    between atoms: C_10  and  C_11
REMARK                            x       y       z     vdW  Elec       q    Type
REMARK                         _______ _______ _______ _____ _____    ______ ____
ROOT
ATOM      1  C   UNL     1      34.498 -17.935 -21.847  0.00  0.00    +0.076 C 
ENDROOT
BRANCH   1   4
ATOM      2  O   UNL     1      35.076 -18.940 -23.987  0.00  0.00    -0.275 OA
ATOM      3  N   UNL     1      35.528 -16.711 -23.676  0.00  0.00    -0.329 N 
ATOM      4  C   UNL     1      35.058 -17.942 -23.270  0.00  0.00    +0.219 C 
ATOM      5  H   UNL     1      35.910 -16.604 -24.576  0.00  0.00    +0.145 HD
ATOM      6  H   UNL     1      35.480 -15.940 -23.066  0.00  0.00    +0.145 HD
ENDBRANCH   1   4
BRANCH   1   7
ATOM      7  C   UNL     1      34.548 -16.535 -21.210  0.00  0.00    +0.009 C 
BRANCH   7   8
ATOM      8  C   UNL     1      33.150 -15.982 -20.910  0.00  0.00    +0.000 C 
ATOM      9  C   UNL     1      32.789 -14.845 -21.853  0.00  0.00    +0.000 C 
ENDBRANCH   7   8
ENDBRANCH   1   7
BRANCH   1  10
ATOM     10  C   UNL     1      35.220 -18.992 -20.985  0.00  0.00    +0.009 C 
BRANCH  10  11
ATOM     11  C   UNL     1      34.352 -20.188 -20.580  0.00  0.00    +0.000 C 
ATOM     12  C   UNL     1      32.870 -19.863 -20.706  0.00  0.00    +0.000 C 
ENDBRANCH  10  11
ENDBRANCH   1  10
TORSDOF 5
ENDMDL
MODEL 7
REMARK VINA RESULT:      -5.3      2.227      3.232
REMARK  Name = 71113
REMARK  5 active torsions:
REMARK  status: ('A' for Active; 'I' for Inactive)
REMARK    1  A    between atoms: C_1  and  C_4
REMARK    2  A    between atoms: C_1  and  C_7
REMARK    3  A    between atoms: C_1  and  C_10
REMARK    4  A    between atoms: C_7  and  C_8
REMARK    5  A    between atoms: C_10  and  C_11
REMARK                            x       y       z     vdW  Elec       q    Type
REMARK                         _______ _______ _______ _____ _____    ______ ____
ROOT
ATOM      1  C   UNL     1      34.476 -18.289 -21.854  0.00  0.00    +0.076 C 
ENDROOT
BRANCH   1   4
ATOM      2  O   UNL     1      33.052 -19.987 -20.847  0.00  0.00    -0.275 OA
ATOM      3  N   UNL     1      35.287 -19.996 -20.327  0.00  0.00    -0.329 N 
ATOM      4  C   UNL     1      34.173 -19.497 -20.967  0.00  0.00    +0.219 C 
ATOM      5  H   UNL     1      35.204 -20.774 -19.730  0.00  0.00    +0.145 HD
ATOM      6  H   UNL     1      36.165 -19.573 -20.465  0.00  0.00    +0.145 HD
ENDBRANCH   1   4
BRANCH   1   7
ATOM      7  C   UNL     1      35.394 -18.651 -23.035  0.00  0.00    +0.009 C 
BRANCH   7   8
ATOM      8  C   UNL     1      34.629 -18.733 -24.361  0.00  0.00    +0.000 C 
ATOM      9  C   UNL     1      34.590 -17.385 -25.065  0.00  0.00    +0.000 C 
ENDBRANCH   7   8
ENDBRANCH   1   7
BRANCH   1  10
ATOM     10  C   UNL     1      35.051 -17.136 -21.004  0.00  0.00    +0.009 C 
BRANCH  10  11
ATOM     11  C   UNL     1      34.452 -15.758 -21.307  0.00  0.00    +0.000 C 
ATOM     12  C   UNL     1      32.967 -15.716 -20.976  0.00  0.00    +0.000 C 
ENDBRANCH  10  11
ENDBRANCH   1  10
TORSDOF 5
ENDMDL
MODEL 8
REMARK VINA RESULT:      -5.3      2.582      3.817
REMARK  Name = 71113
REMARK  5 active torsions:
REMARK  status: ('A' for Active; 'I' for Inactive)
REMARK    1  A    between atoms: C_1  and  C_4
REMARK    2  A    between atoms: C_1  and  C_7
REMARK    3  A    between atoms: C_1  and  C_10
REMARK    4  A    between atoms: C_7  and  C_8
REMARK    5  A    between atoms: C_10  and  C_11
REMARK                            x       y       z     vdW  Elec       q    Type
REMARK                         _______ _______ _______ _____ _____    ______ ____
ROOT
ATOM      1  C   UNL     1      34.319 -16.554 -23.470  0.00  0.00    +0.076 C 
ENDROOT
BRANCH   1   4
ATOM      2  O   UNL     1      34.834 -16.916 -25.821  0.00  0.00    -0.275 OA
ATOM      3  N   UNL     1      33.389 -15.218 -25.274  0.00  0.00    -0.329 N 
ATOM      4  C   UNL     1      34.230 -16.267 -24.970  0.00  0.00    +0.219 C 
ATOM      5  H   UNL     1      33.260 -14.949 -26.212  0.00  0.00    +0.145 HD
ATOM      6  H   UNL     1      32.921 -14.738 -24.555  0.00  0.00    +0.145 HD
ENDBRANCH   1   4
BRANCH   1   7
ATOM      7  C   UNL     1      34.649 -15.290 -22.656  0.00  0.00    +0.009 C 
BRANCH   7   8
ATOM      8  C   UNL     1      34.381 -15.478 -21.158  0.00  0.00    +0.000 C 
ATOM      9  C   UNL     1      32.890 -15.527 -20.863  0.00  0.00    +0.000 C 
ENDBRANCH   7   8
ENDBRANCH   1   7
BRANCH   1  10
ATOM     10  C   UNL     1      35.323 -17.696 -23.205  0.00  0.00    +0.009 C 
BRANCH  10  11
ATOM     11  C   UNL     1      34.682 -19.068 -22.970  0.00  0.00    +0.000 C 
ATOM     12  C   UNL     1      34.308 -19.260 -21.507  0.00  0.00    +0.000 C 
ENDBRANCH  10  11
ENDBRANCH   1  10
TORSDOF 5
ENDMDL
MODEL 9
REMARK VINA RESULT:      -5.3      2.084      3.687
REMARK  Name = 71113
REMARK  5 active torsions:
REMARK  status: ('A' for Active; 'I' for Inactive)
REMARK    1  A    between atoms: C_1  and  C_4
REMARK    2  A    between atoms: C_1  and  C_7
REMARK    3  A    between atoms: C_1  and  C_10
REMARK    4  A    between atoms: C_7  and  C_8
REMARK    5  A    between atoms: C_10  and  C_11
REMARK                            x       y       z     vdW  Elec       q    Type
REMARK                         _______ _______ _______ _____ _____    ______ ____
ROOT
ATOM      1  C   UNL     1      35.075 -17.130 -21.592  0.00  0.00    +0.076 C 
ENDROOT
BRANCH   1   4
ATOM      2  O   UNL     1      35.242 -15.553 -23.440  0.00  0.00    -0.275 OA
ATOM      3  N   UNL     1      35.474 -17.791 -23.897  0.00  0.00    -0.329 N 
ATOM      4  C   UNL     1      35.262 -16.720 -23.054  0.00  0.00    +0.219 C 
ATOM      5  H   UNL     1      35.607 -17.639 -24.860  0.00  0.00    +0.145 HD
ATOM      6  H   UNL     1      35.492 -18.706 -23.535  0.00  0.00    +0.145 HD
ENDBRANCH   1   4
BRANCH   1   7
ATOM      7  C   UNL     1      34.163 -18.360 -21.446  0.00  0.00    +0.009 C 
BRANCH   7   8
ATOM      8  C   UNL     1      34.901 -19.563 -20.848  0.00  0.00    +0.000 C 
ATOM      9  C   UNL     1      36.398 -19.306 -20.755  0.00  0.00    +0.000 C 
ENDBRANCH   7   8
ENDBRANCH   1   7
BRANCH   1  10
ATOM     10  C   UNL     1      34.570 -15.929 -20.764  0.00  0.00    +0.009 C 
BRANCH  10  11
ATOM     11  C   UNL     1      33.048 -15.754 -20.758  0.00  0.00    +0.000 C 
ATOM     12  C   UNL     1      32.646 -14.393 -21.311  0.00  0.00    +0.000 C 
ENDBRANCH  10  11
ENDBRANCH   1  10
TORSDOF 5
ENDMDL
