MODEL 1
REMARK VINA RESULT:      -9.0      0.000      0.000
REMARK  Name = 28876
REMARK  5 active torsions:
REMARK  status: ('A' for Active; 'I' for Inactive)
REMARK    1  A    between atoms: N_1  and  C_4
REMARK    2  A    between atoms: N_1  and  O_17
REMARK    3  A    between atoms: O_17  and  C_18
REMARK    4  A    between atoms: C_18  and  C_19
REMARK    5  A    between atoms: C_19  and  N_20
REMARK                            x       y       z     vdW  Elec       q    Type
REMARK                         _______ _______ _______ _____ _____    ______ ____
ROOT
ATOM      1  C   UNL     1      34.285 -17.158 -21.290  0.00  0.00    +0.087 C 
ATOM      2  C   UNL     1      35.249 -19.487 -20.898  0.00  0.00    +0.016 C 
ATOM      3  C   UNL     1      35.124 -18.284 -21.751  0.00  0.00    +0.093 C 
ATOM      4  C   UNL     1      32.954 -17.331 -20.886  0.00  0.00    -0.013 C 
ATOM      5  C   UNL     1      34.132 -20.180 -20.412  0.00  0.00    +0.001 C 
ATOM      6  C   UNL     1      32.237 -18.611 -20.938  0.00  0.00    -0.004 C 
ATOM      7  C   UNL     1      32.744 -19.835 -20.736  0.00  0.00    -0.000 C 
ATOM      8  C   UNL     1      34.872 -15.884 -21.290  0.00  0.00    -0.016 C 
ATOM      9  C   UNL     1      36.548 -19.922 -20.591  0.00  0.00    +0.001 C 
ATOM     10  C   UNL     1      32.227 -16.196 -20.489  0.00  0.00    -0.004 C 
ATOM     11  C   UNL     1      34.350 -21.326 -19.629  0.00  0.00    +0.000 C 
ATOM     12  C   UNL     1      34.138 -14.774 -20.879  0.00  0.00    -0.004 C 
ATOM     13  C   UNL     1      36.741 -21.052 -19.800  0.00  0.00    +0.000 C 
ATOM     14  C   UNL     1      32.816 -14.930 -20.478  0.00  0.00    -0.001 C 
ATOM     15  C   UNL     1      35.641 -21.755 -19.320  0.00  0.00    +0.000 C 
ENDROOT
BRANCH   3  16
ATOM     16  N   UNL     1      35.774 -18.174 -22.866  0.00  0.00    -0.135 NA
BRANCH  16  17
ATOM     17  O   UNL     1      35.276 -19.130 -23.758  0.00  0.00    -0.239 OA
BRANCH  17  18
ATOM     18  C   UNL     1      34.308 -18.495 -24.581  0.00  0.00    +0.153 C 
BRANCH  18  19
ATOM     19  C   UNL     1      34.882 -17.182 -25.085  0.00  0.00    -0.046 C 
BRANCH  19  20
ATOM     20  N   UNL     1      34.023 -16.068 -24.710  0.00  0.00    +0.384 N 
ATOM     21  C   UNL     1      33.401 -15.469 -25.884  0.00  0.00    -0.106 C 
ATOM     22  H   UNL     1      34.583 -15.362 -24.231  0.00  0.00    -0.085 HD
ATOM     23  H   UNL     1      33.288 -16.417 -24.094  0.00  0.00    -0.085 HD
ENDBRANCH  19  20
ENDBRANCH  18  19
ENDBRANCH  17  18
ENDBRANCH  16  17
ENDBRANCH   3  16
TORSDOF 5
ENDMDL
MODEL 2
REMARK VINA RESULT:      -8.9      7.236     10.833
REMARK  Name = 28876
REMARK  5 active torsions:
REMARK  status: ('A' for Active; 'I' for Inactive)
REMARK    1  A    between atoms: N_1  and  C_4
REMARK    2  A    between atoms: N_1  and  O_17
REMARK    3  A    between atoms: O_17  and  C_18
REMARK    4  A    between atoms: C_18  and  C_19
REMARK    5  A    between atoms: C_19  and  N_20
REMARK                            x       y       z     vdW  Elec       q    Type
REMARK                         _______ _______ _______ _____ _____    ______ ____
ROOT
ATOM      1  C   UNL     1      31.862  -9.463 -21.824  0.00  0.00    +0.087 C 
ATOM      2  C   UNL     1      31.845  -7.293 -23.163  0.00  0.00    +0.016 C 
ATOM      3  C   UNL     1      32.280  -8.700 -23.018  0.00  0.00    +0.093 C 
ATOM      4  C   UNL     1      32.068  -8.990 -20.521  0.00  0.00    -0.013 C 
ATOM      5  C   UNL     1      32.054  -6.337 -22.161  0.00  0.00    +0.001 C 
ATOM      6  C   UNL     1      32.769  -7.740 -20.200  0.00  0.00    -0.004 C 
ATOM      7  C   UNL     1      32.765  -6.602 -20.905  0.00  0.00    -0.000 C 
ATOM      8  C   UNL     1      31.257 -10.710 -22.043  0.00  0.00    -0.016 C 
ATOM      9  C   UNL     1      31.211  -6.940 -24.365  0.00  0.00    +0.001 C 
ATOM     10  C   UNL     1      31.660  -9.798 -19.447  0.00  0.00    -0.004 C 
ATOM     11  C   UNL     1      31.628  -5.019 -22.399  0.00  0.00    +0.000 C 
ATOM     12  C   UNL     1      30.846 -11.490 -20.965  0.00  0.00    -0.004 C 
ATOM     13  C   UNL     1      30.783  -5.631 -24.574  0.00  0.00    +0.000 C 
ATOM     14  C   UNL     1      31.048 -11.034 -19.667  0.00  0.00    -0.001 C 
ATOM     15  C   UNL     1      30.993  -4.670 -23.592  0.00  0.00    +0.000 C 
ENDROOT
BRANCH   3  16
ATOM     16  N   UNL     1      32.975  -9.293 -23.937  0.00  0.00    -0.135 NA
BRANCH  16  17
ATOM     17  O   UNL     1      34.329  -9.163 -23.613  0.00  0.00    -0.239 OA
BRANCH  17  18
ATOM     18  C   UNL     1      35.081  -9.856 -24.597  0.00  0.00    +0.153 C 
BRANCH  18  19
ATOM     19  C   UNL     1      34.302 -11.087 -25.030  0.00  0.00    -0.046 C 
BRANCH  19  20
ATOM     20  N   UNL     1      34.197 -12.041 -23.936  0.00  0.00    +0.384 N 
ATOM     21  C   UNL     1      33.438 -13.218 -24.339  0.00  0.00    -0.106 C 
ATOM     22  H   UNL     1      33.728 -11.594 -23.148  0.00  0.00    -0.085 HD
ATOM     23  H   UNL     1      35.137 -12.335 -23.671  0.00  0.00    -0.085 HD
ENDBRANCH  19  20
ENDBRANCH  18  19
ENDBRANCH  17  18
ENDBRANCH  16  17
ENDBRANCH   3  16
TORSDOF 5
ENDMDL
MODEL 3
REMARK VINA RESULT:      -8.6      7.031      9.470
REMARK  Name = 28876
REMARK  5 active torsions:
REMARK  status: ('A' for Active; 'I' for Inactive)
REMARK    1  A    between atoms: N_1  and  C_4
REMARK    2  A    between atoms: N_1  and  O_17
REMARK    3  A    between atoms: O_17  and  C_18
REMARK    4  A    between atoms: C_18  and  C_19
REMARK    5  A    between atoms: C_19  and  N_20
REMARK                            x       y       z     vdW  Elec       q    Type
REMARK                         _______ _______ _______ _____ _____    ______ ____
ROOT
ATOM      1  C   UNL     1      35.402 -23.053 -16.125  0.00  0.00    +0.087 C 
ATOM      2  C   UNL     1      33.138 -23.622 -15.099  0.00  0.00    +0.016 C 
ATOM      3  C   UNL     1      34.558 -23.970 -15.333  0.00  0.00    +0.093 C 
ATOM      4  C   UNL     1      35.031 -22.602 -17.400  0.00  0.00    -0.013 C 
ATOM      5  C   UNL     1      32.263 -23.303 -16.146  0.00  0.00    +0.001 C 
ATOM      6  C   UNL     1      33.818 -23.034 -18.104  0.00  0.00    -0.004 C 
ATOM      7  C   UNL     1      32.629 -23.337 -17.566  0.00  0.00    -0.000 C 
ATOM      8  C   UNL     1      36.622 -22.657 -15.555  0.00  0.00    -0.016 C 
ATOM      9  C   UNL     1      32.689 -23.628 -13.770  0.00  0.00    +0.001 C 
ATOM     10  C   UNL     1      35.913 -21.752 -18.088  0.00  0.00    -0.004 C 
ATOM     11  C   UNL     1      30.926 -23.009 -15.828  0.00  0.00    +0.000 C 
ATOM     12  C   UNL     1      37.476 -21.802 -16.249  0.00  0.00    -0.004 C 
ATOM     13  C   UNL     1      31.363 -23.318 -13.476  0.00  0.00    +0.000 C 
ATOM     14  C   UNL     1      37.121 -21.350 -17.514  0.00  0.00    -0.001 C 
ATOM     15  C   UNL     1      30.481 -23.010 -14.506  0.00  0.00    +0.000 C 
ENDROOT
BRANCH   3  16
ATOM     16  N   UNL     1      35.088 -25.033 -14.817  0.00  0.00    -0.135 NA
BRANCH  16  17
ATOM     17  O   UNL     1      35.895 -25.635 -15.789  0.00  0.00    -0.239 OA
BRANCH  17  18
ATOM     18  C   UNL     1      36.647 -26.659 -15.157  0.00  0.00    +0.153 C 
BRANCH  18  19
ATOM     19  C   UNL     1      37.792 -26.021 -14.388  0.00  0.00    -0.046 C 
BRANCH  19  20
ATOM     20  N   UNL     1      38.777 -25.462 -15.302  0.00  0.00    +0.384 N 
ATOM     21  C   UNL     1      40.124 -25.587 -14.760  0.00  0.00    -0.106 C 
ATOM     22  H   UNL     1      38.568 -24.475 -15.454  0.00  0.00    -0.085 HD
ATOM     23  H   UNL     1      38.732 -25.976 -16.183  0.00  0.00    -0.085 HD
ENDBRANCH  19  20
ENDBRANCH  18  19
ENDBRANCH  17  18
ENDBRANCH  16  17
ENDBRANCH   3  16
TORSDOF 5
ENDMDL
MODEL 4
REMARK VINA RESULT:      -8.5      3.992      6.465
REMARK  Name = 28876
REMARK  5 active torsions:
REMARK  status: ('A' for Active; 'I' for Inactive)
REMARK    1  A    between atoms: N_1  and  C_4
REMARK    2  A    between atoms: N_1  and  O_17
REMARK    3  A    between atoms: O_17  and  C_18
REMARK    4  A    between atoms: C_18  and  C_19
REMARK    5  A    between atoms: C_19  and  N_20
REMARK                            x       y       z     vdW  Elec       q    Type
REMARK                         _______ _______ _______ _____ _____    ______ ____
ROOT
ATOM      1  C   UNL     1      33.605 -10.897 -23.656  0.00  0.00    +0.087 C 
ATOM      2  C   UNL     1      33.434 -13.242 -22.669  0.00  0.00    +0.016 C 
ATOM      3  C   UNL     1      33.536 -12.359 -23.852  0.00  0.00    +0.093 C 
ATOM      4  C   UNL     1      32.663 -10.197 -22.889  0.00  0.00    -0.013 C 
ATOM      5  C   UNL     1      32.451 -13.067 -21.686  0.00  0.00    +0.001 C 
ATOM      6  C   UNL     1      31.488 -10.816 -22.263  0.00  0.00    -0.004 C 
ATOM      7  C   UNL     1      31.396 -12.049 -21.748  0.00  0.00    -0.000 C 
ATOM      8  C   UNL     1      34.655 -10.217 -24.292  0.00  0.00    -0.016 C 
ATOM      9  C   UNL     1      34.370 -14.284 -22.565  0.00  0.00    +0.001 C 
ATOM     10  C   UNL     1      32.796  -8.803 -22.781  0.00  0.00    -0.004 C 
ATOM     11  C   UNL     1      32.418 -13.970 -20.610  0.00  0.00    +0.000 C 
ATOM     12  C   UNL     1      34.777  -8.836 -24.161  0.00  0.00    -0.004 C 
ATOM     13  C   UNL     1      34.328 -15.158 -21.482  0.00  0.00    +0.000 C 
ATOM     14  C   UNL     1      33.848  -8.129 -23.405  0.00  0.00    -0.001 C 
ATOM     15  C   UNL     1      33.352 -15.003 -20.505  0.00  0.00    +0.000 C 
ENDROOT
BRANCH   3  16
ATOM     16  N   UNL     1      33.618 -12.842 -25.052  0.00  0.00    -0.135 NA
BRANCH  16  17
ATOM     17  O   UNL     1      32.626 -13.818 -25.199  0.00  0.00    -0.239 OA
BRANCH  17  18
ATOM     18  C   UNL     1      32.820 -14.450 -26.455  0.00  0.00    +0.153 C 
BRANCH  18  19
ATOM     19  C   UNL     1      33.085 -15.928 -26.223  0.00  0.00    -0.046 C 
BRANCH  19  20
ATOM     20  N   UNL     1      34.230 -16.113 -25.343  0.00  0.00    +0.384 N 
ATOM     21  C   UNL     1      34.460 -17.527 -25.075  0.00  0.00    -0.106 C 
ATOM     22  H   UNL     1      34.054 -15.630 -24.462  0.00  0.00    -0.085 HD
ATOM     23  H   UNL     1      35.057 -15.729 -25.801  0.00  0.00    -0.085 HD
ENDBRANCH  19  20
ENDBRANCH  18  19
ENDBRANCH  17  18
ENDBRANCH  16  17
ENDBRANCH   3  16
TORSDOF 5
ENDMDL
MODEL 5
REMARK VINA RESULT:      -8.1      3.270      6.952
REMARK  Name = 28876
REMARK  5 active torsions:
REMARK  status: ('A' for Active; 'I' for Inactive)
REMARK    1  A    between atoms: N_1  and  C_4
REMARK    2  A    between atoms: N_1  and  O_17
REMARK    3  A    between atoms: O_17  and  C_18
REMARK    4  A    between atoms: C_18  and  C_19
REMARK    5  A    between atoms: C_19  and  N_20
REMARK                            x       y       z     vdW  Elec       q    Type
REMARK                         _______ _______ _______ _____ _____    ______ ____
ROOT
ATOM      1  C   UNL     1      32.753 -12.253 -22.469  0.00  0.00    +0.087 C 
ATOM      2  C   UNL     1      33.460 -13.474 -24.594  0.00  0.00    +0.016 C 
ATOM      3  C   UNL     1      33.565 -13.297 -23.128  0.00  0.00    +0.093 C 
ATOM      4  C   UNL     1      32.759 -10.918 -22.895  0.00  0.00    -0.013 C 
ATOM      5  C   UNL     1      33.628 -12.412 -25.491  0.00  0.00    +0.001 C 
ATOM      6  C   UNL     1      33.605 -10.402 -23.978  0.00  0.00    -0.004 C 
ATOM      7  C   UNL     1      33.980 -11.044 -25.092  0.00  0.00    -0.000 C 
ATOM      8  C   UNL     1      31.977 -12.649 -21.369  0.00  0.00    -0.016 C 
ATOM      9  C   UNL     1      33.186 -14.769 -25.063  0.00  0.00    +0.001 C 
ATOM     10  C   UNL     1      31.974  -9.991 -22.188  0.00  0.00    -0.004 C 
ATOM     11  C   UNL     1      33.534 -12.681 -26.867  0.00  0.00    +0.000 C 
ATOM     12  C   UNL     1      31.195 -11.717 -20.691  0.00  0.00    -0.004 C 
ATOM     13  C   UNL     1      33.082 -15.011 -26.431  0.00  0.00    +0.000 C 
ATOM     14  C   UNL     1      31.193 -10.388 -21.101  0.00  0.00    -0.001 C 
ATOM     15  C   UNL     1      33.257 -13.967 -27.333  0.00  0.00    +0.000 C 
ENDROOT
BRANCH   3  16
ATOM     16  N   UNL     1      34.313 -14.068 -22.404  0.00  0.00    -0.135 NA
BRANCH  16  17
ATOM     17  O   UNL     1      33.585 -15.224 -22.102  0.00  0.00    -0.239 OA
BRANCH  17  18
ATOM     18  C   UNL     1      34.334 -15.977 -21.160  0.00  0.00    +0.153 C 
BRANCH  18  19
ATOM     19  C   UNL     1      34.879 -17.217 -21.849  0.00  0.00    -0.046 C 
BRANCH  19  20
ATOM     20  N   UNL     1      35.455 -16.877 -23.141  0.00  0.00    +0.384 N 
ATOM     21  C   UNL     1      35.064 -17.845 -24.159  0.00  0.00    -0.106 C 
ATOM     22  H   UNL     1      36.472 -16.868 -23.061  0.00  0.00    -0.085 HD
ATOM     23  H   UNL     1      35.111 -15.957 -23.418  0.00  0.00    -0.085 HD
ENDBRANCH  19  20
ENDBRANCH  18  19
ENDBRANCH  17  18
ENDBRANCH  16  17
ENDBRANCH   3  16
TORSDOF 5
ENDMDL
MODEL 6
REMARK VINA RESULT:      -8.0      3.257      6.990
REMARK  Name = 28876
REMARK  5 active torsions:
REMARK  status: ('A' for Active; 'I' for Inactive)
REMARK    1  A    between atoms: N_1  and  C_4
REMARK    2  A    between atoms: N_1  and  O_17
REMARK    3  A    between atoms: O_17  and  C_18
REMARK    4  A    between atoms: C_18  and  C_19
REMARK    5  A    between atoms: C_19  and  N_20
REMARK                            x       y       z     vdW  Elec       q    Type
REMARK                         _______ _______ _______ _____ _____    ______ ____
ROOT
ATOM      1  C   UNL     1      34.085 -15.991 -23.416  0.00  0.00    +0.087 C 
ATOM      2  C   UNL     1      33.504 -13.668 -24.292  0.00  0.00    +0.016 C 
ATOM      3  C   UNL     1      33.301 -14.745 -23.298  0.00  0.00    +0.093 C 
ATOM      4  C   UNL     1      34.135 -16.737 -24.602  0.00  0.00    -0.013 C 
ATOM      5  C   UNL     1      33.418 -13.896 -25.672  0.00  0.00    +0.001 C 
ATOM      6  C   UNL     1      33.375 -16.407 -25.814  0.00  0.00    -0.004 C 
ATOM      7  C   UNL     1      33.065 -15.187 -26.273  0.00  0.00    -0.000 C 
ATOM      8  C   UNL     1      34.776 -16.421 -22.273  0.00  0.00    -0.016 C 
ATOM      9  C   UNL     1      33.784 -12.385 -23.797  0.00  0.00    +0.001 C 
ATOM     10  C   UNL     1      34.887 -17.924 -24.611  0.00  0.00    -0.004 C 
ATOM     11  C   UNL     1      33.602 -12.806 -26.539  0.00  0.00    +0.000 C 
ATOM     12  C   UNL     1      35.528 -17.593 -22.307  0.00  0.00    -0.004 C 
ATOM     13  C   UNL     1      33.978 -11.321 -24.676  0.00  0.00    +0.000 C 
ATOM     14  C   UNL     1      35.583 -18.344 -23.476  0.00  0.00    -0.001 C 
ATOM     15  C   UNL     1      33.885 -11.531 -26.047  0.00  0.00    +0.000 C 
ENDROOT
BRANCH   3  16
ATOM     16  N   UNL     1      32.491 -14.600 -22.297  0.00  0.00    -0.135 NA
BRANCH  16  17
ATOM     17  O   UNL     1      33.158 -13.890 -21.294  0.00  0.00    -0.239 OA
BRANCH  17  18
ATOM     18  C   UNL     1      32.200 -13.511 -20.317  0.00  0.00    +0.153 C 
BRANCH  18  19
ATOM     19  C   UNL     1      31.841 -12.049 -20.525  0.00  0.00    -0.046 C 
BRANCH  19  20
ATOM     20  N   UNL     1      31.041 -11.882 -21.729  0.00  0.00    +0.384 N 
ATOM     21  C   UNL     1      31.067 -10.499 -22.187  0.00  0.00    -0.106 C 
ATOM     22  H   UNL     1      30.077 -12.150 -21.528  0.00  0.00    -0.085 HD
ATOM     23  H   UNL     1      31.429 -12.475 -22.463  0.00  0.00    -0.085 HD
ENDBRANCH  19  20
ENDBRANCH  18  19
ENDBRANCH  17  18
ENDBRANCH  16  17
ENDBRANCH   3  16
TORSDOF 5
ENDMDL
MODEL 7
REMARK VINA RESULT:      -8.0      6.085      9.127
REMARK  Name = 28876
REMARK  5 active torsions:
REMARK  status: ('A' for Active; 'I' for Inactive)
REMARK    1  A    between atoms: N_1  and  C_4
REMARK    2  A    between atoms: N_1  and  O_17
REMARK    3  A    between atoms: O_17  and  C_18
REMARK    4  A    between atoms: C_18  and  C_19
REMARK    5  A    between atoms: C_19  and  N_20
REMARK                            x       y       z     vdW  Elec       q    Type
REMARK                         _______ _______ _______ _____ _____    ______ ____
ROOT
ATOM      1  C   UNL     1      34.901 -22.724 -17.125  0.00  0.00    +0.087 C 
ATOM      2  C   UNL     1      36.036 -24.144 -15.337  0.00  0.00    +0.016 C 
ATOM      3  C   UNL     1      34.899 -23.299 -15.765  0.00  0.00    +0.093 C 
ATOM      4  C   UNL     1      35.980 -21.982 -17.626  0.00  0.00    -0.013 C 
ATOM      5  C   UNL     1      37.366 -23.715 -15.434  0.00  0.00    +0.001 C 
ATOM      6  C   UNL     1      37.176 -21.642 -16.846  0.00  0.00    -0.004 C 
ATOM      7  C   UNL     1      37.771 -22.386 -15.904  0.00  0.00    -0.000 C 
ATOM      8  C   UNL     1      33.754 -22.934 -17.907  0.00  0.00    -0.016 C 
ATOM      9  C   UNL     1      35.731 -25.411 -14.816  0.00  0.00    +0.001 C 
ATOM     10  C   UNL     1      35.878 -21.452 -18.923  0.00  0.00    -0.004 C 
ATOM     11  C   UNL     1      38.378 -24.578 -14.981  0.00  0.00    +0.000 C 
ATOM     12  C   UNL     1      33.680 -22.412 -19.197  0.00  0.00    -0.004 C 
ATOM     13  C   UNL     1      36.751 -26.257 -14.386  0.00  0.00    +0.000 C 
ATOM     14  C   UNL     1      34.742 -21.672 -19.704  0.00  0.00    -0.001 C 
ATOM     15  C   UNL     1      38.074 -25.840 -14.468  0.00  0.00    +0.000 C 
ENDROOT
BRANCH   3  16
ATOM     16  N   UNL     1      33.879 -23.094 -14.992  0.00  0.00    -0.135 NA
BRANCH  16  17
ATOM     17  O   UNL     1      33.002 -24.175 -15.131  0.00  0.00    -0.239 OA
BRANCH  17  18
ATOM     18  C   UNL     1      31.759 -23.803 -14.554  0.00  0.00    +0.153 C 
BRANCH  18  19
ATOM     19  C   UNL     1      31.254 -24.954 -13.699  0.00  0.00    -0.046 C 
BRANCH  19  20
ATOM     20  N   UNL     1      29.925 -25.367 -14.126  0.00  0.00    +0.384 N 
ATOM     21  C   UNL     1      29.488 -24.604 -15.288  0.00  0.00    -0.106 C 
ATOM     22  H   UNL     1      29.268 -25.215 -13.360  0.00  0.00    -0.085 HD
ATOM     23  H   UNL     1      29.957 -26.355 -14.378  0.00  0.00    -0.085 HD
ENDBRANCH  19  20
ENDBRANCH  18  19
ENDBRANCH  17  18
ENDBRANCH  16  17
ENDBRANCH   3  16
TORSDOF 5
ENDMDL
MODEL 8
REMARK VINA RESULT:      -7.7      4.141      7.655
REMARK  Name = 28876
REMARK  5 active torsions:
REMARK  status: ('A' for Active; 'I' for Inactive)
REMARK    1  A    between atoms: N_1  and  C_4
REMARK    2  A    between atoms: N_1  and  O_17
REMARK    3  A    between atoms: O_17  and  C_18
REMARK    4  A    between atoms: C_18  and  C_19
REMARK    5  A    between atoms: C_19  and  N_20
REMARK                            x       y       z     vdW  Elec       q    Type
REMARK                         _______ _______ _______ _____ _____    ______ ____
ROOT
ATOM      1  C   UNL     1      33.630 -14.665 -22.326  0.00  0.00    +0.087 C 
ATOM      2  C   UNL     1      33.365 -12.508 -23.661  0.00  0.00    +0.016 C 
ATOM      3  C   UNL     1      32.878 -13.425 -22.606  0.00  0.00    +0.093 C 
ATOM      4  C   UNL     1      33.970 -15.580 -23.332  0.00  0.00    -0.013 C 
ATOM      5  C   UNL     1      33.640 -12.943 -24.964  0.00  0.00    +0.001 C 
ATOM      6  C   UNL     1      33.566 -15.447 -24.737  0.00  0.00    -0.004 C 
ATOM      7  C   UNL     1      33.423 -14.315 -25.437  0.00  0.00    -0.000 C 
ATOM      8  C   UNL     1      33.983 -14.908 -20.990  0.00  0.00    -0.016 C 
ATOM      9  C   UNL     1      33.541 -11.161 -23.306  0.00  0.00    +0.001 C 
ATOM     10  C   UNL     1      34.664 -16.745 -22.964  0.00  0.00    -0.004 C 
ATOM     11  C   UNL     1      34.076 -11.995 -25.904  0.00  0.00    +0.000 C 
ATOM     12  C   UNL     1      34.684 -16.062 -20.649  0.00  0.00    -0.004 C 
ATOM     13  C   UNL     1      33.989 -10.240 -24.250  0.00  0.00    +0.000 C 
ATOM     14  C   UNL     1      35.025 -16.980 -21.635  0.00  0.00    -0.001 C 
ATOM     15  C   UNL     1      34.256 -10.657 -25.550  0.00  0.00    +0.000 C 
ENDROOT
BRANCH   3  16
ATOM     16  N   UNL     1      31.836 -13.141 -21.890  0.00  0.00    -0.135 NA
BRANCH  16  17
ATOM     17  O   UNL     1      32.266 -12.459 -20.746  0.00  0.00    -0.239 OA
BRANCH  17  18
ATOM     18  C   UNL     1      31.351 -11.402 -20.499  0.00  0.00    +0.153 C 
BRANCH  18  19
ATOM     19  C   UNL     1      31.605 -10.851 -19.107  0.00  0.00    -0.046 C 
BRANCH  19  20
ATOM     20  N   UNL     1      32.068  -9.473 -19.175  0.00  0.00    +0.384 N 
ATOM     21  C   UNL     1      32.117  -9.006 -20.555  0.00  0.00    -0.106 C 
ATOM     22  H   UNL     1      33.002  -9.414 -18.769  0.00  0.00    -0.085 HD
ATOM     23  H   UNL     1      31.416  -8.884 -18.656  0.00  0.00    -0.085 HD
ENDBRANCH  19  20
ENDBRANCH  18  19
ENDBRANCH  17  18
ENDBRANCH  16  17
ENDBRANCH   3  16
TORSDOF 5
ENDMDL
MODEL 9
REMARK VINA RESULT:      -7.6      8.220     11.337
REMARK  Name = 28876
REMARK  5 active torsions:
REMARK  status: ('A' for Active; 'I' for Inactive)
REMARK    1  A    between atoms: N_1  and  C_4
REMARK    2  A    between atoms: N_1  and  O_17
REMARK    3  A    between atoms: O_17  and  C_18
REMARK    4  A    between atoms: C_18  and  C_19
REMARK    5  A    between atoms: C_19  and  N_20
REMARK                            x       y       z     vdW  Elec       q    Type
REMARK                         _______ _______ _______ _____ _____    ______ ____
ROOT
ATOM      1  C   UNL     1      32.240  -6.506 -23.911  0.00  0.00    +0.087 C 
ATOM      2  C   UNL     1      32.740  -8.908 -23.214  0.00  0.00    +0.016 C 
ATOM      3  C   UNL     1      32.292  -7.542 -22.859  0.00  0.00    +0.093 C 
ATOM      4  C   UNL     1      33.337  -6.215 -24.733  0.00  0.00    -0.013 C 
ATOM      5  C   UNL     1      33.951  -9.151 -23.876  0.00  0.00    +0.001 C 
ATOM      6  C   UNL     1      34.656  -6.848 -24.601  0.00  0.00    -0.004 C 
ATOM      7  C   UNL     1      34.919  -8.108 -24.231  0.00  0.00    -0.000 C 
ATOM      8  C   UNL     1      31.038  -5.796 -24.047  0.00  0.00    -0.016 C 
ATOM      9  C   UNL     1      31.898  -9.971 -22.852  0.00  0.00    +0.001 C 
ATOM     10  C   UNL     1      33.201  -5.194 -25.688  0.00  0.00    -0.004 C 
ATOM     11  C   UNL     1      34.303 -10.483 -24.149  0.00  0.00    +0.000 C 
ATOM     12  C   UNL     1      30.919  -4.796 -25.010  0.00  0.00    -0.004 C 
ATOM     13  C   UNL     1      32.260 -11.284 -23.147  0.00  0.00    +0.000 C 
ATOM     14  C   UNL     1      32.000  -4.496 -25.830  0.00  0.00    -0.001 C 
ATOM     15  C   UNL     1      33.463 -11.540 -23.794  0.00  0.00    +0.000 C 
ENDROOT
BRANCH   3  16
ATOM     16  N   UNL     1      31.896  -7.249 -21.661  0.00  0.00    -0.135 NA
BRANCH  16  17
ATOM     17  O   UNL     1      32.988  -7.383 -20.795  0.00  0.00    -0.239 OA
BRANCH  17  18
ATOM     18  C   UNL     1      32.481  -7.592 -19.486  0.00  0.00    +0.153 C 
BRANCH  18  19
ATOM     19  C   UNL     1      31.573  -8.810 -19.502  0.00  0.00    -0.046 C 
BRANCH  19  20
ATOM     20  N   UNL     1      32.280  -9.986 -19.018  0.00  0.00    +0.384 N 
ATOM     21  C   UNL     1      31.575 -11.208 -19.383  0.00  0.00    -0.106 C 
ATOM     22  H   UNL     1      32.357  -9.935 -18.002  0.00  0.00    -0.085 HD
ATOM     23  H   UNL     1      33.207 -10.006 -19.444  0.00  0.00    -0.085 HD
ENDBRANCH  19  20
ENDBRANCH  18  19
ENDBRANCH  17  18
ENDBRANCH  16  17
ENDBRANCH   3  16
TORSDOF 5
ENDMDL
