MODEL 1
REMARK VINA RESULT:      -9.6      0.000      0.000
REMARK  Name = 656965
REMARK  5 active torsions:
REMARK  status: ('A' for Active; 'I' for Inactive)
REMARK    1  A    between atoms: N_1  and  C_8
REMARK    2  A    between atoms: C_4  and  C_17
REMARK    3  A    between atoms: C_13  and  O_14
REMARK    4  A    between atoms: C_17  and  O_18
REMARK    5  A    between atoms: O_18  and  C_19
REMARK                            x       y       z     vdW  Elec       q    Type
REMARK                         _______ _______ _______ _____ _____    ______ ____
ROOT
ATOM      1  N   UNL     1      34.591 -18.191 -21.828  0.00  0.00    -0.234 N 
ATOM      2  N   UNL     1      34.544 -16.968 -21.257  0.00  0.00    -0.170 NA
ATOM      3  C   UNL     1      34.573 -18.143 -23.198  0.00  0.00    +0.068 A 
ATOM      4  C   UNL     1      34.509 -16.813 -23.535  0.00  0.00    +0.104 A 
ATOM      5  C   UNL     1      34.494 -16.137 -22.301  0.00  0.00    +0.087 A 
ATOM      6  C   UNL     1      34.617 -19.355 -24.042  0.00  0.00    +0.052 C 
ATOM      7  C   UNL     1      34.432 -14.683 -22.068  0.00  0.00    +0.054 C 
ENDROOT
BRANCH   1   8
ATOM      8  C   UNL     1      34.653 -19.326 -21.039  0.00  0.00    +0.083 C 
ATOM      9  C   UNL     1      33.477 -19.946 -20.618  0.00  0.00    +0.022 C 
ATOM     10  C   UNL     1      35.890 -19.848 -20.664  0.00  0.00    +0.022 C 
ATOM     11  C   UNL     1      33.539 -21.090 -19.822  0.00  0.00    +0.038 C 
ATOM     12  C   UNL     1      35.952 -20.992 -19.868  0.00  0.00    +0.038 C 
ATOM     13  C   UNL     1      34.776 -21.613 -19.448  0.00  0.00    +0.139 C 
BRANCH  13  14
ATOM     14  O   UNL     1      34.837 -22.729 -18.670  0.00  0.00    -0.471 OA
ATOM     15  C   UNL     1      33.706 -23.009 -17.847  0.00  0.00    +0.252 C 
ENDBRANCH  13  14
ENDBRANCH   1   8
BRANCH   4  17
ATOM     16  O   UNL     1      35.164 -16.703 -25.810  0.00  0.00    -0.245 OA
ATOM     17  C   UNL     1      34.469 -16.282 -24.865  0.00  0.00    +0.344 C 
BRANCH  17  18
ATOM     18  O   UNL     1      33.577 -15.240 -25.035  0.00  0.00    -0.445 OA
BRANCH  18  19
ATOM     19  C   UNL     1      32.975 -15.096 -26.326  0.00  0.00    +0.209 C 
ATOM     20  C   UNL     1      33.125 -13.660 -26.783  0.00  0.00    +0.051 C 
ENDBRANCH  18  19
ENDBRANCH  17  18
ENDBRANCH   4  17
TORSDOF 5
ENDMDL
MODEL 2
REMARK VINA RESULT:      -9.3      1.813      7.429
REMARK  Name = 656965
REMARK  5 active torsions:
REMARK  status: ('A' for Active; 'I' for Inactive)
REMARK    1  A    between atoms: N_1  and  C_8
REMARK    2  A    between atoms: C_4  and  C_17
REMARK    3  A    between atoms: C_13  and  O_14
REMARK    4  A    between atoms: C_17  and  O_18
REMARK    5  A    between atoms: O_18  and  C_19
REMARK                            x       y       z     vdW  Elec       q    Type
REMARK                         _______ _______ _______ _____ _____    ______ ____
ROOT
ATOM      1  N   UNL     1      35.013 -19.501 -20.695  0.00  0.00    -0.234 N 
ATOM      2  N   UNL     1      36.161 -19.882 -20.097  0.00  0.00    -0.170 NA
ATOM      3  C   UNL     1      33.973 -20.363 -20.459  0.00  0.00    +0.068 A 
ATOM      4  C   UNL     1      34.477 -21.362 -19.662  0.00  0.00    +0.104 A 
ATOM      5  C   UNL     1      35.827 -21.014 -19.471  0.00  0.00    +0.087 A 
ATOM      6  C   UNL     1      32.618 -20.154 -21.009  0.00  0.00    +0.052 C 
ATOM      7  C   UNL     1      36.846 -21.740 -18.692  0.00  0.00    +0.054 C 
ENDROOT
BRANCH   1   8
ATOM      8  C   UNL     1      34.973 -18.343 -21.451  0.00  0.00    +0.083 C 
ATOM      9  C   UNL     1      35.127 -18.409 -22.836  0.00  0.00    +0.022 C 
ATOM     10  C   UNL     1      34.780 -17.110 -20.829  0.00  0.00    +0.022 C 
ATOM     11  C   UNL     1      35.088 -17.241 -23.597  0.00  0.00    +0.038 C 
ATOM     12  C   UNL     1      34.741 -15.942 -21.590  0.00  0.00    +0.038 C 
ATOM     13  C   UNL     1      34.894 -16.008 -22.975  0.00  0.00    +0.139 C 
BRANCH  13  14
ATOM     14  O   UNL     1      34.856 -14.869 -23.719  0.00  0.00    -0.471 OA
ATOM     15  C   UNL     1      34.003 -13.822 -23.261  0.00  0.00    +0.252 C 
ENDBRANCH  13  14
ENDBRANCH   1   8
BRANCH   4  17
ATOM     16  O   UNL     1      33.936 -23.665 -19.526  0.00  0.00    -0.245 OA
ATOM     17  C   UNL     1      33.747 -22.489 -19.161  0.00  0.00    +0.344 C 
BRANCH  17  18
ATOM     18  O   UNL     1      32.790 -22.172 -18.216  0.00  0.00    -0.445 OA
BRANCH  18  19
ATOM     19  C   UNL     1      32.629 -23.077 -17.118  0.00  0.00    +0.209 C 
ATOM     20  C   UNL     1      31.231 -22.926 -16.555  0.00  0.00    +0.051 C 
ENDBRANCH  18  19
ENDBRANCH  17  18
ENDBRANCH   4  17
TORSDOF 5
ENDMDL
MODEL 3
REMARK VINA RESULT:      -9.0      1.144      1.999
REMARK  Name = 656965
REMARK  5 active torsions:
REMARK  status: ('A' for Active; 'I' for Inactive)
REMARK    1  A    between atoms: N_1  and  C_8
REMARK    2  A    between atoms: C_4  and  C_17
REMARK    3  A    between atoms: C_13  and  O_14
REMARK    4  A    between atoms: C_17  and  O_18
REMARK    5  A    between atoms: O_18  and  C_19
REMARK                            x       y       z     vdW  Elec       q    Type
REMARK                         _______ _______ _______ _____ _____    ______ ____
ROOT
ATOM      1  N   UNL     1      34.552 -18.491 -22.146  0.00  0.00    -0.234 N 
ATOM      2  N   UNL     1      34.712 -18.757 -23.460  0.00  0.00    -0.170 NA
ATOM      3  C   UNL     1      34.323 -17.164 -21.890  0.00  0.00    +0.068 A 
ATOM      4  C   UNL     1      34.336 -16.531 -23.109  0.00  0.00    +0.104 A 
ATOM      5  C   UNL     1      34.579 -17.560 -24.038  0.00  0.00    +0.087 A 
ATOM      6  C   UNL     1      34.117 -16.635 -20.526  0.00  0.00    +0.052 C 
ATOM      7  C   UNL     1      34.694 -17.447 -25.503  0.00  0.00    +0.054 C 
ENDROOT
BRANCH   1   8
ATOM      8  C   UNL     1      34.625 -19.513 -21.216  0.00  0.00    +0.083 C 
ATOM      9  C   UNL     1      33.456 -20.087 -20.717  0.00  0.00    +0.022 C 
ATOM     10  C   UNL     1      35.868 -19.968 -20.775  0.00  0.00    +0.022 C 
ATOM     11  C   UNL     1      33.530 -21.116 -19.779  0.00  0.00    +0.038 C 
ATOM     12  C   UNL     1      35.943 -20.997 -19.837  0.00  0.00    +0.038 C 
ATOM     13  C   UNL     1      34.773 -21.572 -19.339  0.00  0.00    +0.139 C 
BRANCH  13  14
ATOM     14  O   UNL     1      34.845 -22.576 -18.423  0.00  0.00    -0.471 OA
ATOM     15  C   UNL     1      33.624 -22.983 -17.808  0.00  0.00    +0.252 C 
ENDBRANCH  13  14
ENDBRANCH   1   8
BRANCH   4  17
ATOM     16  O   UNL     1      34.888 -14.238 -22.891  0.00  0.00    -0.245 OA
ATOM     17  C   UNL     1      34.139 -15.130 -23.333  0.00  0.00    +0.344 C 
BRANCH  17  18
ATOM     18  O   UNL     1      33.028 -14.826 -24.096  0.00  0.00    -0.445 OA
BRANCH  18  19
ATOM     19  C   UNL     1      33.163 -13.776 -25.060  0.00  0.00    +0.209 C 
ATOM     20  C   UNL     1      32.975 -14.353 -26.448  0.00  0.00    +0.051 C 
ENDBRANCH  18  19
ENDBRANCH  17  18
ENDBRANCH   4  17
TORSDOF 5
ENDMDL
MODEL 4
REMARK VINA RESULT:      -8.8      2.003      3.365
REMARK  Name = 656965
REMARK  5 active torsions:
REMARK  status: ('A' for Active; 'I' for Inactive)
REMARK    1  A    between atoms: N_1  and  C_8
REMARK    2  A    between atoms: C_4  and  C_17
REMARK    3  A    between atoms: C_13  and  O_14
REMARK    4  A    between atoms: C_17  and  O_18
REMARK    5  A    between atoms: O_18  and  C_19
REMARK                            x       y       z     vdW  Elec       q    Type
REMARK                         _______ _______ _______ _____ _____    ______ ____
ROOT
ATOM      1  N   UNL     1      34.492 -17.012 -22.616  0.00  0.00    -0.234 N 
ATOM      2  N   UNL     1      34.355 -17.124 -23.955  0.00  0.00    -0.170 NA
ATOM      3  C   UNL     1      34.178 -15.762 -22.148  0.00  0.00    +0.068 A 
ATOM      4  C   UNL     1      33.817 -15.020 -23.246  0.00  0.00    +0.104 A 
ATOM      5  C   UNL     1      33.945 -15.909 -24.329  0.00  0.00    +0.087 A 
ATOM      6  C   UNL     1      34.252 -15.402 -20.717  0.00  0.00    +0.052 C 
ATOM      7  C   UNL     1      33.684 -15.640 -25.755  0.00  0.00    +0.054 C 
ENDROOT
BRANCH   1   8
ATOM      8  C   UNL     1      34.910 -18.097 -21.867  0.00  0.00    +0.083 C 
ATOM      9  C   UNL     1      36.272 -18.322 -21.665  0.00  0.00    +0.022 C 
ATOM     10  C   UNL     1      33.970 -18.967 -21.314  0.00  0.00    +0.022 C 
ATOM     11  C   UNL     1      36.693 -19.416 -20.910  0.00  0.00    +0.038 C 
ATOM     12  C   UNL     1      34.391 -20.061 -20.560  0.00  0.00    +0.038 C 
ATOM     13  C   UNL     1      35.753 -20.286 -20.356  0.00  0.00    +0.139 C 
BRANCH  13  14
ATOM     14  O   UNL     1      36.164 -21.354 -19.621  0.00  0.00    -0.471 OA
ATOM     15  C   UNL     1      35.158 -22.096 -18.934  0.00  0.00    +0.252 C 
ENDBRANCH  13  14
ENDBRANCH   1   8
BRANCH   4  17
ATOM     16  O   UNL     1      34.059 -12.719 -23.755  0.00  0.00    -0.245 OA
ATOM     17  C   UNL     1      33.409 -13.647 -23.237  0.00  0.00    +0.344 C 
BRANCH  17  18
ATOM     18  O   UNL     1      32.208 -13.415 -22.594  0.00  0.00    -0.445 OA
BRANCH  18  19
ATOM     19  C   UNL     1      31.895 -12.058 -22.260  0.00  0.00    +0.209 C 
ATOM     20  C   UNL     1      31.660 -11.958 -20.768  0.00  0.00    +0.051 C 
ENDBRANCH  18  19
ENDBRANCH  17  18
ENDBRANCH   4  17
TORSDOF 5
ENDMDL
MODEL 5
REMARK VINA RESULT:      -8.8      4.429      7.188
REMARK  Name = 656965
REMARK  5 active torsions:
REMARK  status: ('A' for Active; 'I' for Inactive)
REMARK    1  A    between atoms: N_1  and  C_8
REMARK    2  A    between atoms: C_4  and  C_17
REMARK    3  A    between atoms: C_13  and  O_14
REMARK    4  A    between atoms: C_17  and  O_18
REMARK    5  A    between atoms: O_18  and  C_19
REMARK                            x       y       z     vdW  Elec       q    Type
REMARK                         _______ _______ _______ _____ _____    ______ ____
ROOT
ATOM      1  N   UNL     1      32.790 -12.769 -23.250  0.00  0.00    -0.234 N 
ATOM      2  N   UNL     1      31.986 -12.850 -22.168  0.00  0.00    -0.170 NA
ATOM      3  C   UNL     1      33.010 -11.479 -23.659  0.00  0.00    +0.068 A 
ATOM      4  C   UNL     1      32.309 -10.676 -22.793  0.00  0.00    +0.104 A 
ATOM      5  C   UNL     1      31.698 -11.574 -21.897  0.00  0.00    +0.087 A 
ATOM      6  C   UNL     1      33.858 -11.141 -24.821  0.00  0.00    +0.052 C 
ATOM      7  C   UNL     1      30.822 -11.256 -20.756  0.00  0.00    +0.054 C 
ENDROOT
BRANCH   1   8
ATOM      8  C   UNL     1      33.299 -13.919 -23.826  0.00  0.00    +0.083 C 
ATOM      9  C   UNL     1      32.890 -14.299 -25.104  0.00  0.00    +0.022 C 
ATOM     10  C   UNL     1      34.221 -14.700 -23.128  0.00  0.00    +0.022 C 
ATOM     11  C   UNL     1      33.403 -15.459 -25.684  0.00  0.00    +0.038 C 
ATOM     12  C   UNL     1      34.733 -15.860 -23.708  0.00  0.00    +0.038 C 
ATOM     13  C   UNL     1      34.325 -16.239 -24.987  0.00  0.00    +0.139 C 
BRANCH  13  14
ATOM     14  O   UNL     1      34.824 -17.371 -25.553  0.00  0.00    -0.471 OA
ATOM     15  C   UNL     1      34.540 -18.605 -24.897  0.00  0.00    +0.252 C 
ENDBRANCH  13  14
ENDBRANCH   1   8
BRANCH   4  17
ATOM     16  O   UNL     1      31.430  -8.601 -23.522  0.00  0.00    -0.245 OA
ATOM     17  C   UNL     1      32.244  -9.246 -22.835  0.00  0.00    +0.344 C 
BRANCH  17  18
ATOM     18  O   UNL     1      33.176  -8.611 -22.036  0.00  0.00    -0.445 OA
BRANCH  18  19
ATOM     19  C   UNL     1      33.743  -7.393 -22.533  0.00  0.00    +0.209 C 
ATOM     20  C   UNL     1      34.819  -7.727 -23.545  0.00  0.00    +0.051 C 
ENDBRANCH  18  19
ENDBRANCH  17  18
ENDBRANCH   4  17
TORSDOF 5
ENDMDL
MODEL 6
REMARK VINA RESULT:      -8.8      1.909      2.917
REMARK  Name = 656965
REMARK  5 active torsions:
REMARK  status: ('A' for Active; 'I' for Inactive)
REMARK    1  A    between atoms: N_1  and  C_8
REMARK    2  A    between atoms: C_4  and  C_17
REMARK    3  A    between atoms: C_13  and  O_14
REMARK    4  A    between atoms: C_17  and  O_18
REMARK    5  A    between atoms: O_18  and  C_19
REMARK                            x       y       z     vdW  Elec       q    Type
REMARK                         _______ _______ _______ _____ _____    ______ ____
ROOT
ATOM      1  N   UNL     1      34.484 -17.027 -22.627  0.00  0.00    -0.234 N 
ATOM      2  N   UNL     1      34.390 -17.117 -23.971  0.00  0.00    -0.170 NA
ATOM      3  C   UNL     1      34.107 -15.801 -22.144  0.00  0.00    +0.068 A 
ATOM      4  C   UNL     1      33.748 -15.051 -23.238  0.00  0.00    +0.104 A 
ATOM      5  C   UNL     1      33.942 -15.913 -24.334  0.00  0.00    +0.087 A 
ATOM      6  C   UNL     1      34.125 -15.467 -20.705  0.00  0.00    +0.052 C 
ATOM      7  C   UNL     1      33.711 -15.625 -25.761  0.00  0.00    +0.054 C 
ENDROOT
BRANCH   1   8
ATOM      8  C   UNL     1      34.924 -18.110 -21.886  0.00  0.00    +0.083 C 
ATOM      9  C   UNL     1      34.002 -19.012 -21.355  0.00  0.00    +0.022 C 
ATOM     10  C   UNL     1      36.289 -18.298 -21.670  0.00  0.00    +0.022 C 
ATOM     11  C   UNL     1      34.446 -20.102 -20.607  0.00  0.00    +0.038 C 
ATOM     12  C   UNL     1      36.733 -19.388 -20.922  0.00  0.00    +0.038 C 
ATOM     13  C   UNL     1      35.811 -20.291 -20.391  0.00  0.00    +0.139 C 
BRANCH  13  14
ATOM     14  O   UNL     1      36.244 -21.355 -19.661  0.00  0.00    -0.471 OA
ATOM     15  C   UNL     1      35.272 -22.041 -18.874  0.00  0.00    +0.252 C 
ENDBRANCH  13  14
ENDBRANCH   1   8
BRANCH   4  17
ATOM     16  O   UNL     1      32.169 -13.343 -22.788  0.00  0.00    -0.245 OA
ATOM     17  C   UNL     1      33.285 -13.696 -23.215  0.00  0.00    +0.344 C 
BRANCH  17  18
ATOM     18  O   UNL     1      34.189 -12.777 -23.714  0.00  0.00    -0.445 OA
BRANCH  18  19
ATOM     19  C   UNL     1      33.663 -11.536 -24.196  0.00  0.00    +0.209 C 
ATOM     20  C   UNL     1      34.525 -11.046 -25.341  0.00  0.00    +0.051 C 
ENDBRANCH  18  19
ENDBRANCH  17  18
ENDBRANCH   4  17
TORSDOF 5
ENDMDL
MODEL 7
REMARK VINA RESULT:      -8.6      3.184      7.616
REMARK  Name = 656965
REMARK  5 active torsions:
REMARK  status: ('A' for Active; 'I' for Inactive)
REMARK    1  A    between atoms: N_1  and  C_8
REMARK    2  A    between atoms: C_4  and  C_17
REMARK    3  A    between atoms: C_13  and  O_14
REMARK    4  A    between atoms: C_17  and  O_18
REMARK    5  A    between atoms: O_18  and  C_19
REMARK                            x       y       z     vdW  Elec       q    Type
REMARK                         _______ _______ _______ _____ _____    ______ ____
ROOT
ATOM      1  N   UNL     1      33.843 -15.033 -22.981  0.00  0.00    -0.234 N 
ATOM      2  N   UNL     1      33.818 -15.693 -24.158  0.00  0.00    -0.170 NA
ATOM      3  C   UNL     1      34.433 -15.753 -21.975  0.00  0.00    +0.068 A 
ATOM      4  C   UNL     1      34.813 -16.950 -22.531  0.00  0.00    +0.104 A 
ATOM      5  C   UNL     1      34.409 -16.857 -23.876  0.00  0.00    +0.087 A 
ATOM      6  C   UNL     1      34.576 -15.237 -20.598  0.00  0.00    +0.052 C 
ATOM      7  C   UNL     1      34.569 -17.865 -24.940  0.00  0.00    +0.054 C 
ENDROOT
BRANCH   1   8
ATOM      8  C   UNL     1      33.307 -13.761 -22.884  0.00  0.00    +0.083 C 
ATOM      9  C   UNL     1      33.755 -12.749 -23.732  0.00  0.00    +0.022 C 
ATOM     10  C   UNL     1      32.318 -13.491 -21.938  0.00  0.00    +0.022 C 
ATOM     11  C   UNL     1      33.215 -11.467 -23.634  0.00  0.00    +0.038 C 
ATOM     12  C   UNL     1      31.778 -12.209 -21.840  0.00  0.00    +0.038 C 
ATOM     13  C   UNL     1      32.226 -11.196 -22.689  0.00  0.00    +0.139 C 
BRANCH  13  14
ATOM     14  O   UNL     1      31.700  -9.945 -22.593  0.00  0.00    -0.471 OA
ATOM     15  C   UNL     1      32.222  -9.098 -21.571  0.00  0.00    +0.252 C 
ENDBRANCH  13  14
ENDBRANCH   1   8
BRANCH   4  17
ATOM     16  O   UNL     1      36.619 -18.427 -22.120  0.00  0.00    -0.245 OA
ATOM     17  C   UNL     1      35.472 -18.024 -21.850  0.00  0.00    +0.344 C 
BRANCH  17  18
ATOM     18  O   UNL     1      34.724 -18.601 -20.841  0.00  0.00    -0.445 OA
BRANCH  18  19
ATOM     19  C   UNL     1      33.601 -19.400 -21.233  0.00  0.00    +0.209 C 
ATOM     20  C   UNL     1      33.440 -20.540 -20.250  0.00  0.00    +0.051 C 
ENDBRANCH  18  19
ENDBRANCH  17  18
ENDBRANCH   4  17
TORSDOF 5
ENDMDL
MODEL 8
REMARK VINA RESULT:      -8.6      9.296     11.399
REMARK  Name = 656965
REMARK  5 active torsions:
REMARK  status: ('A' for Active; 'I' for Inactive)
REMARK    1  A    between atoms: N_1  and  C_8
REMARK    2  A    between atoms: C_4  and  C_17
REMARK    3  A    between atoms: C_13  and  O_14
REMARK    4  A    between atoms: C_17  and  O_18
REMARK    5  A    between atoms: O_18  and  C_19
REMARK                            x       y       z     vdW  Elec       q    Type
REMARK                         _______ _______ _______ _____ _____    ______ ____
ROOT
ATOM      1  N   UNL     1      33.412 -24.059 -13.972  0.00  0.00    -0.234 N 
ATOM      2  N   UNL     1      33.755 -24.337 -12.696  0.00  0.00    -0.170 NA
ATOM      3  C   UNL     1      34.496 -23.863 -14.788  0.00  0.00    +0.068 A 
ATOM      4  C   UNL     1      35.607 -24.022 -13.996  0.00  0.00    +0.104 A 
ATOM      5  C   UNL     1      35.090 -24.313 -12.719  0.00  0.00    +0.087 A 
ATOM      6  C   UNL     1      34.370 -23.546 -16.226  0.00  0.00    +0.052 C 
ATOM      7  C   UNL     1      35.842 -24.578 -11.479  0.00  0.00    +0.054 C 
ENDROOT
BRANCH   1   8
ATOM      8  C   UNL     1      32.079 -23.998 -14.337  0.00  0.00    +0.083 C 
ATOM      9  C   UNL     1      31.506 -22.774 -14.682  0.00  0.00    +0.022 C 
ATOM     10  C   UNL     1      31.308 -25.160 -14.357  0.00  0.00    +0.022 C 
ATOM     11  C   UNL     1      30.161 -22.713 -15.048  0.00  0.00    +0.038 C 
ATOM     12  C   UNL     1      29.964 -25.099 -14.724  0.00  0.00    +0.038 C 
ATOM     13  C   UNL     1      29.390 -23.875 -15.070  0.00  0.00    +0.139 C 
BRANCH  13  14
ATOM     14  O   UNL     1      28.078 -23.815 -15.427  0.00  0.00    -0.471 OA
ATOM     15  C   UNL     1      27.610 -22.584 -15.976  0.00  0.00    +0.252 C 
ENDBRANCH  13  14
ENDBRANCH   1   8
BRANCH   4  17
ATOM     16  O   UNL     1      37.604 -22.837 -14.463  0.00  0.00    -0.245 OA
ATOM     17  C   UNL     1      36.970 -23.908 -14.423  0.00  0.00    +0.344 C 
BRANCH  17  18
ATOM     18  O   UNL     1      37.551 -25.104 -14.798  0.00  0.00    -0.445 OA
BRANCH  18  19
ATOM     19  C   UNL     1      38.506 -25.679 -13.900  0.00  0.00    +0.209 C 
ATOM     20  C   UNL     1      39.887 -25.566 -14.509  0.00  0.00    +0.051 C 
ENDBRANCH  18  19
ENDBRANCH  17  18
ENDBRANCH   4  17
TORSDOF 5
ENDMDL
MODEL 9
REMARK VINA RESULT:      -8.2      8.161      9.892
REMARK  Name = 656965
REMARK  5 active torsions:
REMARK  status: ('A' for Active; 'I' for Inactive)
REMARK    1  A    between atoms: N_1  and  C_8
REMARK    2  A    between atoms: C_4  and  C_17
REMARK    3  A    between atoms: C_13  and  O_14
REMARK    4  A    between atoms: C_17  and  O_18
REMARK    5  A    between atoms: O_18  and  C_19
REMARK                            x       y       z     vdW  Elec       q    Type
REMARK                         _______ _______ _______ _____ _____    ______ ____
ROOT
ATOM      1  N   UNL     1      33.754 -23.739 -15.046  0.00  0.00    -0.234 N 
ATOM      2  N   UNL     1      33.055 -23.908 -13.903  0.00  0.00    -0.170 NA
ATOM      3  C   UNL     1      32.960 -23.418 -16.117  0.00  0.00    +0.068 A 
ATOM      4  C   UNL     1      31.672 -23.376 -15.641  0.00  0.00    +0.104 A 
ATOM      5  C   UNL     1      31.791 -23.686 -14.273  0.00  0.00    +0.087 A 
ATOM      6  C   UNL     1      33.500 -23.185 -17.472  0.00  0.00    +0.052 C 
ATOM      7  C   UNL     1      30.715 -23.782 -13.271  0.00  0.00    +0.054 C 
ENDROOT
BRANCH   1   8
ATOM      8  C   UNL     1      35.129 -23.892 -15.050  0.00  0.00    +0.083 C 
ATOM      9  C   UNL     1      35.954 -22.773 -15.151  0.00  0.00    +0.022 C 
ATOM     10  C   UNL     1      35.689 -25.166 -14.955  0.00  0.00    +0.022 C 
ATOM     11  C   UNL     1      37.341 -22.928 -15.156  0.00  0.00    +0.038 C 
ATOM     12  C   UNL     1      37.075 -25.321 -14.961  0.00  0.00    +0.038 C 
ATOM     13  C   UNL     1      37.901 -24.201 -15.060  0.00  0.00    +0.139 C 
BRANCH  13  14
ATOM     14  O   UNL     1      39.254 -24.352 -15.066  0.00  0.00    -0.471 OA
ATOM     15  C   UNL     1      39.768 -25.616 -14.654  0.00  0.00    +0.252 C 
ENDBRANCH  13  14
ENDBRANCH   1   8
BRANCH   4  17
ATOM     16  O   UNL     1      30.384 -22.090 -17.157  0.00  0.00    -0.245 OA
ATOM     17  C   UNL     1      30.500 -23.079 -16.409  0.00  0.00    +0.344 C 
BRANCH  17  18
ATOM     18  O   UNL     1      29.474 -23.993 -16.258  0.00  0.00    -0.445 OA
BRANCH  18  19
ATOM     19  C   UNL     1      28.185 -23.619 -16.757  0.00  0.00    +0.209 C 
ATOM     20  C   UNL     1      27.564 -22.612 -15.812  0.00  0.00    +0.051 C 
ENDBRANCH  18  19
ENDBRANCH  17  18
ENDBRANCH   4  17
TORSDOF 5
ENDMDL
