MODEL 1
REMARK VINA RESULT:     -10.8      0.000      0.000
REMARK  Name = 46908929
REMARK  8 active torsions:
REMARK  status: ('A' for Active; 'I' for Inactive)
REMARK    1  A    between atoms: C_4  and  O_15
REMARK    2  A    between atoms: C_5  and  O_17
REMARK    3  A    between atoms: C_6  and  O_19
REMARK    4  A    between atoms: C_7  and  C_21
REMARK    5  A    between atoms: C_13  and  C_24
REMARK    6  A    between atoms: C_21  and  O_22
REMARK    7  A    between atoms: C_24  and  C_25
REMARK    8  A    between atoms: C_30  and  C_31
REMARK                            x       y       z     vdW  Elec       q    Type
REMARK                         _______ _______ _______ _____ _____    ______ ____
ROOT
ATOM      1  O   UNL     1      34.423 -12.621 -24.515  0.00  0.00    -0.326 OA
ATOM      2  O   UNL     1      32.390 -13.624 -25.286  0.00  0.00    -0.324 OA
ATOM      3  C   UNL     1      33.352 -13.517 -24.199  0.00  0.00    +0.235 C 
ATOM      4  C   UNL     1      32.640 -13.065 -22.916  0.00  0.00    +0.196 C 
ATOM      5  C   UNL     1      32.159 -11.617 -23.042  0.00  0.00    +0.172 C 
ATOM      6  C   UNL     1      33.301 -10.708 -23.502  0.00  0.00    +0.169 C 
ATOM      7  C   UNL     1      33.994 -11.276 -24.744  0.00  0.00    +0.176 C 
ATOM      8  C   UNL     1      33.934 -14.893 -24.123  0.00  0.00    +0.029 C 
ATOM      9  C   UNL     1      33.563 -15.607 -25.256  0.00  0.00    +0.008 C 
ATOM     10  C   UNL     1      32.723 -14.752 -26.126  0.00  0.00    +0.171 C 
ATOM     11  C   UNL     1      34.746 -15.464 -23.157  0.00  0.00    -0.004 C 
ATOM     12  C   UNL     1      33.989 -16.908 -25.461  0.00  0.00    -0.002 C 
ATOM     13  C   UNL     1      35.177 -16.780 -23.346  0.00  0.00    -0.018 C 
ATOM     14  C   UNL     1      34.801 -17.497 -24.491  0.00  0.00    -0.004 C 
ENDROOT
BRANCH   4  15
ATOM     15  O   UNL     1      31.501 -13.883 -22.651  0.00  0.00    -0.377 OA
ATOM     16  H   UNL     1      31.155 -13.679 -21.768  0.00  0.00    +0.211 HD
ENDBRANCH   4  15
BRANCH   5  17
ATOM     17  O   UNL     1      31.708 -11.160 -21.765  0.00  0.00    -0.379 OA
ATOM     18  H   UNL     1      32.411 -10.641 -21.341  0.00  0.00    +0.211 HD
ENDBRANCH   5  17
BRANCH   6  19
ATOM     19  O   UNL     1      32.753  -9.422 -23.786  0.00  0.00    -0.379 OA
ATOM     20  H   UNL     1      33.042  -8.790 -23.110  0.00  0.00    +0.211 HD
ENDBRANCH   6  19
BRANCH   7  21
ATOM     21  C   UNL     1      35.233 -10.473 -25.129  0.00  0.00    +0.169 C 
BRANCH  21  22
ATOM     22  O   UNL     1      35.583  -9.637 -24.042  0.00  0.00    -0.379 OA
ATOM     23  H   UNL     1      36.223 -10.096 -23.474  0.00  0.00    +0.211 HD
ENDBRANCH  21  22
ENDBRANCH   7  21
BRANCH  13  24
ATOM     24  C   UNL     1      36.051 -17.426 -22.323  0.00  0.00    +0.053 C 
BRANCH  24  25
ATOM     25  C   UNL     1      35.376 -18.544 -21.555  0.00  0.00    -0.018 C 
ATOM     26  C   UNL     1      33.985 -18.635 -21.536  0.00  0.00    -0.004 C 
ATOM     27  C   UNL     1      36.146 -19.484 -20.871  0.00  0.00    -0.004 C 
ATOM     28  C   UNL     1      33.363 -19.665 -20.831  0.00  0.00    -0.005 C 
ATOM     29  C   UNL     1      35.524 -20.515 -20.165  0.00  0.00    -0.005 C 
ATOM     30  C   UNL     1      34.132 -20.606 -20.145  0.00  0.00    -0.022 C 
BRANCH  30  31
ATOM     31  C   UNL     1      33.467 -21.708 -19.395  0.00  0.00    +0.026 C 
ATOM     32  C   UNL     1      34.428 -22.435 -18.457  0.00  0.00    +0.005 C 
ENDBRANCH  30  31
ENDBRANCH  24  25
ENDBRANCH  13  24
TORSDOF 8
ENDMDL
MODEL 2
REMARK VINA RESULT:     -10.1      3.167      6.417
REMARK  Name = 46908929
REMARK  8 active torsions:
REMARK  status: ('A' for Active; 'I' for Inactive)
REMARK    1  A    between atoms: C_4  and  O_15
REMARK    2  A    between atoms: C_5  and  O_17
REMARK    3  A    between atoms: C_6  and  O_19
REMARK    4  A    between atoms: C_7  and  C_21
REMARK    5  A    between atoms: C_13  and  C_24
REMARK    6  A    between atoms: C_21  and  O_22
REMARK    7  A    between atoms: C_24  and  C_25
REMARK    8  A    between atoms: C_30  and  C_31
REMARK                            x       y       z     vdW  Elec       q    Type
REMARK                         _______ _______ _______ _____ _____    ______ ____
ROOT
ATOM      1  O   UNL     1      34.806 -17.419 -20.958  0.00  0.00    -0.326 OA
ATOM      2  O   UNL     1      36.747 -18.438 -21.921  0.00  0.00    -0.324 OA
ATOM      3  C   UNL     1      35.312 -18.534 -21.700  0.00  0.00    +0.235 C 
ATOM      4  C   UNL     1      34.583 -18.654 -23.046  0.00  0.00    +0.196 C 
ATOM      5  C   UNL     1      34.684 -17.346 -23.836  0.00  0.00    +0.172 C 
ATOM      6  C   UNL     1      34.253 -16.159 -22.971  0.00  0.00    +0.169 C 
ATOM      7  C   UNL     1      34.980 -16.165 -21.623  0.00  0.00    +0.176 C 
ATOM      8  C   UNL     1      35.183 -19.741 -20.826  0.00  0.00    +0.029 C 
ATOM      9  C   UNL     1      36.440 -20.096 -20.351  0.00  0.00    +0.008 C 
ATOM     10  C   UNL     1      37.452 -19.156 -20.884  0.00  0.00    +0.171 C 
ATOM     11  C   UNL     1      34.056 -20.454 -20.451  0.00  0.00    -0.004 C 
ATOM     12  C   UNL     1      36.612 -21.167 -19.492  0.00  0.00    -0.002 C 
ATOM     13  C   UNL     1      34.214 -21.543 -19.591  0.00  0.00    -0.018 C 
ATOM     14  C   UNL     1      35.484 -21.897 -19.114  0.00  0.00    -0.004 C 
ENDROOT
BRANCH   4  15
ATOM     15  O   UNL     1      35.154 -19.691 -23.843  0.00  0.00    -0.377 OA
ATOM     16  H   UNL     1      35.794 -19.307 -24.462  0.00  0.00    +0.211 HD
ENDBRANCH   4  15
BRANCH   5  17
ATOM     17  O   UNL     1      33.814 -17.415 -24.969  0.00  0.00    -0.379 OA
ATOM     18  H   UNL     1      33.793 -16.552 -25.412  0.00  0.00    +0.211 HD
ENDBRANCH   5  17
BRANCH   6  19
ATOM     19  O   UNL     1      34.548 -14.962 -23.688  0.00  0.00    -0.379 OA
ATOM     20  H   UNL     1      33.931 -14.264 -23.420  0.00  0.00    +0.211 HD
ENDBRANCH   6  19
BRANCH   7  21
ATOM     21  C   UNL     1      34.454 -15.085 -20.682  0.00  0.00    +0.169 C 
BRANCH  21  22
ATOM     22  O   UNL     1      33.145 -14.732 -21.089  0.00  0.00    -0.379 OA
ATOM     23  H   UNL     1      32.976 -15.085 -21.977  0.00  0.00    +0.211 HD
ENDBRANCH  21  22
ENDBRANCH   7  21
BRANCH  13  24
ATOM     24  C   UNL     1      33.019 -22.333 -19.171  0.00  0.00    +0.053 C 
BRANCH  24  25
ATOM     25  C   UNL     1      33.039 -22.750 -17.714  0.00  0.00    -0.018 C 
ATOM     26  C   UNL     1      31.849 -22.804 -16.989  0.00  0.00    -0.004 C 
ATOM     27  C   UNL     1      34.246 -23.082 -17.100  0.00  0.00    -0.004 C 
ATOM     28  C   UNL     1      31.867 -23.189 -15.648  0.00  0.00    -0.005 C 
ATOM     29  C   UNL     1      34.263 -23.467 -15.758  0.00  0.00    -0.005 C 
ATOM     30  C   UNL     1      33.074 -23.520 -15.033  0.00  0.00    -0.022 C 
BRANCH  30  31
ATOM     31  C   UNL     1      33.091 -23.934 -13.601  0.00  0.00    +0.026 C 
ATOM     32  C   UNL     1      34.506 -24.195 -13.089  0.00  0.00    +0.005 C 
ENDBRANCH  30  31
ENDBRANCH  24  25
ENDBRANCH  13  24
TORSDOF 8
ENDMDL
MODEL 3
REMARK VINA RESULT:      -9.8      7.824     12.649
REMARK  Name = 46908929
REMARK  8 active torsions:
REMARK  status: ('A' for Active; 'I' for Inactive)
REMARK    1  A    between atoms: C_4  and  O_15
REMARK    2  A    between atoms: C_5  and  O_17
REMARK    3  A    between atoms: C_6  and  O_19
REMARK    4  A    between atoms: C_7  and  C_21
REMARK    5  A    between atoms: C_13  and  C_24
REMARK    6  A    between atoms: C_21  and  O_22
REMARK    7  A    between atoms: C_24  and  C_25
REMARK    8  A    between atoms: C_30  and  C_31
REMARK                            x       y       z     vdW  Elec       q    Type
REMARK                         _______ _______ _______ _____ _____    ______ ____
ROOT
ATOM      1  O   UNL     1      36.092 -23.215 -14.087  0.00  0.00    -0.326 OA
ATOM      2  O   UNL     1      34.171 -24.641 -14.175  0.00  0.00    -0.324 OA
ATOM      3  C   UNL     1      35.402 -24.224 -14.831  0.00  0.00    +0.235 C 
ATOM      4  C   UNL     1      36.312 -25.440 -15.053  0.00  0.00    +0.196 C 
ATOM      5  C   UNL     1      36.842 -25.973 -13.720  0.00  0.00    +0.172 C 
ATOM      6  C   UNL     1      37.464 -24.842 -12.896  0.00  0.00    +0.169 C 
ATOM      7  C   UNL     1      36.510 -23.648 -12.789  0.00  0.00    +0.176 C 
ATOM      8  C   UNL     1      34.914 -23.587 -16.093  0.00  0.00    +0.029 C 
ATOM      9  C   UNL     1      33.542 -23.387 -16.002  0.00  0.00    +0.008 C 
ATOM     10  C   UNL     1      33.057 -23.881 -14.693  0.00  0.00    +0.171 C 
ATOM     11  C   UNL     1      35.617 -23.185 -17.218  0.00  0.00    -0.004 C 
ATOM     12  C   UNL     1      32.830 -22.784 -17.025  0.00  0.00    -0.002 C 
ATOM     13  C   UNL     1      34.911 -22.583 -18.262  0.00  0.00    -0.018 C 
ATOM     14  C   UNL     1      33.526 -22.383 -18.166  0.00  0.00    -0.004 C 
ENDROOT
BRANCH   4  15
ATOM     15  O   UNL     1      35.601 -26.498 -15.695  0.00  0.00    -0.377 OA
ATOM     16  H   UNL     1      36.224 -27.055 -16.187  0.00  0.00    +0.211 HD
ENDBRANCH   4  15
BRANCH   5  17
ATOM     17  O   UNL     1      37.854 -26.950 -13.975  0.00  0.00    -0.379 OA
ATOM     18  H   UNL     1      38.291 -27.188 -13.141  0.00  0.00    +0.211 HD
ENDBRANCH   5  17
BRANCH   6  19
ATOM     19  O   UNL     1      37.761 -25.355 -11.599  0.00  0.00    -0.379 OA
ATOM     20  H   UNL     1      38.707 -25.240 -11.415  0.00  0.00    +0.211 HD
ENDBRANCH   6  19
BRANCH   7  21
ATOM     21  C   UNL     1      37.165 -22.449 -12.109  0.00  0.00    +0.169 C 
BRANCH  21  22
ATOM     22  O   UNL     1      38.476 -22.813 -11.720  0.00  0.00    -0.379 OA
ATOM     23  H   UNL     1      39.107 -22.159 -12.059  0.00  0.00    +0.211 HD
ENDBRANCH  21  22
ENDBRANCH   7  21
BRANCH  13  24
ATOM     24  C   UNL     1      35.638 -22.142 -19.489  0.00  0.00    +0.053 C 
BRANCH  24  25
ATOM     25  C   UNL     1      35.169 -20.809 -20.036  0.00  0.00    -0.018 C 
ATOM     26  C   UNL     1      36.101 -19.820 -20.354  0.00  0.00    -0.004 C 
ATOM     27  C   UNL     1      33.808 -20.571 -20.224  0.00  0.00    -0.004 C 
ATOM     28  C   UNL     1      35.670 -18.593 -20.858  0.00  0.00    -0.005 C 
ATOM     29  C   UNL     1      33.377 -19.344 -20.728  0.00  0.00    -0.005 C 
ATOM     30  C   UNL     1      34.308 -18.355 -21.046  0.00  0.00    -0.022 C 
BRANCH  30  31
ATOM     31  C   UNL     1      33.849 -17.045 -21.588  0.00  0.00    +0.026 C 
ATOM     32  C   UNL     1      34.579 -15.865 -20.951  0.00  0.00    +0.005 C 
ENDBRANCH  30  31
ENDBRANCH  24  25
ENDBRANCH  13  24
TORSDOF 8
ENDMDL
MODEL 4
REMARK VINA RESULT:      -8.8      8.383     12.704
REMARK  Name = 46908929
REMARK  8 active torsions:
REMARK  status: ('A' for Active; 'I' for Inactive)
REMARK    1  A    between atoms: C_4  and  O_15
REMARK    2  A    between atoms: C_5  and  O_17
REMARK    3  A    between atoms: C_6  and  O_19
REMARK    4  A    between atoms: C_7  and  C_21
REMARK    5  A    between atoms: C_13  and  C_24
REMARK    6  A    between atoms: C_21  and  O_22
REMARK    7  A    between atoms: C_24  and  C_25
REMARK    8  A    between atoms: C_30  and  C_31
REMARK                            x       y       z     vdW  Elec       q    Type
REMARK                         _______ _______ _______ _____ _____    ______ ____
ROOT
ATOM      1  O   UNL     1      36.064 -23.093 -14.381  0.00  0.00    -0.326 OA
ATOM      2  O   UNL     1      34.673 -24.801 -13.442  0.00  0.00    -0.324 OA
ATOM      3  C   UNL     1      35.278 -24.259 -14.650  0.00  0.00    +0.235 C 
ATOM      4  C   UNL     1      36.136 -25.335 -15.332  0.00  0.00    +0.196 C 
ATOM      5  C   UNL     1      37.372 -25.658 -14.489  0.00  0.00    +0.172 C 
ATOM      6  C   UNL     1      38.121 -24.376 -14.116  0.00  0.00    +0.169 C 
ATOM      7  C   UNL     1      37.170 -23.339 -13.509  0.00  0.00    +0.176 C 
ATOM      8  C   UNL     1      34.096 -23.820 -15.454  0.00  0.00    +0.029 C 
ATOM      9  C   UNL     1      32.967 -23.827 -14.645  0.00  0.00    +0.008 C 
ATOM     10  C   UNL     1      33.338 -24.271 -13.282  0.00  0.00    +0.171 C 
ATOM     11  C   UNL     1      34.019 -23.417 -16.778  0.00  0.00    -0.004 C 
ATOM     12  C   UNL     1      31.730 -23.435 -15.127  0.00  0.00    -0.002 C 
ATOM     13  C   UNL     1      32.776 -23.026 -17.282  0.00  0.00    -0.018 C 
ATOM     14  C   UNL     1      31.638 -23.035 -16.461  0.00  0.00    -0.004 C 
ENDROOT
BRANCH   4  15
ATOM     15  O   UNL     1      35.395 -26.543 -15.503  0.00  0.00    -0.377 OA
ATOM     16  H   UNL     1      34.666 -26.568 -14.863  0.00  0.00    +0.211 HD
ENDBRANCH   4  15
BRANCH   5  17
ATOM     17  O   UNL     1      38.254 -26.487 -15.251  0.00  0.00    -0.379 OA
ATOM     18  H   UNL     1      38.549 -27.233 -14.704  0.00  0.00    +0.211 HD
ENDBRANCH   5  17
BRANCH   6  19
ATOM     19  O   UNL     1      39.141 -24.719 -13.180  0.00  0.00    -0.379 OA
ATOM     20  H   UNL     1      39.933 -25.011 -13.658  0.00  0.00    +0.211 HD
ENDBRANCH   6  19
BRANCH   7  21
ATOM     21  C   UNL     1      37.859 -21.998 -13.274  0.00  0.00    +0.169 C 
BRANCH  21  22
ATOM     22  O   UNL     1      38.260 -21.928 -11.918  0.00  0.00    -0.379 OA
ATOM     23  H   UNL     1      37.613 -21.407 -11.416  0.00  0.00    +0.211 HD
ENDBRANCH  21  22
ENDBRANCH   7  21
BRANCH  13  24
ATOM     24  C   UNL     1      32.658 -22.590 -18.704  0.00  0.00    +0.053 C 
BRANCH  24  25
ATOM     25  C   UNL     1      33.839 -21.780 -19.198  0.00  0.00    -0.018 C 
ATOM     26  C   UNL     1      35.133 -22.126 -18.809  0.00  0.00    -0.004 C 
ATOM     27  C   UNL     1      33.633 -20.691 -20.044  0.00  0.00    -0.004 C 
ATOM     28  C   UNL     1      36.221 -21.381 -19.265  0.00  0.00    -0.005 C 
ATOM     29  C   UNL     1      34.721 -19.946 -20.500  0.00  0.00    -0.005 C 
ATOM     30  C   UNL     1      36.015 -20.291 -20.111  0.00  0.00    -0.022 C 
BRANCH  30  31
ATOM     31  C   UNL     1      37.178 -19.498 -20.600  0.00  0.00    +0.026 C 
ATOM     32  C   UNL     1      36.828 -18.642 -21.815  0.00  0.00    +0.005 C 
ENDBRANCH  30  31
ENDBRANCH  24  25
ENDBRANCH  13  24
TORSDOF 8
ENDMDL
MODEL 5
REMARK VINA RESULT:      -8.7      3.001      6.233
REMARK  Name = 46908929
REMARK  8 active torsions:
REMARK  status: ('A' for Active; 'I' for Inactive)
REMARK    1  A    between atoms: C_4  and  O_15
REMARK    2  A    between atoms: C_5  and  O_17
REMARK    3  A    between atoms: C_6  and  O_19
REMARK    4  A    between atoms: C_7  and  C_21
REMARK    5  A    between atoms: C_13  and  C_24
REMARK    6  A    between atoms: C_21  and  O_22
REMARK    7  A    between atoms: C_24  and  C_25
REMARK    8  A    between atoms: C_30  and  C_31
REMARK                            x       y       z     vdW  Elec       q    Type
REMARK                         _______ _______ _______ _____ _____    ______ ____
ROOT
ATOM      1  O   UNL     1      34.501 -17.327 -21.929  0.00  0.00    -0.326 OA
ATOM      2  O   UNL     1      36.614 -18.220 -22.612  0.00  0.00    -0.324 OA
ATOM      3  C   UNL     1      35.187 -18.465 -22.461  0.00  0.00    +0.235 C 
ATOM      4  C   UNL     1      34.581 -18.871 -23.811  0.00  0.00    +0.196 C 
ATOM      5  C   UNL     1      34.587 -17.691 -24.786  0.00  0.00    +0.172 C 
ATOM      6  C   UNL     1      33.956 -16.455 -24.140  0.00  0.00    +0.169 C 
ATOM      7  C   UNL     1      34.576 -16.171 -22.768  0.00  0.00    +0.176 C 
ATOM      8  C   UNL     1      35.136 -19.538 -21.420  0.00  0.00    +0.029 C 
ATOM      9  C   UNL     1      36.386 -19.657 -20.826  0.00  0.00    +0.008 C 
ATOM     10  C   UNL     1      37.319 -18.684 -21.439  0.00  0.00    +0.171 C 
ATOM     11  C   UNL     1      34.074 -20.326 -21.004  0.00  0.00    -0.004 C 
ATOM     12  C   UNL     1      36.617 -20.561 -19.803  0.00  0.00    -0.002 C 
ATOM     13  C   UNL     1      34.294 -21.249 -19.979  0.00  0.00    -0.018 C 
ATOM     14  C   UNL     1      35.558 -21.366 -19.382  0.00  0.00    -0.004 C 
ENDROOT
BRANCH   4  15
ATOM     15  O   UNL     1      35.328 -19.932 -24.405  0.00  0.00    -0.377 OA
ATOM     16  H   UNL     1      34.727 -20.655 -24.645  0.00  0.00    +0.211 HD
ENDBRANCH   4  15
BRANCH   5  17
ATOM     17  O   UNL     1      33.819 -18.034 -25.942  0.00  0.00    -0.379 OA
ATOM     18  H   UNL     1      32.888 -17.806 -25.791  0.00  0.00    +0.211 HD
ENDBRANCH   5  17
BRANCH   6  19
ATOM     19  O   UNL     1      34.163 -15.347 -25.015  0.00  0.00    -0.379 OA
ATOM     20  H   UNL     1      34.387 -15.672 -25.901  0.00  0.00    +0.211 HD
ENDBRANCH   6  19
BRANCH   7  21
ATOM     21  C   UNL     1      33.857 -15.041 -22.036  0.00  0.00    +0.169 C 
BRANCH  21  22
ATOM     22  O   UNL     1      33.770 -15.377 -20.664  0.00  0.00    -0.379 OA
ATOM     23  H   UNL     1      34.296 -14.749 -20.143  0.00  0.00    +0.211 HD
ENDBRANCH  21  22
ENDBRANCH   7  21
BRANCH  13  24
ATOM     24  C   UNL     1      33.172 -22.115 -19.511  0.00  0.00    +0.053 C 
BRANCH  24  25
ATOM     25  C   UNL     1      33.309 -22.574 -18.073  0.00  0.00    -0.018 C 
ATOM     26  C   UNL     1      34.571 -22.847 -17.546  0.00  0.00    -0.004 C 
ATOM     27  C   UNL     1      32.174 -22.722 -17.277  0.00  0.00    -0.004 C 
ATOM     28  C   UNL     1      34.697 -23.269 -16.222  0.00  0.00    -0.005 C 
ATOM     29  C   UNL     1      32.300 -23.144 -15.953  0.00  0.00    -0.005 C 
ATOM     30  C   UNL     1      33.561 -23.417 -15.426  0.00  0.00    -0.022 C 
BRANCH  30  31
ATOM     31  C   UNL     1      33.698 -23.865 -14.011  0.00  0.00    +0.026 C 
ATOM     32  C   UNL     1      35.148 -24.157 -13.631  0.00  0.00    +0.005 C 
ENDBRANCH  30  31
ENDBRANCH  24  25
ENDBRANCH  13  24
TORSDOF 8
ENDMDL
MODEL 6
REMARK VINA RESULT:      -8.7      3.394      6.654
REMARK  Name = 46908929
REMARK  8 active torsions:
REMARK  status: ('A' for Active; 'I' for Inactive)
REMARK    1  A    between atoms: C_4  and  O_15
REMARK    2  A    between atoms: C_5  and  O_17
REMARK    3  A    between atoms: C_6  and  O_19
REMARK    4  A    between atoms: C_7  and  C_21
REMARK    5  A    between atoms: C_13  and  C_24
REMARK    6  A    between atoms: C_21  and  O_22
REMARK    7  A    between atoms: C_24  and  C_25
REMARK    8  A    between atoms: C_30  and  C_31
REMARK                            x       y       z     vdW  Elec       q    Type
REMARK                         _______ _______ _______ _____ _____    ______ ____
ROOT
ATOM      1  O   UNL     1      31.585  -7.055 -23.311  0.00  0.00    -0.326 OA
ATOM      2  O   UNL     1      33.297  -6.771 -21.662  0.00  0.00    -0.324 OA
ATOM      3  C   UNL     1      32.767  -7.611 -22.726  0.00  0.00    +0.235 C 
ATOM      4  C   UNL     1      33.842  -7.832 -23.800  0.00  0.00    +0.196 C 
ATOM      5  C   UNL     1      34.132  -6.531 -24.553  0.00  0.00    +0.172 C 
ATOM      6  C   UNL     1      32.833  -5.900 -25.059  0.00  0.00    +0.169 C 
ATOM      7  C   UNL     1      31.799  -5.786 -23.934  0.00  0.00    +0.176 C 
ATOM      8  C   UNL     1      32.359  -8.856 -22.003  0.00  0.00    +0.029 C 
ATOM      9  C   UNL     1      32.370  -8.613 -20.636  0.00  0.00    +0.008 C 
ATOM     10  C   UNL     1      32.784  -7.214 -20.385  0.00  0.00    +0.171 C 
ATOM     11  C   UNL     1      31.980 -10.092 -22.503  0.00  0.00    -0.004 C 
ATOM     12  C   UNL     1      32.004  -9.590 -19.726  0.00  0.00    -0.002 C 
ATOM     13  C   UNL     1      31.617 -11.091 -21.597  0.00  0.00    -0.018 C 
ATOM     14  C   UNL     1      31.629 -10.842 -20.217  0.00  0.00    -0.004 C 
ENDROOT
BRANCH   4  15
ATOM     15  O   UNL     1      35.063  -8.279 -23.213  0.00  0.00    -0.377 OA
ATOM     16  H   UNL     1      35.161  -7.886 -22.331  0.00  0.00    +0.211 HD
ENDBRANCH   4  15
BRANCH   5  17
ATOM     17  O   UNL     1      34.960  -6.819 -25.683  0.00  0.00    -0.379 OA
ATOM     18  H   UNL     1      34.559  -6.442 -26.482  0.00  0.00    +0.211 HD
ENDBRANCH   5  17
BRANCH   6  19
ATOM     19  O   UNL     1      33.144  -4.608 -25.578  0.00  0.00    -0.379 OA
ATOM     20  H   UNL     1      33.412  -4.024 -24.852  0.00  0.00    +0.211 HD
ENDBRANCH   6  19
BRANCH   7  21
ATOM     21  C   UNL     1      30.444  -5.306 -24.446  0.00  0.00    +0.169 C 
BRANCH  21  22
ATOM     22  O   UNL     1      30.493  -3.900 -24.602  0.00  0.00    -0.379 OA
ATOM     23  H   UNL     1      30.958  -3.683 -25.426  0.00  0.00    +0.211 HD
ENDBRANCH  21  22
ENDBRANCH   7  21
BRANCH  13  24
ATOM     24  C   UNL     1      31.207 -12.434 -22.102  0.00  0.00    +0.053 C 
BRANCH  24  25
ATOM     25  C   UNL     1      32.244 -13.517 -21.882  0.00  0.00    -0.018 C 
ATOM     26  C   UNL     1      32.248 -14.245 -20.693  0.00  0.00    -0.004 C 
ATOM     27  C   UNL     1      33.191 -13.787 -22.869  0.00  0.00    -0.004 C 
ATOM     28  C   UNL     1      33.202 -15.243 -20.490  0.00  0.00    -0.005 C 
ATOM     29  C   UNL     1      34.145 -14.785 -22.666  0.00  0.00    -0.005 C 
ATOM     30  C   UNL     1      34.151 -15.513 -21.477  0.00  0.00    -0.022 C 
BRANCH  30  31
ATOM     31  C   UNL     1      35.167 -16.581 -21.261  0.00  0.00    +0.026 C 
ATOM     32  C   UNL     1      34.540 -17.971 -21.176  0.00  0.00    +0.005 C 
ENDBRANCH  30  31
ENDBRANCH  24  25
ENDBRANCH  13  24
TORSDOF 8
ENDMDL
MODEL 7
REMARK VINA RESULT:      -8.0      3.483      9.959
REMARK  Name = 46908929
REMARK  8 active torsions:
REMARK  status: ('A' for Active; 'I' for Inactive)
REMARK    1  A    between atoms: C_4  and  O_15
REMARK    2  A    between atoms: C_5  and  O_17
REMARK    3  A    between atoms: C_6  and  O_19
REMARK    4  A    between atoms: C_7  and  C_21
REMARK    5  A    between atoms: C_13  and  C_24
REMARK    6  A    between atoms: C_21  and  O_22
REMARK    7  A    between atoms: C_24  and  C_25
REMARK    8  A    between atoms: C_30  and  C_31
REMARK                            x       y       z     vdW  Elec       q    Type
REMARK                         _______ _______ _______ _____ _____    ______ ____
ROOT
ATOM      1  O   UNL     1      34.106 -13.471 -22.574  0.00  0.00    -0.326 OA
ATOM      2  O   UNL     1      31.769 -13.311 -23.070  0.00  0.00    -0.324 OA
ATOM      3  C   UNL     1      33.120 -12.944 -23.468  0.00  0.00    +0.235 C 
ATOM      4  C   UNL     1      33.390 -13.424 -24.902  0.00  0.00    +0.196 C 
ATOM      5  C   UNL     1      33.458 -14.952 -24.959  0.00  0.00    +0.172 C 
ATOM      6  C   UNL     1      34.430 -15.488 -23.905  0.00  0.00    +0.169 C 
ATOM      7  C   UNL     1      34.126 -14.900 -22.524  0.00  0.00    +0.176 C 
ATOM      8  C   UNL     1      33.129 -11.457 -23.309  0.00  0.00    +0.029 C 
ATOM      9  C   UNL     1      32.002 -11.068 -22.596  0.00  0.00    +0.008 C 
ATOM     10  C   UNL     1      31.197 -12.263 -22.255  0.00  0.00    +0.171 C 
ATOM     11  C   UNL     1      34.062 -10.522 -23.727  0.00  0.00    -0.004 C 
ATOM     12  C   UNL     1      31.770  -9.741 -22.279  0.00  0.00    -0.002 C 
ATOM     13  C   UNL     1      33.838  -9.177 -23.422  0.00  0.00    -0.018 C 
ATOM     14  C   UNL     1      32.698  -8.789 -22.702  0.00  0.00    -0.004 C 
ENDROOT
BRANCH   4  15
ATOM     15  O   UNL     1      32.351 -12.999 -25.784  0.00  0.00    -0.377 OA
ATOM     16  H   UNL     1      31.490 -13.237 -25.406  0.00  0.00    +0.211 HD
ENDBRANCH   4  15
BRANCH   5  17
ATOM     17  O   UNL     1      33.930 -15.351 -26.249  0.00  0.00    -0.379 OA
ATOM     18  H   UNL     1      34.857 -15.631 -26.181  0.00  0.00    +0.211 HD
ENDBRANCH   5  17
BRANCH   6  19
ATOM     19  O   UNL     1      34.307 -16.909 -23.876  0.00  0.00    -0.379 OA
ATOM     20  H   UNL     1      35.175 -17.312 -24.032  0.00  0.00    +0.211 HD
ENDBRANCH   6  19
BRANCH   7  21
ATOM     21  C   UNL     1      35.175 -15.295 -21.488  0.00  0.00    +0.169 C 
BRANCH  21  22
ATOM     22  O   UNL     1      34.892 -16.607 -21.038  0.00  0.00    -0.379 OA
ATOM     23  H   UNL     1      34.580 -17.145 -21.784  0.00  0.00    +0.211 HD
ENDBRANCH  21  22
ENDBRANCH   7  21
BRANCH  13  24
ATOM     24  C   UNL     1      34.822  -8.145 -23.861  0.00  0.00    +0.053 C 
BRANCH  24  25
ATOM     25  C   UNL     1      34.204  -6.992 -24.627  0.00  0.00    -0.018 C 
ATOM     26  C   UNL     1      34.890  -6.422 -25.699  0.00  0.00    -0.004 C 
ATOM     27  C   UNL     1      32.951  -6.504 -24.261  0.00  0.00    -0.004 C 
ATOM     28  C   UNL     1      34.321  -5.362 -26.405  0.00  0.00    -0.005 C 
ATOM     29  C   UNL     1      32.382  -5.443 -24.967  0.00  0.00    -0.005 C 
ATOM     30  C   UNL     1      33.067  -4.872 -26.039  0.00  0.00    -0.022 C 
BRANCH  30  31
ATOM     31  C   UNL     1      32.459  -3.741 -26.796  0.00  0.00    +0.026 C 
ATOM     32  C   UNL     1      32.612  -3.905 -28.307  0.00  0.00    +0.005 C 
ENDBRANCH  30  31
ENDBRANCH  24  25
ENDBRANCH  13  24
TORSDOF 8
ENDMDL
MODEL 8
REMARK VINA RESULT:      -7.9      2.947      6.012
REMARK  Name = 46908929
REMARK  8 active torsions:
REMARK  status: ('A' for Active; 'I' for Inactive)
REMARK    1  A    between atoms: C_4  and  O_15
REMARK    2  A    between atoms: C_5  and  O_17
REMARK    3  A    between atoms: C_6  and  O_19
REMARK    4  A    between atoms: C_7  and  C_21
REMARK    5  A    between atoms: C_13  and  C_24
REMARK    6  A    between atoms: C_21  and  O_22
REMARK    7  A    between atoms: C_24  and  C_25
REMARK    8  A    between atoms: C_30  and  C_31
REMARK                            x       y       z     vdW  Elec       q    Type
REMARK                         _______ _______ _______ _____ _____    ______ ____
ROOT
ATOM      1  O   UNL     1      32.948  -8.127 -21.673  0.00  0.00    -0.326 OA
ATOM      2  O   UNL     1      33.855  -6.885 -23.508  0.00  0.00    -0.324 OA
ATOM      3  C   UNL     1      32.904  -7.904 -23.086  0.00  0.00    +0.235 C 
ATOM      4  C   UNL     1      31.487  -7.506 -23.520  0.00  0.00    +0.196 C 
ATOM      5  C   UNL     1      30.999  -6.288 -22.732  0.00  0.00    +0.172 C 
ATOM      6  C   UNL     1      31.175  -6.512 -21.229  0.00  0.00    +0.169 C 
ATOM      7  C   UNL     1      32.599  -6.974 -20.902  0.00  0.00    +0.176 C 
ATOM      8  C   UNL     1      33.421  -9.144 -23.745  0.00  0.00    +0.029 C 
ATOM      9  C   UNL     1      34.702  -8.904 -24.226  0.00  0.00    +0.008 C 
ATOM     10  C   UNL     1      35.092  -7.510 -23.918  0.00  0.00    +0.171 C 
ATOM     11  C   UNL     1      32.831 -10.389 -23.886  0.00  0.00    -0.004 C 
ATOM     12  C   UNL     1      35.432  -9.894 -24.860  0.00  0.00    -0.002 C 
ATOM     13  C   UNL     1      33.552 -11.397 -24.531  0.00  0.00    -0.018 C 
ATOM     14  C   UNL     1      34.845 -11.150 -25.016  0.00  0.00    -0.004 C 
ENDROOT
BRANCH   4  15
ATOM     15  O   UNL     1      31.455  -7.171 -24.907  0.00  0.00    -0.377 OA
ATOM     16  H   UNL     1      30.570  -6.851 -25.142  0.00  0.00    +0.211 HD
ENDBRANCH   4  15
BRANCH   5  17
ATOM     17  O   UNL     1      29.608  -6.085 -22.996  0.00  0.00    -0.379 OA
ATOM     18  H   UNL     1      29.332  -5.229 -22.631  0.00  0.00    +0.211 HD
ENDBRANCH   5  17
BRANCH   6  19
ATOM     19  O   UNL     1      30.888  -5.284 -20.563  0.00  0.00    -0.379 OA
ATOM     20  H   UNL     1      31.628  -5.051 -19.981  0.00  0.00    +0.211 HD
ENDBRANCH   6  19
BRANCH   7  21
ATOM     21  C   UNL     1      32.756  -7.356 -19.432  0.00  0.00    +0.169 C 
BRANCH  21  22
ATOM     22  O   UNL     1      32.740  -8.768 -19.330  0.00  0.00    -0.379 OA
ATOM     23  H   UNL     1      32.708  -9.024 -18.394  0.00  0.00    +0.211 HD
ENDBRANCH  21  22
ENDBRANCH   7  21
BRANCH  13  24
ATOM     24  C   UNL     1      32.943 -12.749 -24.702  0.00  0.00    +0.053 C 
BRANCH  24  25
ATOM     25  C   UNL     1      33.439 -13.777 -23.705  0.00  0.00    -0.018 C 
ATOM     26  C   UNL     1      34.285 -14.803 -24.126  0.00  0.00    -0.004 C 
ATOM     27  C   UNL     1      33.053 -13.695 -22.368  0.00  0.00    -0.004 C 
ATOM     28  C   UNL     1      34.742 -15.749 -23.208  0.00  0.00    -0.005 C 
ATOM     29  C   UNL     1      33.510 -14.641 -21.451  0.00  0.00    -0.005 C 
ATOM     30  C   UNL     1      34.355 -15.668 -21.871  0.00  0.00    -0.022 C 
BRANCH  30  31
ATOM     31  C   UNL     1      34.847 -16.678 -20.891  0.00  0.00    +0.026 C 
ATOM     32  C   UNL     1      34.489 -18.105 -21.299  0.00  0.00    +0.005 C 
ENDBRANCH  30  31
ENDBRANCH  24  25
ENDBRANCH  13  24
TORSDOF 8
ENDMDL
MODEL 9
REMARK VINA RESULT:      -7.8      3.704      7.828
REMARK  Name = 46908929
REMARK  8 active torsions:
REMARK  status: ('A' for Active; 'I' for Inactive)
REMARK    1  A    between atoms: C_4  and  O_15
REMARK    2  A    between atoms: C_5  and  O_17
REMARK    3  A    between atoms: C_6  and  O_19
REMARK    4  A    between atoms: C_7  and  C_21
REMARK    5  A    between atoms: C_13  and  C_24
REMARK    6  A    between atoms: C_21  and  O_22
REMARK    7  A    between atoms: C_24  and  C_25
REMARK    8  A    between atoms: C_30  and  C_31
REMARK                            x       y       z     vdW  Elec       q    Type
REMARK                         _______ _______ _______ _____ _____    ______ ____
ROOT
ATOM      1  O   UNL     1      33.764 -18.565 -21.814  0.00  0.00    -0.326 OA
ATOM      2  O   UNL     1      34.767 -19.551 -23.751  0.00  0.00    -0.324 OA
ATOM      3  C   UNL     1      34.827 -18.479 -22.768  0.00  0.00    +0.235 C 
ATOM      4  C   UNL     1      36.186 -18.499 -22.056  0.00  0.00    +0.196 C 
ATOM      5  C   UNL     1      36.315 -19.738 -21.165  0.00  0.00    +0.172 C 
ATOM      6  C   UNL     1      35.100 -19.867 -20.243  0.00  0.00    +0.169 C 
ATOM      7  C   UNL     1      33.792 -19.764 -21.034  0.00  0.00    +0.176 C 
ATOM      8  C   UNL     1      34.585 -17.252 -23.590  0.00  0.00    +0.029 C 
ATOM      9  C   UNL     1      34.125 -17.628 -24.846  0.00  0.00    +0.008 C 
ATOM     10  C   UNL     1      34.045 -19.105 -24.920  0.00  0.00    +0.171 C 
ATOM     11  C   UNL     1      34.726 -15.915 -23.256  0.00  0.00    -0.004 C 
ATOM     12  C   UNL     1      33.793 -16.687 -25.805  0.00  0.00    -0.002 C 
ATOM     13  C   UNL     1      34.403 -14.953 -24.216  0.00  0.00    -0.018 C 
ATOM     14  C   UNL     1      33.939 -15.337 -25.483  0.00  0.00    -0.004 C 
ENDROOT
BRANCH   4  15
ATOM     15  O   UNL     1      37.255 -18.528 -23.001  0.00  0.00    -0.377 OA
ATOM     16  H   UNL     1      38.102 -18.588 -22.530  0.00  0.00    +0.211 HD
ENDBRANCH   4  15
BRANCH   5  17
ATOM     17  O   UNL     1      37.484 -19.611 -20.352  0.00  0.00    -0.379 OA
ATOM     18  H   UNL     1      38.171 -19.137 -20.847  0.00  0.00    +0.211 HD
ENDBRANCH   5  17
BRANCH   6  19
ATOM     19  O   UNL     1      35.181 -21.128 -19.582  0.00  0.00    -0.379 OA
ATOM     20  H   UNL     1      35.919 -21.117 -18.952  0.00  0.00    +0.211 HD
ENDBRANCH   6  19
BRANCH   7  21
ATOM     21  C   UNL     1      32.570 -19.731 -20.121  0.00  0.00    +0.169 C 
BRANCH  21  22
ATOM     22  O   UNL     1      32.485 -20.967 -19.437  0.00  0.00    -0.379 OA
ATOM     23  H   UNL     1      31.584 -21.089 -19.098  0.00  0.00    +0.211 HD
ENDBRANCH  21  22
ENDBRANCH   7  21
BRANCH  13  24
ATOM     24  C   UNL     1      34.547 -13.504 -23.889  0.00  0.00    +0.053 C 
BRANCH  24  25
ATOM     25  C   UNL     1      33.461 -12.968 -22.979  0.00  0.00    -0.018 C 
ATOM     26  C   UNL     1      32.903 -11.713 -23.224  0.00  0.00    -0.004 C 
ATOM     27  C   UNL     1      33.017 -13.729 -21.899  0.00  0.00    -0.004 C 
ATOM     28  C   UNL     1      31.902 -11.220 -22.387  0.00  0.00    -0.005 C 
ATOM     29  C   UNL     1      32.016 -13.236 -21.061  0.00  0.00    -0.005 C 
ATOM     30  C   UNL     1      31.458 -11.981 -21.306  0.00  0.00    -0.022 C 
BRANCH  30  31
ATOM     31  C   UNL     1      30.387 -11.454 -20.414  0.00  0.00    +0.026 C 
ATOM     32  C   UNL     1      30.951 -10.695 -19.215  0.00  0.00    +0.005 C 
ENDBRANCH  30  31
ENDBRANCH  24  25
ENDBRANCH  13  24
TORSDOF 8
ENDMDL
