MODEL 1
REMARK VINA RESULT:      -5.0      0.000      0.000
REMARK  Name = 187
REMARK  4 active torsions:
REMARK  status: ('A' for Active; 'I' for Inactive)
REMARK    1  A    between atoms: C_1  and  N_2
REMARK    2  A    between atoms: C_1  and  C_6
REMARK    3  A    between atoms: C_6  and  O_7
REMARK    4  A    between atoms: O_7  and  C_9
REMARK                            x       y       z     vdW  Elec       q    Type
REMARK                         _______ _______ _______ _____ _____    ______ ____
ROOT
ATOM      1  C   UNL     1      38.754 -24.753 -12.765  0.00  0.00    -0.025 C 
ENDROOT
BRANCH   1   2
ATOM      2  N   UNL     1      38.464 -25.194 -14.193  0.00  0.00    +0.388 N 
ATOM      3  C   UNL     1      37.578 -26.430 -14.173  0.00  0.00    -0.096 C 
ATOM      4  C   UNL     1      37.755 -24.072 -14.936  0.00  0.00    -0.096 C 
ATOM      5  C   UNL     1      39.774 -25.520 -14.899  0.00  0.00    -0.096 C 
ENDBRANCH   1   2
BRANCH   1   6
ATOM      6  C   UNL     1      37.661 -23.810 -12.301  0.00  0.00    +0.186 C 
BRANCH   6   7
ATOM      7  O   UNL     1      37.222 -24.190 -11.004  0.00  0.00    -0.451 OA
BRANCH   7   9
ATOM      8  O   UNL     1      35.289 -24.583  -9.803  0.00  0.00    -0.250 OA
ATOM      9  C   UNL     1      35.871 -24.331 -10.850  0.00  0.00    +0.317 C 
ATOM     10  C   UNL     1      35.183 -24.129 -12.166  0.00  0.00    +0.121 C 
ENDBRANCH   7   9
ENDBRANCH   6   7
ENDBRANCH   1   6
TORSDOF 4
ENDMDL
MODEL 2
REMARK VINA RESULT:      -4.7      7.499      8.773
REMARK  Name = 187
REMARK  4 active torsions:
REMARK  status: ('A' for Active; 'I' for Inactive)
REMARK    1  A    between atoms: C_1  and  N_2
REMARK    2  A    between atoms: C_1  and  C_6
REMARK    3  A    between atoms: C_6  and  O_7
REMARK    4  A    between atoms: O_7  and  C_9
REMARK                            x       y       z     vdW  Elec       q    Type
REMARK                         _______ _______ _______ _____ _____    ______ ____
ROOT
ATOM      1  C   UNL     1      31.214 -23.548 -15.978  0.00  0.00    -0.025 C 
ENDROOT
BRANCH   1   2
ATOM      2  N   UNL     1      31.095 -24.305 -14.662  0.00  0.00    +0.388 N 
ATOM      3  C   UNL     1      30.135 -25.473 -14.833  0.00  0.00    -0.096 C 
ATOM      4  C   UNL     1      32.464 -24.829 -14.254  0.00  0.00    -0.096 C 
ATOM      5  C   UNL     1      30.568 -23.368 -13.583  0.00  0.00    -0.096 C 
ENDBRANCH   1   2
BRANCH   1   6
ATOM      6  C   UNL     1      30.178 -22.442 -16.014  0.00  0.00    +0.186 C 
BRANCH   6   7
ATOM      7  O   UNL     1      29.372 -22.584 -17.176  0.00  0.00    -0.451 OA
BRANCH   7   9
ATOM      8  O   UNL     1      27.656 -24.066 -17.619  0.00  0.00    -0.250 OA
ATOM      9  C   UNL     1      28.137 -23.139 -16.981  0.00  0.00    +0.317 C 
ATOM     10  C   UNL     1      27.437 -22.444 -15.853  0.00  0.00    +0.121 C 
ENDBRANCH   7   9
ENDBRANCH   6   7
ENDBRANCH   1   6
TORSDOF 4
ENDMDL
MODEL 3
REMARK VINA RESULT:      -4.7      2.968      4.584
REMARK  Name = 187
REMARK  4 active torsions:
REMARK  status: ('A' for Active; 'I' for Inactive)
REMARK    1  A    between atoms: C_1  and  N_2
REMARK    2  A    between atoms: C_1  and  C_6
REMARK    3  A    between atoms: C_6  and  O_7
REMARK    4  A    between atoms: O_7  and  C_9
REMARK                            x       y       z     vdW  Elec       q    Type
REMARK                         _______ _______ _______ _____ _____    ______ ____
ROOT
ATOM      1  C   UNL     1      36.572 -25.981 -15.086  0.00  0.00    -0.025 C 
ENDROOT
BRANCH   1   2
ATOM      2  N   UNL     1      36.143 -24.569 -14.711  0.00  0.00    +0.388 N 
ATOM      3  C   UNL     1      34.702 -24.344 -15.144  0.00  0.00    -0.096 C 
ATOM      4  C   UNL     1      36.254 -24.388 -13.204  0.00  0.00    -0.096 C 
ATOM      5  C   UNL     1      37.046 -23.562 -15.410  0.00  0.00    -0.096 C 
ENDBRANCH   1   2
BRANCH   1   6
ATOM      6  C   UNL     1      37.628 -26.459 -14.110  0.00  0.00    +0.186 C 
BRANCH   6   7
ATOM      7  O   UNL     1      38.759 -26.935 -14.827  0.00  0.00    -0.451 OA
BRANCH   7   9
ATOM      8  O   UNL     1      40.629 -26.002 -15.812  0.00  0.00    -0.250 OA
ATOM      9  C   UNL     1      39.826 -26.082 -14.892  0.00  0.00    +0.317 C 
ATOM     10  C   UNL     1      39.881 -25.238 -13.655  0.00  0.00    +0.121 C 
ENDBRANCH   7   9
ENDBRANCH   6   7
ENDBRANCH   1   6
TORSDOF 4
ENDMDL
MODEL 4
REMARK VINA RESULT:      -4.7     12.429     13.805
REMARK  Name = 187
REMARK  4 active torsions:
REMARK  status: ('A' for Active; 'I' for Inactive)
REMARK    1  A    between atoms: C_1  and  N_2
REMARK    2  A    between atoms: C_1  and  C_6
REMARK    3  A    between atoms: C_6  and  O_7
REMARK    4  A    between atoms: O_7  and  C_9
REMARK                            x       y       z     vdW  Elec       q    Type
REMARK                         _______ _______ _______ _____ _____    ______ ____
ROOT
ATOM      1  C   UNL     1      34.441 -17.119 -21.921  0.00  0.00    -0.025 C 
ENDROOT
BRANCH   1   2
ATOM      2  N   UNL     1      34.823 -18.593 -21.872  0.00  0.00    +0.388 N 
ATOM      3  C   UNL     1      34.876 -19.150 -23.286  0.00  0.00    -0.096 C 
ATOM      4  C   UNL     1      36.187 -18.741 -21.216  0.00  0.00    -0.096 C 
ATOM      5  C   UNL     1      33.785 -19.359 -21.063  0.00  0.00    -0.096 C 
ENDBRANCH   1   2
BRANCH   1   6
ATOM      6  C   UNL     1      34.986 -16.503 -23.194  0.00  0.00    +0.186 C 
BRANCH   6   7
ATOM      7  O   UNL     1      33.920 -15.932 -23.940  0.00  0.00    -0.451 OA
BRANCH   7   9
ATOM      8  O   UNL     1      34.736 -16.820 -25.910  0.00  0.00    -0.250 OA
ATOM      9  C   UNL     1      34.022 -16.036 -25.300  0.00  0.00    +0.317 C 
ATOM     10  C   UNL     1      33.119 -15.037 -25.957  0.00  0.00    +0.121 C 
ENDBRANCH   7   9
ENDBRANCH   6   7
ENDBRANCH   1   6
TORSDOF 4
ENDMDL
MODEL 5
REMARK VINA RESULT:      -4.7     12.623     13.973
REMARK  Name = 187
REMARK  4 active torsions:
REMARK  status: ('A' for Active; 'I' for Inactive)
REMARK    1  A    between atoms: C_1  and  N_2
REMARK    2  A    between atoms: C_1  and  C_6
REMARK    3  A    between atoms: C_6  and  O_7
REMARK    4  A    between atoms: O_7  and  C_9
REMARK                            x       y       z     vdW  Elec       q    Type
REMARK                         _______ _______ _______ _____ _____    ______ ____
ROOT
ATOM      1  C   UNL     1      34.917 -18.443 -23.319  0.00  0.00    -0.025 C 
ENDROOT
BRANCH   1   2
ATOM      2  N   UNL     1      34.913 -18.395 -21.797  0.00  0.00    +0.388 N 
ATOM      3  C   UNL     1      36.295 -18.760 -21.274  0.00  0.00    -0.096 C 
ATOM      4  C   UNL     1      34.550 -16.992 -21.335  0.00  0.00    -0.096 C 
ATOM      5  C   UNL     1      33.890 -19.387 -21.260  0.00  0.00    -0.096 C 
ENDBRANCH   1   2
BRANCH   1   6
ATOM      6  C   UNL     1      34.905 -17.029 -23.864  0.00  0.00    +0.186 C 
BRANCH   6   7
ATOM      7  O   UNL     1      34.251 -17.011 -25.125  0.00  0.00    -0.451 OA
BRANCH   7   9
ATOM      8  O   UNL     1      33.426 -15.487 -26.653  0.00  0.00    -0.250 OA
ATOM      9  C   UNL     1      33.736 -15.804 -25.513  0.00  0.00    +0.317 C 
ATOM     10  C   UNL     1      33.600 -14.902 -24.324  0.00  0.00    +0.121 C 
ENDBRANCH   7   9
ENDBRANCH   6   7
ENDBRANCH   1   6
TORSDOF 4
ENDMDL
MODEL 6
REMARK VINA RESULT:      -4.7      8.902     10.124
REMARK  Name = 187
REMARK  4 active torsions:
REMARK  status: ('A' for Active; 'I' for Inactive)
REMARK    1  A    between atoms: C_1  and  N_2
REMARK    2  A    between atoms: C_1  and  C_6
REMARK    3  A    between atoms: C_6  and  O_7
REMARK    4  A    between atoms: O_7  and  C_9
REMARK                            x       y       z     vdW  Elec       q    Type
REMARK                         _______ _______ _______ _____ _____    ______ ____
ROOT
ATOM      1  C   UNL     1      33.818 -18.999 -21.306  0.00  0.00    -0.025 C 
ENDROOT
BRANCH   1   2
ATOM      2  N   UNL     1      35.058 -18.211 -21.705  0.00  0.00    +0.388 N 
ATOM      3  C   UNL     1      34.914 -16.769 -21.241  0.00  0.00    -0.096 C 
ATOM      4  C   UNL     1      36.285 -18.833 -21.056  0.00  0.00    -0.096 C 
ATOM      5  C   UNL     1      35.215 -18.243 -23.219  0.00  0.00    -0.096 C 
ENDBRANCH   1   2
BRANCH   1   6
ATOM      6  C   UNL     1      34.238 -20.235 -20.536  0.00  0.00    +0.186 C 
BRANCH   6   7
ATOM      7  O   UNL     1      33.095 -20.838 -19.944  0.00  0.00    -0.451 OA
BRANCH   7   9
ATOM      8  O   UNL     1      32.515 -22.422 -18.366  0.00  0.00    -0.250 OA
ATOM      9  C   UNL     1      33.346 -21.849 -19.057  0.00  0.00    +0.317 C 
ATOM     10  C   UNL     1      34.810 -22.165 -19.045  0.00  0.00    +0.121 C 
ENDBRANCH   7   9
ENDBRANCH   6   7
ENDBRANCH   1   6
TORSDOF 4
ENDMDL
MODEL 7
REMARK VINA RESULT:      -4.6      2.474      4.441
REMARK  Name = 187
REMARK  4 active torsions:
REMARK  status: ('A' for Active; 'I' for Inactive)
REMARK    1  A    between atoms: C_1  and  N_2
REMARK    2  A    between atoms: C_1  and  C_6
REMARK    3  A    between atoms: C_6  and  O_7
REMARK    4  A    between atoms: O_7  and  C_9
REMARK                            x       y       z     vdW  Elec       q    Type
REMARK                         _______ _______ _______ _____ _____    ______ ____
ROOT
ATOM      1  C   UNL     1      36.978 -25.532 -12.748  0.00  0.00    -0.025 C 
ENDROOT
BRANCH   1   2
ATOM      2  N   UNL     1      36.489 -24.091 -12.793  0.00  0.00    +0.388 N 
ATOM      3  C   UNL     1      34.981 -24.060 -12.593  0.00  0.00    -0.096 C 
ATOM      4  C   UNL     1      37.164 -23.291 -11.690  0.00  0.00    -0.096 C 
ATOM      5  C   UNL     1      36.834 -23.481 -14.145  0.00  0.00    -0.096 C 
ENDBRANCH   1   2
BRANCH   1   6
ATOM      6  C   UNL     1      37.982 -25.755 -13.862  0.00  0.00    +0.186 C 
BRANCH   6   7
ATOM      7  O   UNL     1      39.248 -26.079 -13.304  0.00  0.00    -0.451 OA
BRANCH   7   9
ATOM      8  O   UNL     1      41.314 -26.754 -14.085  0.00  0.00    -0.250 OA
ATOM      9  C   UNL     1      40.302 -26.073 -14.176  0.00  0.00    +0.317 C 
ATOM     10  C   UNL     1      40.043 -25.098 -15.283  0.00  0.00    +0.121 C 
ENDBRANCH   7   9
ENDBRANCH   6   7
ENDBRANCH   1   6
TORSDOF 4
ENDMDL
MODEL 8
REMARK VINA RESULT:      -4.6      8.264      9.650
REMARK  Name = 187
REMARK  4 active torsions:
REMARK  status: ('A' for Active; 'I' for Inactive)
REMARK    1  A    between atoms: C_1  and  N_2
REMARK    2  A    between atoms: C_1  and  C_6
REMARK    3  A    between atoms: C_6  and  O_7
REMARK    4  A    between atoms: O_7  and  C_9
REMARK                            x       y       z     vdW  Elec       q    Type
REMARK                         _______ _______ _______ _____ _____    ______ ____
ROOT
ATOM      1  C   UNL     1      36.330 -18.992 -20.969  0.00  0.00    -0.025 C 
ENDROOT
BRANCH   1   2
ATOM      2  N   UNL     1      35.083 -18.383 -21.593  0.00  0.00    +0.388 N 
ATOM      3  C   UNL     1      34.944 -16.936 -21.142  0.00  0.00    -0.096 C 
ATOM      4  C   UNL     1      35.198 -18.433 -23.109  0.00  0.00    -0.096 C 
ATOM      5  C   UNL     1      33.857 -19.172 -21.152  0.00  0.00    -0.096 C 
ENDBRANCH   1   2
BRANCH   1   6
ATOM      6  C   UNL     1      36.012 -20.390 -20.477  0.00  0.00    +0.186 C 
BRANCH   6   7
ATOM      7  O   UNL     1      36.539 -20.566 -19.169  0.00  0.00    -0.451 OA
BRANCH   7   9
ATOM      8  O   UNL     1      36.763 -22.288 -17.646  0.00  0.00    -0.250 OA
ATOM      9  C   UNL     1      36.133 -21.694 -18.510  0.00  0.00    +0.317 C 
ATOM     10  C   UNL     1      34.780 -22.112 -19.000  0.00  0.00    +0.121 C 
ENDBRANCH   7   9
ENDBRANCH   6   7
ENDBRANCH   1   6
TORSDOF 4
ENDMDL
MODEL 9
REMARK VINA RESULT:      -4.5     14.263     15.677
REMARK  Name = 187
REMARK  4 active torsions:
REMARK  status: ('A' for Active; 'I' for Inactive)
REMARK    1  A    between atoms: C_1  and  N_2
REMARK    2  A    between atoms: C_1  and  C_6
REMARK    3  A    between atoms: C_6  and  O_7
REMARK    4  A    between atoms: O_7  and  C_9
REMARK                            x       y       z     vdW  Elec       q    Type
REMARK                         _______ _______ _______ _____ _____    ______ ____
ROOT
ATOM      1  C   UNL     1      34.374 -14.239 -22.951  0.00  0.00    -0.025 C 
ENDROOT
BRANCH   1   2
ATOM      2  N   UNL     1      33.320 -13.386 -23.646  0.00  0.00    +0.388 N 
ATOM      3  C   UNL     1      33.935 -12.058 -24.061  0.00  0.00    -0.096 C 
ATOM      4  C   UNL     1      32.810 -14.117 -24.879  0.00  0.00    -0.096 C 
ATOM      5  C   UNL     1      32.162 -13.133 -22.691  0.00  0.00    -0.096 C 
ENDBRANCH   1   2
BRANCH   1   6
ATOM      6  C   UNL     1      34.008 -15.702 -23.095  0.00  0.00    +0.186 C 
BRANCH   6   7
ATOM      7  O   UNL     1      35.117 -16.422 -23.616  0.00  0.00    -0.451 OA
BRANCH   7   9
ATOM      8  O   UNL     1      34.780 -16.857 -25.860  0.00  0.00    -0.250 OA
ATOM      9  C   UNL     1      34.856 -17.222 -24.694  0.00  0.00    +0.317 C 
ATOM     10  C   UNL     1      34.670 -18.639 -24.245  0.00  0.00    +0.121 C 
ENDBRANCH   7   9
ENDBRANCH   6   7
ENDBRANCH   1   6
TORSDOF 4
ENDMDL
