MODEL 1
REMARK VINA RESULT:     -11.4      0.000      0.000
REMARK  Name = 11304412
REMARK  4 active torsions:
REMARK  status: ('A' for Active; 'I' for Inactive)
REMARK    1  A    between atoms: C_5  and  N_18
REMARK    2  A    between atoms: C_6  and  C_11
REMARK    3  A    between atoms: N_18  and  C_20
REMARK    4  A    between atoms: C_20  and  C_23
REMARK                            x       y       z     vdW  Elec       q    Type
REMARK                         _______ _______ _______ _____ _____    ______ ____
ROOT
ATOM      1 BR   UNL     1      38.508 -24.838 -13.177  0.00  0.00    -0.066 Br
ATOM      2  N   UNL     1      34.511 -24.215 -13.493  0.00  0.00    -0.152 N 
ATOM      3  N   UNL     1      36.013 -23.606 -15.274  0.00  0.00    -0.388 NA
ATOM      4  N   UNL     1      34.548 -24.770 -12.248  0.00  0.00    -0.173 NA
ATOM      5  C   UNL     1      33.385 -23.772 -14.203  0.00  0.00    +0.126 C 
ATOM      6  C   UNL     1      34.971 -23.181 -15.929  0.00  0.00    +0.135 C 
ATOM      7  C   UNL     1      33.562 -23.248 -15.428  0.00  0.00    +0.064 C 
ATOM      8  C   UNL     1      35.793 -24.128 -14.038  0.00  0.00    +0.200 C 
ATOM      9  C   UNL     1      36.655 -24.649 -13.099  0.00  0.00    +0.168 C 
ATOM     10  C   UNL     1      35.837 -25.024 -12.028  0.00  0.00    +0.112 C 
ENDROOT
BRANCH   6  11
ATOM     11  C   UNL     1      35.164 -22.597 -17.282  0.00  0.00    +0.026 C 
ATOM     12  C   UNL     1      36.342 -21.930 -17.617  0.00  0.00    -0.019 C 
ATOM     13  C   UNL     1      34.142 -22.724 -18.221  0.00  0.00    +0.002 C 
ATOM     14  C   UNL     1      36.498 -21.391 -18.894  0.00  0.00    -0.004 C 
ATOM     15  C   UNL     1      37.453 -21.780 -16.629  0.00  0.00    +0.031 C 
ATOM     16  C   UNL     1      34.297 -22.184 -19.497  0.00  0.00    +0.000 C 
ATOM     17  C   UNL     1      35.475 -21.517 -19.834  0.00  0.00    -0.000 C 
ENDBRANCH   6  11
BRANCH   5  18
ATOM     18  N   UNL     1      32.166 -23.908 -13.601  0.00  0.00    -0.316 N 
ATOM     19  H   UNL     1      31.971 -23.371 -12.799  0.00  0.00    +0.148 HD
BRANCH  18  20
ATOM     20  C   UNL     1      31.162 -24.804 -14.093  0.00  0.00    +0.117 C 
BRANCH  20  23
ATOM     21  O   UNL     1      27.764 -24.755 -17.484  0.00  0.00    -0.163 OA
ATOM     22  N   UNL     1      28.421 -24.124 -16.595  0.00  0.00    -0.127 N 
ATOM     23  C   UNL     1      30.107 -24.082 -14.887  0.00  0.00    +0.018 C 
ATOM     24  C   UNL     1      29.393 -24.767 -15.854  0.00  0.00    +0.119 C 
ATOM     25  C   UNL     1      29.860 -22.743 -14.646  0.00  0.00    +0.001 C 
ATOM     26  C   UNL     1      28.882 -22.086 -15.386  0.00  0.00    +0.022 C 
ATOM     27  C   UNL     1      28.172 -22.787 -16.356  0.00  0.00    +0.121 C 
ENDBRANCH  20  23
ENDBRANCH  18  20
ENDBRANCH   5  18
TORSDOF 4
ENDMDL
MODEL 2
REMARK VINA RESULT:     -11.3      3.642      6.599
REMARK  Name = 11304412
REMARK  4 active torsions:
REMARK  status: ('A' for Active; 'I' for Inactive)
REMARK    1  A    between atoms: C_5  and  N_18
REMARK    2  A    between atoms: C_6  and  C_11
REMARK    3  A    between atoms: N_18  and  C_20
REMARK    4  A    between atoms: C_20  and  C_23
REMARK                            x       y       z     vdW  Elec       q    Type
REMARK                         _______ _______ _______ _____ _____    ______ ____
ROOT
ATOM      1 BR   UNL     1      30.399 -24.359 -13.310  0.00  0.00    -0.066 Br
ATOM      2  N   UNL     1      32.824 -23.297 -16.385  0.00  0.00    -0.152 N 
ATOM      3  N   UNL     1      33.730 -24.043 -14.282  0.00  0.00    -0.388 NA
ATOM      4  N   UNL     1      31.614 -23.079 -16.976  0.00  0.00    -0.173 NA
ATOM      5  C   UNL     1      34.098 -23.118 -16.946  0.00  0.00    +0.126 C 
ATOM      6  C   UNL     1      34.913 -23.864 -14.796  0.00  0.00    +0.135 C 
ATOM      7  C   UNL     1      35.176 -23.390 -16.191  0.00  0.00    +0.064 C 
ATOM      8  C   UNL     1      32.664 -23.756 -15.077  0.00  0.00    +0.200 C 
ATOM      9  C   UNL     1      31.308 -23.826 -14.848  0.00  0.00    +0.168 C 
ATOM     10  C   UNL     1      30.719 -23.400 -16.043  0.00  0.00    +0.112 C 
ENDROOT
BRANCH   6  11
ATOM     11  C   UNL     1      36.108 -24.160 -13.962  0.00  0.00    +0.026 C 
ATOM     12  C   UNL     1      36.841 -25.331 -14.143  0.00  0.00    -0.019 C 
ATOM     13  C   UNL     1      36.488 -23.241 -12.985  0.00  0.00    +0.002 C 
ATOM     14  C   UNL     1      37.957 -25.585 -13.347  0.00  0.00    -0.004 C 
ATOM     15  C   UNL     1      36.453 -26.333 -15.184  0.00  0.00    +0.031 C 
ATOM     16  C   UNL     1      37.604 -23.495 -12.188  0.00  0.00    +0.000 C 
ATOM     17  C   UNL     1      38.339 -24.667 -12.369  0.00  0.00    -0.000 C 
ENDBRANCH   6  11
BRANCH   5  18
ATOM     18  N   UNL     1      34.163 -22.680 -18.238  0.00  0.00    -0.316 N 
ATOM     19  H   UNL     1      33.396 -22.845 -18.834  0.00  0.00    +0.148 HD
BRANCH  18  20
ATOM     20  C   UNL     1      35.305 -21.991 -18.759  0.00  0.00    +0.117 C 
BRANCH  20  23
ATOM     21  O   UNL     1      36.472 -18.549 -21.898  0.00  0.00    -0.163 OA
ATOM     22  N   UNL     1      35.565 -19.225 -21.312  0.00  0.00    -0.127 N 
ATOM     23  C   UNL     1      34.915 -20.934 -19.757  0.00  0.00    +0.018 C 
ATOM     24  C   UNL     1      35.901 -20.200 -20.394  0.00  0.00    +0.119 C 
ATOM     25  C   UNL     1      33.580 -20.704 -20.030  0.00  0.00    +0.001 C 
ATOM     26  C   UNL     1      33.231 -19.724 -20.954  0.00  0.00    +0.022 C 
ATOM     27  C   UNL     1      34.231 -18.993 -21.586  0.00  0.00    +0.121 C 
ENDBRANCH  20  23
ENDBRANCH  18  20
ENDBRANCH   5  18
TORSDOF 4
ENDMDL
MODEL 3
REMARK VINA RESULT:     -11.2      1.260      2.029
REMARK  Name = 11304412
REMARK  4 active torsions:
REMARK  status: ('A' for Active; 'I' for Inactive)
REMARK    1  A    between atoms: C_5  and  N_18
REMARK    2  A    between atoms: C_6  and  C_11
REMARK    3  A    between atoms: N_18  and  C_20
REMARK    4  A    between atoms: C_20  and  C_23
REMARK                            x       y       z     vdW  Elec       q    Type
REMARK                         _______ _______ _______ _____ _____    ______ ____
ROOT
ATOM      1 BR   UNL     1      39.556 -25.386 -14.456  0.00  0.00    -0.066 Br
ATOM      2  N   UNL     1      35.646 -24.526 -13.798  0.00  0.00    -0.152 N 
ATOM      3  N   UNL     1      36.775 -23.756 -15.781  0.00  0.00    -0.388 NA
ATOM      4  N   UNL     1      35.903 -25.247 -12.669  0.00  0.00    -0.173 NA
ATOM      5  C   UNL     1      34.432 -23.934 -14.181  0.00  0.00    +0.126 C 
ATOM      6  C   UNL     1      35.654 -23.195 -16.131  0.00  0.00    +0.135 C 
ATOM      7  C   UNL     1      34.384 -23.259 -15.341  0.00  0.00    +0.064 C 
ATOM      8  C   UNL     1      36.784 -24.431 -14.599  0.00  0.00    +0.200 C 
ATOM      9  C   UNL     1      37.783 -25.117 -13.947  0.00  0.00    +0.168 C 
ATOM     10  C   UNL     1      37.186 -25.592 -12.774  0.00  0.00    +0.112 C 
ENDROOT
BRANCH   6  11
ATOM     11  C   UNL     1      35.599 -22.442 -17.412  0.00  0.00    +0.026 C 
ATOM     12  C   UNL     1      34.465 -22.480 -18.221  0.00  0.00    -0.019 C 
ATOM     13  C   UNL     1      36.709 -21.693 -17.798  0.00  0.00    +0.002 C 
ATOM     14  C   UNL     1      34.440 -21.765 -19.418  0.00  0.00    -0.004 C 
ATOM     15  C   UNL     1      33.262 -23.276 -17.830  0.00  0.00    +0.031 C 
ATOM     16  C   UNL     1      36.684 -20.979 -18.995  0.00  0.00    +0.000 C 
ATOM     17  C   UNL     1      35.550 -21.015 -19.806  0.00  0.00    -0.000 C 
ENDBRANCH   6  11
BRANCH   5  18
ATOM     18  N   UNL     1      33.363 -24.090 -13.344  0.00  0.00    -0.316 N 
ATOM     19  H   UNL     1      33.359 -24.847 -12.715  0.00  0.00    +0.148 HD
BRANCH  18  20
ATOM     20  C   UNL     1      32.247 -23.192 -13.350  0.00  0.00    +0.117 C 
BRANCH  20  23
ATOM     21  O   UNL     1      29.240 -22.403 -17.009  0.00  0.00    -0.163 OA
ATOM     22  N   UNL     1      29.682 -23.196 -16.117  0.00  0.00    -0.127 N 
ATOM     23  C   UNL     1      31.160 -23.655 -14.282  0.00  0.00    +0.018 C 
ATOM     24  C   UNL     1      30.680 -22.792 -15.252  0.00  0.00    +0.119 C 
ATOM     25  C   UNL     1      30.650 -24.935 -14.164  0.00  0.00    +0.001 C 
ATOM     26  C   UNL     1      29.646 -25.352 -15.031  0.00  0.00    +0.022 C 
ATOM     27  C   UNL     1      29.171 -24.475 -16.001  0.00  0.00    +0.121 C 
ENDBRANCH  20  23
ENDBRANCH  18  20
ENDBRANCH   5  18
TORSDOF 4
ENDMDL
MODEL 4
REMARK VINA RESULT:     -11.1      3.124      6.195
REMARK  Name = 11304412
REMARK  4 active torsions:
REMARK  status: ('A' for Active; 'I' for Inactive)
REMARK    1  A    between atoms: C_5  and  N_18
REMARK    2  A    between atoms: C_6  and  C_11
REMARK    3  A    between atoms: N_18  and  C_20
REMARK    4  A    between atoms: C_20  and  C_23
REMARK                            x       y       z     vdW  Elec       q    Type
REMARK                         _______ _______ _______ _____ _____    ______ ____
ROOT
ATOM      1 BR   UNL     1      35.681 -24.175 -11.927  0.00  0.00    -0.066 Br
ATOM      2  N   UNL     1      35.448 -23.034 -15.813  0.00  0.00    -0.152 N 
ATOM      3  N   UNL     1      33.474 -23.626 -14.567  0.00  0.00    -0.388 NA
ATOM      4  N   UNL     1      36.798 -22.939 -15.639  0.00  0.00    -0.173 NA
ATOM      5  C   UNL     1      34.712 -22.759 -16.976  0.00  0.00    +0.126 C 
ATOM      6  C   UNL     1      32.791 -23.385 -15.649  0.00  0.00    +0.135 C 
ATOM      7  C   UNL     1      33.377 -22.917 -16.944  0.00  0.00    +0.064 C 
ATOM      8  C   UNL     1      34.822 -23.455 -14.640  0.00  0.00    +0.200 C 
ATOM      9  C   UNL     1      35.816 -23.626 -13.703  0.00  0.00    +0.168 C 
ATOM     10  C   UNL     1      37.001 -23.297 -14.371  0.00  0.00    +0.112 C 
ENDROOT
BRANCH   6  11
ATOM     11  C   UNL     1      31.315 -23.564 -15.618  0.00  0.00    +0.026 C 
ATOM     12  C   UNL     1      30.716 -24.450 -14.725  0.00  0.00    -0.019 C 
ATOM     13  C   UNL     1      30.531 -22.827 -16.504  0.00  0.00    +0.002 C 
ATOM     14  C   UNL     1      29.329 -24.600 -14.717  0.00  0.00    -0.004 C 
ATOM     15  C   UNL     1      31.534 -25.252 -13.765  0.00  0.00    +0.031 C 
ATOM     16  C   UNL     1      29.145 -22.978 -16.497  0.00  0.00    +0.000 C 
ATOM     17  C   UNL     1      28.543 -23.864 -15.603  0.00  0.00    -0.000 C 
ENDBRANCH   6  11
BRANCH   5  18
ATOM     18  N   UNL     1      35.403 -22.337 -18.076  0.00  0.00    -0.316 N 
ATOM     19  H   UNL     1      36.285 -21.918 -17.950  0.00  0.00    +0.148 HD
BRANCH  18  20
ATOM     20  C   UNL     1      34.891 -22.479 -19.406  0.00  0.00    +0.117 C 
BRANCH  20  23
ATOM     21  O   UNL     1      36.132 -18.330 -21.480  0.00  0.00    -0.163 OA
ATOM     22  N   UNL     1      35.213 -19.095 -21.044  0.00  0.00    -0.127 N 
ATOM     23  C   UNL     1      34.526 -21.151 -20.012  0.00  0.00    +0.018 C 
ATOM     24  C   UNL     1      35.526 -20.319 -20.485  0.00  0.00    +0.119 C 
ATOM     25  C   UNL     1      33.199 -20.771 -20.089  0.00  0.00    +0.001 C 
ATOM     26  C   UNL     1      32.874 -19.541 -20.650  0.00  0.00    +0.022 C 
ATOM     27  C   UNL     1      33.888 -18.714 -21.123  0.00  0.00    +0.121 C 
ENDBRANCH  20  23
ENDBRANCH  18  20
ENDBRANCH   5  18
TORSDOF 4
ENDMDL
MODEL 5
REMARK VINA RESULT:     -10.8      3.756      6.358
REMARK  Name = 11304412
REMARK  4 active torsions:
REMARK  status: ('A' for Active; 'I' for Inactive)
REMARK    1  A    between atoms: C_5  and  N_18
REMARK    2  A    between atoms: C_6  and  C_11
REMARK    3  A    between atoms: N_18  and  C_20
REMARK    4  A    between atoms: C_20  and  C_23
REMARK                            x       y       z     vdW  Elec       q    Type
REMARK                         _______ _______ _______ _____ _____    ______ ____
ROOT
ATOM      1 BR   UNL     1      30.499 -24.259 -13.156  0.00  0.00    -0.066 Br
ATOM      2  N   UNL     1      32.059 -22.983 -16.677  0.00  0.00    -0.152 N 
ATOM      3  N   UNL     1      33.445 -24.017 -15.001  0.00  0.00    -0.388 NA
ATOM      4  N   UNL     1      30.757 -22.631 -16.876  0.00  0.00    -0.173 NA
ATOM      5  C   UNL     1      33.139 -22.810 -17.558  0.00  0.00    +0.126 C 
ATOM      6  C   UNL     1      34.451 -23.844 -15.810  0.00  0.00    +0.135 C 
ATOM      7  C   UNL     1      34.357 -23.227 -17.170  0.00  0.00    +0.064 C 
ATOM      8  C   UNL     1      32.229 -23.581 -15.428  0.00  0.00    +0.200 C 
ATOM      9  C   UNL     1      30.989 -23.603 -14.831  0.00  0.00    +0.168 C 
ATOM     10  C   UNL     1      30.131 -23.008 -15.762  0.00  0.00    +0.112 C 
ENDROOT
BRANCH   6  11
ATOM     11  C   UNL     1      35.800 -24.300 -15.383  0.00  0.00    +0.026 C 
ATOM     12  C   UNL     1      36.908 -23.461 -15.482  0.00  0.00    -0.019 C 
ATOM     13  C   UNL     1      35.943 -25.591 -14.878  0.00  0.00    +0.002 C 
ATOM     14  C   UNL     1      38.163 -23.914 -15.074  0.00  0.00    -0.004 C 
ATOM     15  C   UNL     1      36.781 -22.072 -16.020  0.00  0.00    +0.031 C 
ATOM     16  C   UNL     1      37.198 -26.044 -14.472  0.00  0.00    +0.000 C 
ATOM     17  C   UNL     1      38.308 -25.206 -14.569  0.00  0.00    -0.000 C 
ENDBRANCH   6  11
BRANCH   5  18
ATOM     18  N   UNL     1      32.881 -22.229 -18.767  0.00  0.00    -0.316 N 
ATOM     19  H   UNL     1      32.011 -21.789 -18.905  0.00  0.00    +0.148 HD
BRANCH  18  20
ATOM     20  C   UNL     1      33.828 -22.239 -19.841  0.00  0.00    +0.117 C 
BRANCH  20  23
ATOM     21  O   UNL     1      36.948 -18.848 -21.193  0.00  0.00    -0.163 OA
ATOM     22  N   UNL     1      35.740 -19.199 -20.999  0.00  0.00    -0.127 N 
ATOM     23  C   UNL     1      34.128 -20.849 -20.336  0.00  0.00    +0.018 C 
ATOM     24  C   UNL     1      35.442 -20.469 -20.546  0.00  0.00    +0.119 C 
ATOM     25  C   UNL     1      33.092 -19.965 -20.575  0.00  0.00    +0.001 C 
ATOM     26  C   UNL     1      33.382 -18.684 -21.032  0.00  0.00    +0.022 C 
ATOM     27  C   UNL     1      34.706 -18.313 -21.239  0.00  0.00    +0.121 C 
ENDBRANCH  20  23
ENDBRANCH  18  20
ENDBRANCH   5  18
TORSDOF 4
ENDMDL
MODEL 6
REMARK VINA RESULT:     -10.6      9.628     12.315
REMARK  Name = 11304412
REMARK  4 active torsions:
REMARK  status: ('A' for Active; 'I' for Inactive)
REMARK    1  A    between atoms: C_5  and  N_18
REMARK    2  A    between atoms: C_6  and  C_11
REMARK    3  A    between atoms: N_18  and  C_20
REMARK    4  A    between atoms: C_20  and  C_23
REMARK                            x       y       z     vdW  Elec       q    Type
REMARK                         _______ _______ _______ _____ _____    ______ ____
ROOT
ATOM      1 BR   UNL     1      33.062 -13.326 -27.057  0.00  0.00    -0.066 Br
ATOM      2  N   UNL     1      33.489 -15.362 -23.574  0.00  0.00    -0.152 N 
ATOM      3  N   UNL     1      32.737 -13.074 -23.597  0.00  0.00    -0.388 NA
ATOM      4  N   UNL     1      33.873 -16.338 -24.445  0.00  0.00    -0.173 NA
ATOM      5  C   UNL     1      33.410 -15.443 -22.175  0.00  0.00    +0.126 C 
ATOM      6  C   UNL     1      32.677 -13.143 -22.298  0.00  0.00    +0.135 C 
ATOM      7  C   UNL     1      33.006 -14.359 -21.490  0.00  0.00    +0.064 C 
ATOM      8  C   UNL     1      33.151 -14.191 -24.254  0.00  0.00    +0.200 C 
ATOM      9  C   UNL     1      33.329 -14.450 -25.594  0.00  0.00    +0.168 C 
ATOM     10  C   UNL     1      33.772 -15.776 -25.649  0.00  0.00    +0.112 C 
ENDROOT
BRANCH   6  11
ATOM     11  C   UNL     1      32.235 -11.944 -21.538  0.00  0.00    +0.026 C 
ATOM     12  C   UNL     1      32.334 -10.666 -22.086  0.00  0.00    -0.019 C 
ATOM     13  C   UNL     1      31.717 -12.115 -20.255  0.00  0.00    +0.002 C 
ATOM     14  C   UNL     1      31.913  -9.558 -21.352  0.00  0.00    -0.004 C 
ATOM     15  C   UNL     1      32.887 -10.455 -23.460  0.00  0.00    +0.031 C 
ATOM     16  C   UNL     1      31.297 -11.007 -19.520  0.00  0.00    +0.000 C 
ATOM     17  C   UNL     1      31.395  -9.728 -20.068  0.00  0.00    -0.000 C 
ENDBRANCH   6  11
BRANCH   5  18
ATOM     18  N   UNL     1      33.745 -16.631 -21.591  0.00  0.00    -0.316 N 
ATOM     19  H   UNL     1      33.060 -17.117 -21.077  0.00  0.00    +0.148 HD
BRANCH  18  20
ATOM     20  C   UNL     1      35.057 -17.197 -21.698  0.00  0.00    +0.117 C 
BRANCH  20  23
ATOM     21  O   UNL     1      32.908 -21.180 -20.095  0.00  0.00    -0.163 OA
ATOM     22  N   UNL     1      33.986 -20.541 -20.318  0.00  0.00    -0.127 N 
ATOM     23  C   UNL     1      35.122 -18.578 -21.105  0.00  0.00    +0.018 C 
ATOM     24  C   UNL     1      33.950 -19.272 -20.863  0.00  0.00    +0.119 C 
ATOM     25  C   UNL     1      36.349 -19.142 -20.807  0.00  0.00    +0.001 C 
ATOM     26  C   UNL     1      36.397 -20.420 -20.259  0.00  0.00    +0.022 C 
ATOM     27  C   UNL     1      35.211 -21.107 -20.020  0.00  0.00    +0.121 C 
ENDBRANCH  20  23
ENDBRANCH  18  20
ENDBRANCH   5  18
TORSDOF 4
ENDMDL
MODEL 7
REMARK VINA RESULT:     -10.3      2.114      4.449
REMARK  Name = 11304412
REMARK  4 active torsions:
REMARK  status: ('A' for Active; 'I' for Inactive)
REMARK    1  A    between atoms: C_5  and  N_18
REMARK    2  A    between atoms: C_6  and  C_11
REMARK    3  A    between atoms: N_18  and  C_20
REMARK    4  A    between atoms: C_20  and  C_23
REMARK                            x       y       z     vdW  Elec       q    Type
REMARK                         _______ _______ _______ _____ _____    ______ ____
ROOT
ATOM      1 BR   UNL     1      36.044 -21.651 -19.027  0.00  0.00    -0.066 Br
ATOM      2  N   UNL     1      33.417 -23.385 -16.467  0.00  0.00    -0.152 N 
ATOM      3  N   UNL     1      35.759 -23.220 -15.928  0.00  0.00    -0.388 NA
ATOM      4  N   UNL     1      32.556 -23.053 -17.471  0.00  0.00    -0.173 NA
ATOM      5  C   UNL     1      33.116 -24.025 -15.255  0.00  0.00    +0.126 C 
ATOM      6  C   UNL     1      35.484 -23.826 -14.809  0.00  0.00    +0.135 C 
ATOM      7  C   UNL     1      34.116 -24.267 -14.390  0.00  0.00    +0.064 C 
ATOM      8  C   UNL     1      34.720 -22.994 -16.778  0.00  0.00    +0.200 C 
ATOM      9  C   UNL     1      34.666 -22.397 -18.017  0.00  0.00    +0.168 C 
ATOM     10  C   UNL     1      33.319 -22.463 -18.390  0.00  0.00    +0.112 C 
ENDROOT
BRANCH   6  11
ATOM     11  C   UNL     1      36.589 -24.099 -13.853  0.00  0.00    +0.026 C 
ATOM     12  C   UNL     1      37.358 -25.257 -13.953  0.00  0.00    -0.019 C 
ATOM     13  C   UNL     1      36.847 -23.173 -12.844  0.00  0.00    +0.002 C 
ATOM     14  C   UNL     1      38.389 -25.489 -13.042  0.00  0.00    -0.004 C 
ATOM     15  C   UNL     1      37.101 -26.266 -15.025  0.00  0.00    +0.031 C 
ATOM     16  C   UNL     1      37.877 -23.405 -11.933  0.00  0.00    +0.000 C 
ATOM     17  C   UNL     1      38.648 -24.564 -12.032  0.00  0.00    -0.000 C 
ENDBRANCH   6  11
BRANCH   5  18
ATOM     18  N   UNL     1      31.812 -24.360 -15.025  0.00  0.00    -0.316 N 
ATOM     19  H   UNL     1      31.486 -25.237 -15.334  0.00  0.00    +0.148 HD
BRANCH  18  20
ATOM     20  C   UNL     1      30.901 -23.484 -14.352  0.00  0.00    +0.117 C 
BRANCH  20  23
ATOM     21  O   UNL     1      27.687 -24.921 -17.618  0.00  0.00    -0.163 OA
ATOM     22  N   UNL     1      28.078 -24.031 -16.796  0.00  0.00    -0.127 N 
ATOM     23  C   UNL     1      29.649 -23.254 -15.156  0.00  0.00    +0.018 C 
ATOM     24  C   UNL     1      29.224 -24.222 -16.049  0.00  0.00    +0.119 C 
ATOM     25  C   UNL     1      28.935 -22.080 -14.997  0.00  0.00    +0.001 C 
ATOM     26  C   UNL     1      27.779 -21.879 -15.745  0.00  0.00    +0.022 C 
ATOM     27  C   UNL     1      27.363 -22.859 -16.639  0.00  0.00    +0.121 C 
ENDBRANCH  20  23
ENDBRANCH  18  20
ENDBRANCH   5  18
TORSDOF 4
ENDMDL
MODEL 8
REMARK VINA RESULT:     -10.1     12.652     15.116
REMARK  Name = 11304412
REMARK  4 active torsions:
REMARK  status: ('A' for Active; 'I' for Inactive)
REMARK    1  A    between atoms: C_5  and  N_18
REMARK    2  A    between atoms: C_6  and  C_11
REMARK    3  A    between atoms: N_18  and  C_20
REMARK    4  A    between atoms: C_20  and  C_23
REMARK                            x       y       z     vdW  Elec       q    Type
REMARK                         _______ _______ _______ _____ _____    ______ ____
ROOT
ATOM      1 BR   UNL     1      30.670 -10.696 -19.016  0.00  0.00    -0.066 Br
ATOM      2  N   UNL     1      32.630 -11.960 -22.336  0.00  0.00    -0.152 N 
ATOM      3  N   UNL     1      31.936  -9.667 -22.095  0.00  0.00    -0.388 NA
ATOM      4  N   UNL     1      32.583 -13.138 -21.649  0.00  0.00    -0.173 NA
ATOM      5  C   UNL     1      33.202 -11.724 -23.596  0.00  0.00    +0.126 C 
ATOM      6  C   UNL     1      32.454  -9.448 -23.269  0.00  0.00    +0.135 C 
ATOM      7  C   UNL     1      33.142 -10.481 -24.105  0.00  0.00    +0.064 C 
ATOM      8  C   UNL     1      32.016 -10.936 -21.613  0.00  0.00    +0.200 C 
ATOM      9  C   UNL     1      31.574 -11.497 -20.436  0.00  0.00    +0.168 C 
ATOM     10  C   UNL     1      31.948 -12.843 -20.515  0.00  0.00    +0.112 C 
ENDROOT
BRANCH   6  11
ATOM     11  C   UNL     1      32.385  -8.076 -23.838  0.00  0.00    +0.026 C 
ATOM     12  C   UNL     1      33.536  -7.309 -24.011  0.00  0.00    -0.019 C 
ATOM     13  C   UNL     1      31.141  -7.561 -24.198  0.00  0.00    +0.002 C 
ATOM     14  C   UNL     1      33.443  -6.025 -24.546  0.00  0.00    -0.004 C 
ATOM     15  C   UNL     1      34.882  -7.839 -23.632  0.00  0.00    +0.031 C 
ATOM     16  C   UNL     1      31.048  -6.276 -24.732  0.00  0.00    +0.000 C 
ATOM     17  C   UNL     1      32.199  -5.507 -24.907  0.00  0.00    -0.000 C 
ENDBRANCH   6  11
BRANCH   5  18
ATOM     18  N   UNL     1      33.796 -12.779 -24.228  0.00  0.00    -0.316 N 
ATOM     19  H   UNL     1      34.775 -12.786 -24.321  0.00  0.00    +0.148 HD
BRANCH  18  20
ATOM     20  C   UNL     1      33.045 -13.876 -24.762  0.00  0.00    +0.117 C 
BRANCH  20  23
ATOM     21  O   UNL     1      35.355 -16.920 -21.855  0.00  0.00    -0.163 OA
ATOM     22  N   UNL     1      34.874 -16.670 -23.007  0.00  0.00    -0.127 N 
ATOM     23  C   UNL     1      33.724 -15.195 -24.511  0.00  0.00    +0.018 C 
ATOM     24  C   UNL     1      34.246 -15.466 -23.259  0.00  0.00    +0.119 C 
ATOM     25  C   UNL     1      33.822 -16.123 -25.531  0.00  0.00    +0.001 C 
ATOM     26  C   UNL     1      34.452 -17.339 -25.288  0.00  0.00    +0.022 C 
ATOM     27  C   UNL     1      34.973 -17.600 -24.024  0.00  0.00    +0.121 C 
ENDBRANCH  20  23
ENDBRANCH  18  20
ENDBRANCH   5  18
TORSDOF 4
ENDMDL
MODEL 9
REMARK VINA RESULT:     -10.0      3.365      6.931
REMARK  Name = 11304412
REMARK  4 active torsions:
REMARK  status: ('A' for Active; 'I' for Inactive)
REMARK    1  A    between atoms: C_5  and  N_18
REMARK    2  A    between atoms: C_6  and  C_11
REMARK    3  A    between atoms: N_18  and  C_20
REMARK    4  A    between atoms: C_20  and  C_23
REMARK                            x       y       z     vdW  Elec       q    Type
REMARK                         _______ _______ _______ _____ _____    ______ ____
ROOT
ATOM      1 BR   UNL     1      32.996 -20.543 -20.723  0.00  0.00    -0.066 Br
ATOM      2  N   UNL     1      34.806 -22.506 -17.668  0.00  0.00    -0.152 N 
ATOM      3  N   UNL     1      32.406 -22.395 -17.831  0.00  0.00    -0.388 NA
ATOM      4  N   UNL     1      35.914 -22.077 -18.338  0.00  0.00    -0.173 NA
ATOM      5  C   UNL     1      34.757 -23.269 -16.491  0.00  0.00    +0.126 C 
ATOM      6  C   UNL     1      32.358 -23.091 -16.731  0.00  0.00    +0.135 C 
ATOM      7  C   UNL     1      33.554 -23.590 -15.983  0.00  0.00    +0.064 C 
ATOM      8  C   UNL     1      33.641 -22.090 -18.313  0.00  0.00    +0.200 C 
ATOM      9  C   UNL     1      34.038 -21.379 -19.423  0.00  0.00    +0.168 C 
ATOM     10  C   UNL     1      35.437 -21.405 -19.385  0.00  0.00    +0.112 C 
ENDROOT
BRANCH   6  11
ATOM     11  C   UNL     1      31.029 -23.443 -16.165  0.00  0.00    +0.026 C 
ATOM     12  C   UNL     1      30.921 -24.188 -14.992  0.00  0.00    -0.019 C 
ATOM     13  C   UNL     1      29.881 -23.016 -16.830  0.00  0.00    +0.002 C 
ATOM     14  C   UNL     1      29.662 -24.505 -14.482  0.00  0.00    -0.004 C 
ATOM     15  C   UNL     1      32.137 -24.659 -14.260  0.00  0.00    +0.031 C 
ATOM     16  C   UNL     1      28.623 -23.334 -16.320  0.00  0.00    +0.000 C 
ATOM     17  C   UNL     1      28.513 -24.079 -15.146  0.00  0.00    -0.000 C 
ENDBRANCH   6  11
BRANCH   5  18
ATOM     18  N   UNL     1      35.945 -23.647 -15.933  0.00  0.00    -0.316 N 
ATOM     19  H   UNL     1      36.756 -23.136 -16.156  0.00  0.00    +0.148 HD
BRANCH  18  20
ATOM     20  C   UNL     1      36.054 -24.759 -15.038  0.00  0.00    +0.117 C 
BRANCH  20  23
ATOM     21  O   UNL     1      35.222 -25.091 -10.320  0.00  0.00    -0.163 OA
ATOM     22  N   UNL     1      35.849 -24.532 -11.277  0.00  0.00    -0.127 N 
ATOM     23  C   UNL     1      36.311 -24.316 -13.622  0.00  0.00    +0.018 C 
ATOM     24  C   UNL     1      35.629 -24.924 -12.583  0.00  0.00    +0.119 C 
ATOM     25  C   UNL     1      37.222 -23.307 -13.372  0.00  0.00    +0.001 C 
ATOM     26  C   UNL     1      37.451 -22.905 -12.060  0.00  0.00    +0.022 C 
ATOM     27  C   UNL     1      36.759 -23.524 -11.024  0.00  0.00    +0.121 C 
ENDBRANCH  20  23
ENDBRANCH  18  20
ENDBRANCH   5  18
TORSDOF 4
ENDMDL
