MODEL 1
REMARK VINA RESULT:     -10.7      0.000      0.000
REMARK  Name = 1282
REMARK  3 active torsions:
REMARK  status: ('A' for Active; 'I' for Inactive)
REMARK    1  A    between atoms: C_3  and  C_18
REMARK    2  A    between atoms: C_8  and  C_14
REMARK    3  A    between atoms: C_18  and  C_21
REMARK                            x       y       z     vdW  Elec       q    Type
REMARK                         _______ _______ _______ _____ _____    ______ ____
ROOT
ATOM      1  N   UNL     1      34.611 -16.140 -21.277  0.00  0.00    -0.318 N 
ATOM      2  N   UNL     1      34.688 -16.203 -23.497  0.00  0.00    -0.318 N 
ATOM      3  C   UNL     1      35.109 -16.765 -22.386  0.00  0.00    +0.147 C 
ATOM      4  C   UNL     1      33.818 -15.105 -21.699  0.00  0.00    +0.059 C 
ATOM      5  C   UNL     1      33.882 -15.166 -23.089  0.00  0.00    +0.059 C 
ATOM      6  C   UNL     1      33.072 -14.151 -21.008  0.00  0.00    +0.018 C 
ATOM      7  C   UNL     1      33.166 -14.226 -23.849  0.00  0.00    +0.016 C 
ATOM      8  C   UNL     1      32.365 -13.223 -21.780  0.00  0.00    +0.032 C 
ATOM      9  C   UNL     1      32.411 -13.257 -23.176  0.00  0.00    +0.004 C 
ATOM     10  H   UNL     1      34.791 -16.389 -20.342  0.00  0.00    +0.148 HD
ATOM     11  H   UNL     1      34.904 -16.467 -24.421  0.00  0.00    +0.148 HD
ENDROOT
BRANCH   8  14
ATOM     12  N   UNL     1      30.571 -11.505 -21.794  0.00  0.00    -0.343 N 
ATOM     13  N   UNL     1      31.791 -11.921 -19.845  0.00  0.00    -0.285 NA
ATOM     14  C   UNL     1      31.568 -12.202 -21.116  0.00  0.00    +0.117 C 
ATOM     15  H   UNL     1      30.044 -10.820 -21.325  0.00  0.00    +0.144 HD
ATOM     16  H   UNL     1      30.394 -11.700 -22.743  0.00  0.00    +0.144 HD
ATOM     17  H   UNL     1      31.254 -11.231 -19.391  0.00  0.00    +0.188 HD
ENDBRANCH   8  14
BRANCH   3  18
ATOM     18  C   UNL     1      36.006 -17.930 -22.271  0.00  0.00    +0.080 C 
BRANCH  18  21
ATOM     19  N   UNL     1      36.300 -19.728 -20.591  0.00  0.00    -0.318 N 
ATOM     20  N   UNL     1      34.224 -19.379 -21.300  0.00  0.00    -0.318 N 
ATOM     21  C   UNL     1      35.459 -19.036 -21.375  0.00  0.00    +0.147 C 
ATOM     22  C   UNL     1      35.527 -20.636 -19.917  0.00  0.00    +0.059 C 
ATOM     23  C   UNL     1      34.234 -20.398 -20.376  0.00  0.00    +0.059 C 
ATOM     24  C   UNL     1      35.836 -21.616 -18.973  0.00  0.00    +0.016 C 
ATOM     25  C   UNL     1      33.176 -21.175 -19.876  0.00  0.00    +0.016 C 
ATOM     26  C   UNL     1      34.770 -22.380 -18.486  0.00  0.00    +0.001 C 
ATOM     27  C   UNL     1      33.463 -22.165 -18.927  0.00  0.00    +0.001 C 
ATOM     28  H   UNL     1      37.276 -19.607 -20.515  0.00  0.00    +0.148 HD
ATOM     29  H   UNL     1      33.454 -19.003 -21.785  0.00  0.00    +0.148 HD
ENDBRANCH  18  21
ENDBRANCH   3  18
TORSDOF 3
ENDMDL
MODEL 2
REMARK VINA RESULT:     -10.7      1.737      7.700
REMARK  Name = 1282
REMARK  3 active torsions:
REMARK  status: ('A' for Active; 'I' for Inactive)
REMARK    1  A    between atoms: C_3  and  C_18
REMARK    2  A    between atoms: C_8  and  C_14
REMARK    3  A    between atoms: C_18  and  C_21
REMARK                            x       y       z     vdW  Elec       q    Type
REMARK                         _______ _______ _______ _____ _____    ______ ____
ROOT
ATOM      1  N   UNL     1      34.202 -18.831 -21.726  0.00  0.00    -0.318 N 
ATOM      2  N   UNL     1      36.403 -18.833 -21.418  0.00  0.00    -0.318 N 
ATOM      3  C   UNL     1      35.402 -18.256 -22.043  0.00  0.00    +0.147 C 
ATOM      4  C   UNL     1      34.446 -19.846 -20.838  0.00  0.00    +0.059 C 
ATOM      5  C   UNL     1      35.827 -19.827 -20.661  0.00  0.00    +0.059 C 
ATOM      6  C   UNL     1      33.603 -20.753 -20.194  0.00  0.00    +0.018 C 
ATOM      7  C   UNL     1      36.419 -20.761 -19.794  0.00  0.00    +0.016 C 
ATOM      8  C   UNL     1      34.210 -21.674 -19.334  0.00  0.00    +0.032 C 
ATOM      9  C   UNL     1      35.592 -21.680 -19.137  0.00  0.00    +0.004 C 
ATOM     10  H   UNL     1      33.321 -18.563 -22.074  0.00  0.00    +0.148 HD
ATOM     11  H   UNL     1      37.359 -18.604 -21.477  0.00  0.00    +0.148 HD
ENDROOT
BRANCH   8  14
ATOM     12  N   UNL     1      32.189 -22.271 -18.019  0.00  0.00    -0.343 N 
ATOM     13  N   UNL     1      33.765 -23.907 -18.567  0.00  0.00    -0.285 NA
ATOM     14  C   UNL     1      33.383 -22.645 -18.633  0.00  0.00    +0.117 C 
ATOM     15  H   UNL     1      31.645 -22.944 -17.550  0.00  0.00    +0.144 HD
ATOM     16  H   UNL     1      31.890 -21.333 -18.054  0.00  0.00    +0.144 HD
ATOM     17  H   UNL     1      33.208 -24.567 -18.094  0.00  0.00    +0.188 HD
ENDBRANCH   8  14
BRANCH   3  18
ATOM     18  C   UNL     1      35.484 -17.123 -22.984  0.00  0.00    +0.080 C 
BRANCH  18  21
ATOM     19  N   UNL     1      34.262 -15.038 -23.534  0.00  0.00    -0.318 N 
ATOM     20  N   UNL     1      34.108 -15.739 -21.431  0.00  0.00    -0.318 N 
ATOM     21  C   UNL     1      34.591 -15.947 -22.603  0.00  0.00    +0.147 C 
ATOM     22  C   UNL     1      33.466 -14.120 -22.900  0.00  0.00    +0.059 C 
ATOM     23  C   UNL     1      33.385 -14.580 -21.588  0.00  0.00    +0.059 C 
ATOM     24  C   UNL     1      32.829 -12.962 -23.346  0.00  0.00    +0.016 C 
ATOM     25  C   UNL     1      32.628 -13.852 -20.653  0.00  0.00    +0.016 C 
ATOM     26  C   UNL     1      32.081 -12.251 -22.403  0.00  0.00    +0.001 C 
ATOM     27  C   UNL     1      31.980 -12.687 -21.079  0.00  0.00    +0.001 C 
ATOM     28  H   UNL     1      34.537 -15.033 -24.480  0.00  0.00    +0.148 HD
ATOM     29  H   UNL     1      34.227 -16.279 -20.616  0.00  0.00    +0.148 HD
ENDBRANCH  18  21
ENDBRANCH   3  18
TORSDOF 3
ENDMDL
MODEL 3
REMARK VINA RESULT:     -10.6      2.322      3.283
REMARK  Name = 1282
REMARK  3 active torsions:
REMARK  status: ('A' for Active; 'I' for Inactive)
REMARK    1  A    between atoms: C_3  and  C_18
REMARK    2  A    between atoms: C_8  and  C_14
REMARK    3  A    between atoms: C_18  and  C_21
REMARK                            x       y       z     vdW  Elec       q    Type
REMARK                         _______ _______ _______ _____ _____    ______ ____
ROOT
ATOM      1  N   UNL     1      36.057 -18.337 -22.802  0.00  0.00    -0.318 N 
ATOM      2  N   UNL     1      35.397 -17.607 -20.809  0.00  0.00    -0.318 N 
ATOM      3  C   UNL     1      36.127 -18.495 -21.446  0.00  0.00    +0.147 C 
ATOM      4  C   UNL     1      35.226 -17.277 -23.058  0.00  0.00    +0.059 C 
ATOM      5  C   UNL     1      34.828 -16.838 -21.798  0.00  0.00    +0.059 C 
ATOM      6  C   UNL     1      34.802 -16.682 -24.247  0.00  0.00    +0.018 C 
ATOM      7  C   UNL     1      33.954 -15.742 -21.700  0.00  0.00    +0.016 C 
ATOM      8  C   UNL     1      33.933 -15.592 -24.129  0.00  0.00    +0.032 C 
ATOM      9  C   UNL     1      33.515 -15.129 -22.880  0.00  0.00    +0.004 C 
ATOM     10  H   UNL     1      36.521 -18.886 -23.474  0.00  0.00    +0.148 HD
ATOM     11  H   UNL     1      35.282 -17.512 -19.836  0.00  0.00    +0.148 HD
ENDROOT
BRANCH   8  14
ATOM     12  N   UNL     1      33.083 -13.587 -25.323  0.00  0.00    -0.343 N 
ATOM     13  N   UNL     1      33.367 -15.606 -26.465  0.00  0.00    -0.285 NA
ATOM     14  C   UNL     1      33.456 -14.929 -25.334  0.00  0.00    +0.117 C 
ATOM     15  H   UNL     1      32.764 -13.159 -26.150  0.00  0.00    +0.144 HD
ATOM     16  H   UNL     1      33.139 -13.067 -24.489  0.00  0.00    +0.144 HD
ATOM     17  H   UNL     1      33.045 -15.161 -27.282  0.00  0.00    +0.188 HD
ENDBRANCH   8  14
BRANCH   3  18
ATOM     18  C   UNL     1      36.948 -19.560 -20.840  0.00  0.00    +0.080 C 
BRANCH  18  21
ATOM     19  N   UNL     1      36.714 -20.924 -18.784  0.00  0.00    -0.318 N 
ATOM     20  N   UNL     1      34.972 -20.923 -20.164  0.00  0.00    -0.318 N 
ATOM     21  C   UNL     1      36.160 -20.494 -19.928  0.00  0.00    +0.147 C 
ATOM     22  C   UNL     1      35.779 -21.733 -18.193  0.00  0.00    +0.059 C 
ATOM     23  C   UNL     1      34.701 -21.717 -19.073  0.00  0.00    +0.059 C 
ATOM     24  C   UNL     1      35.783 -22.458 -17.001  0.00  0.00    +0.016 C 
ATOM     25  C   UNL     1      33.550 -22.461 -18.761  0.00  0.00    +0.016 C 
ATOM     26  C   UNL     1      34.631 -23.192 -16.706  0.00  0.00    +0.001 C 
ATOM     27  C   UNL     1      33.532 -23.196 -17.569  0.00  0.00    +0.001 C 
ATOM     28  H   UNL     1      37.610 -20.702 -18.440  0.00  0.00    +0.148 HD
ATOM     29  H   UNL     1      34.394 -20.730 -20.937  0.00  0.00    +0.148 HD
ENDBRANCH  18  21
ENDBRANCH   3  18
TORSDOF 3
ENDMDL
MODEL 4
REMARK VINA RESULT:     -10.4      1.480      2.137
REMARK  Name = 1282
REMARK  3 active torsions:
REMARK  status: ('A' for Active; 'I' for Inactive)
REMARK    1  A    between atoms: C_3  and  C_18
REMARK    2  A    between atoms: C_8  and  C_14
REMARK    3  A    between atoms: C_18  and  C_21
REMARK                            x       y       z     vdW  Elec       q    Type
REMARK                         _______ _______ _______ _____ _____    ______ ____
ROOT
ATOM      1  N   UNL     1      35.430 -17.732 -20.628  0.00  0.00    -0.318 N 
ATOM      2  N   UNL     1      36.164 -18.098 -22.694  0.00  0.00    -0.318 N 
ATOM      3  C   UNL     1      36.211 -18.502 -21.444  0.00  0.00    +0.147 C 
ATOM      4  C   UNL     1      34.841 -16.765 -21.401  0.00  0.00    +0.059 C 
ATOM      5  C   UNL     1      35.315 -17.015 -22.687  0.00  0.00    +0.059 C 
ATOM      6  C   UNL     1      33.962 -15.726 -21.097  0.00  0.00    +0.018 C 
ATOM      7  C   UNL     1      34.897 -16.189 -23.743  0.00  0.00    +0.016 C 
ATOM      8  C   UNL     1      33.556 -14.913 -22.161  0.00  0.00    +0.032 C 
ATOM      9  C   UNL     1      34.014 -15.138 -23.461  0.00  0.00    +0.004 C 
ATOM     10  H   UNL     1      35.313 -17.850 -19.658  0.00  0.00    +0.148 HD
ATOM     11  H   UNL     1      36.634 -18.485 -23.467  0.00  0.00    +0.148 HD
ENDROOT
BRANCH   8  14
ATOM     12  N   UNL     1      31.977 -13.165 -22.947  0.00  0.00    -0.343 N 
ATOM     13  N   UNL     1      32.427 -13.408 -20.667  0.00  0.00    -0.285 NA
ATOM     14  C   UNL     1      32.639 -13.812 -21.906  0.00  0.00    +0.117 C 
ATOM     15  H   UNL     1      31.361 -12.423 -22.752  0.00  0.00    +0.144 HD
ATOM     16  H   UNL     1      32.126 -13.450 -23.878  0.00  0.00    +0.144 HD
ATOM     17  H   UNL     1      31.807 -12.663 -20.490  0.00  0.00    +0.188 HD
ENDBRANCH   8  14
BRANCH   3  18
ATOM     18  C   UNL     1      36.986 -19.640 -20.913  0.00  0.00    +0.080 C 
BRANCH  18  21
ATOM     19  N   UNL     1      36.727 -20.956 -18.829  0.00  0.00    -0.318 N 
ATOM     20  N   UNL     1      34.991 -20.966 -20.217  0.00  0.00    -0.318 N 
ATOM     21  C   UNL     1      36.183 -20.545 -19.985  0.00  0.00    +0.147 C 
ATOM     22  C   UNL     1      35.781 -21.742 -18.225  0.00  0.00    +0.059 C 
ATOM     23  C   UNL     1      34.707 -21.733 -19.111  0.00  0.00    +0.059 C 
ATOM     24  C   UNL     1      35.771 -22.440 -17.018  0.00  0.00    +0.016 C 
ATOM     25  C   UNL     1      33.547 -22.458 -18.789  0.00  0.00    +0.016 C 
ATOM     26  C   UNL     1      34.609 -23.156 -16.713  0.00  0.00    +0.001 C 
ATOM     27  C   UNL     1      33.515 -23.166 -17.581  0.00  0.00    +0.001 C 
ATOM     28  H   UNL     1      37.624 -20.736 -18.485  0.00  0.00    +0.148 HD
ATOM     29  H   UNL     1      34.419 -20.784 -20.997  0.00  0.00    +0.148 HD
ENDBRANCH  18  21
ENDBRANCH   3  18
TORSDOF 3
ENDMDL
MODEL 5
REMARK VINA RESULT:     -10.4      2.698      8.353
REMARK  Name = 1282
REMARK  3 active torsions:
REMARK  status: ('A' for Active; 'I' for Inactive)
REMARK    1  A    between atoms: C_3  and  C_18
REMARK    2  A    between atoms: C_8  and  C_14
REMARK    3  A    between atoms: C_18  and  C_21
REMARK                            x       y       z     vdW  Elec       q    Type
REMARK                         _______ _______ _______ _____ _____    ______ ____
ROOT
ATOM      1  N   UNL     1      36.757 -20.875 -18.936  0.00  0.00    -0.318 N 
ATOM      2  N   UNL     1      34.954 -20.924 -20.236  0.00  0.00    -0.318 N 
ATOM      3  C   UNL     1      36.173 -20.450 -20.097  0.00  0.00    +0.147 C 
ATOM      4  C   UNL     1      35.857 -21.675 -18.282  0.00  0.00    +0.059 C 
ATOM      5  C   UNL     1      34.740 -21.690 -19.113  0.00  0.00    +0.059 C 
ATOM      6  C   UNL     1      35.921 -22.366 -17.071  0.00  0.00    +0.018 C 
ATOM      7  C   UNL     1      33.611 -22.433 -18.729  0.00  0.00    +0.016 C 
ATOM      8  C   UNL     1      34.788 -23.100 -16.706  0.00  0.00    +0.032 C 
ATOM      9  C   UNL     1      33.652 -23.134 -17.517  0.00  0.00    +0.004 C 
ATOM     10  H   UNL     1      37.663 -20.647 -18.627  0.00  0.00    +0.148 HD
ATOM     11  H   UNL     1      34.331 -20.765 -20.981  0.00  0.00    +0.148 HD
ENDROOT
BRANCH   8  14
ATOM     12  N   UNL     1      34.147 -23.357 -14.320  0.00  0.00    -0.343 N 
ATOM     13  N   UNL     1      35.428 -24.999 -15.379  0.00  0.00    -0.285 NA
ATOM     14  C   UNL     1      34.794 -23.842 -15.453  0.00  0.00    +0.117 C 
ATOM     15  H   UNL     1      34.164 -23.875 -13.484  0.00  0.00    +0.144 HD
ATOM     16  H   UNL     1      33.672 -22.495 -14.356  0.00  0.00    +0.144 HD
ATOM     17  H   UNL     1      35.435 -25.504 -14.534  0.00  0.00    +0.188 HD
ENDBRANCH   8  14
BRANCH   3  18
ATOM     18  C   UNL     1      36.888 -19.566 -21.036  0.00  0.00    +0.080 C 
BRANCH  18  21
ATOM     19  N   UNL     1      36.042 -17.981 -22.743  0.00  0.00    -0.318 N 
ATOM     20  N   UNL     1      35.419 -17.588 -20.647  0.00  0.00    -0.318 N 
ATOM     21  C   UNL     1      36.084 -18.338 -21.451  0.00  0.00    +0.147 C 
ATOM     22  C   UNL     1      35.256 -16.860 -22.800  0.00  0.00    +0.059 C 
ATOM     23  C   UNL     1      34.879 -16.635 -21.479  0.00  0.00    +0.059 C 
ATOM     24  C   UNL     1      34.854 -16.047 -23.860  0.00  0.00    +0.016 C 
ATOM     25  C   UNL     1      34.052 -15.538 -21.180  0.00  0.00    +0.016 C 
ATOM     26  C   UNL     1      34.031 -14.961 -23.545  0.00  0.00    +0.001 C 
ATOM     27  C   UNL     1      33.636 -14.709 -22.229  0.00  0.00    +0.001 C 
ATOM     28  H   UNL     1      36.487 -18.432 -23.498  0.00  0.00    +0.148 HD
ATOM     29  H   UNL     1      35.319 -17.674 -19.671  0.00  0.00    +0.148 HD
ENDBRANCH  18  21
ENDBRANCH   3  18
TORSDOF 3
ENDMDL
MODEL 6
REMARK VINA RESULT:     -10.3      2.692      8.298
REMARK  Name = 1282
REMARK  3 active torsions:
REMARK  status: ('A' for Active; 'I' for Inactive)
REMARK    1  A    between atoms: C_3  and  C_18
REMARK    2  A    between atoms: C_8  and  C_14
REMARK    3  A    between atoms: C_18  and  C_21
REMARK                            x       y       z     vdW  Elec       q    Type
REMARK                         _______ _______ _______ _____ _____    ______ ____
ROOT
ATOM      1  N   UNL     1      36.792 -20.858 -18.942  0.00  0.00    -0.318 N 
ATOM      2  N   UNL     1      35.017 -20.903 -20.280  0.00  0.00    -0.318 N 
ATOM      3  C   UNL     1      36.234 -20.435 -20.116  0.00  0.00    +0.147 C 
ATOM      4  C   UNL     1      35.874 -21.652 -18.305  0.00  0.00    +0.059 C 
ATOM      5  C   UNL     1      34.775 -21.665 -19.160  0.00  0.00    +0.059 C 
ATOM      6  C   UNL     1      35.909 -22.339 -17.091  0.00  0.00    +0.018 C 
ATOM      7  C   UNL     1      33.635 -22.402 -18.798  0.00  0.00    +0.016 C 
ATOM      8  C   UNL     1      34.765 -23.068 -16.748  0.00  0.00    +0.032 C 
ATOM      9  C   UNL     1      33.647 -23.099 -17.584  0.00  0.00    +0.004 C 
ATOM     10  H   UNL     1      37.692 -20.632 -18.613  0.00  0.00    +0.148 HD
ATOM     11  H   UNL     1      34.411 -20.744 -21.039  0.00  0.00    +0.148 HD
ENDROOT
BRANCH   8  14
ATOM     12  N   UNL     1      34.058 -23.321 -14.380  0.00  0.00    -0.343 N 
ATOM     13  N   UNL     1      35.382 -24.957 -15.397  0.00  0.00    -0.285 NA
ATOM     14  C   UNL     1      34.741 -23.806 -15.493  0.00  0.00    +0.117 C 
ATOM     15  H   UNL     1      34.055 -23.837 -13.542  0.00  0.00    +0.144 HD
ATOM     16  H   UNL     1      33.578 -22.463 -14.433  0.00  0.00    +0.144 HD
ATOM     17  H   UNL     1      35.368 -25.459 -14.550  0.00  0.00    +0.188 HD
ENDBRANCH   8  14
BRANCH   3  18
ATOM     18  C   UNL     1      36.973 -19.556 -21.043  0.00  0.00    +0.080 C 
BRANCH  18  21
ATOM     19  N   UNL     1      35.457 -17.635 -20.656  0.00  0.00    -0.318 N 
ATOM     20  N   UNL     1      36.077 -17.986 -22.760  0.00  0.00    -0.318 N 
ATOM     21  C   UNL     1      36.158 -18.366 -21.536  0.00  0.00    +0.147 C 
ATOM     22  C   UNL     1      34.839 -16.654 -21.387  0.00  0.00    +0.059 C 
ATOM     23  C   UNL     1      35.242 -16.894 -22.698  0.00  0.00    +0.059 C 
ATOM     24  C   UNL     1      33.988 -15.609 -21.027  0.00  0.00    +0.016 C 
ATOM     25  C   UNL     1      34.777 -16.052 -23.722  0.00  0.00    +0.016 C 
ATOM     26  C   UNL     1      33.536 -14.781 -22.058  0.00  0.00    +0.001 C 
ATOM     27  C   UNL     1      33.922 -14.996 -23.384  0.00  0.00    +0.001 C 
ATOM     28  H   UNL     1      35.398 -17.775 -19.682  0.00  0.00    +0.148 HD
ATOM     29  H   UNL     1      36.508 -18.379 -23.553  0.00  0.00    +0.148 HD
ENDBRANCH  18  21
ENDBRANCH   3  18
TORSDOF 3
ENDMDL
MODEL 7
REMARK VINA RESULT:     -10.2      3.553      9.526
REMARK  Name = 1282
REMARK  3 active torsions:
REMARK  status: ('A' for Active; 'I' for Inactive)
REMARK    1  A    between atoms: C_3  and  C_18
REMARK    2  A    between atoms: C_8  and  C_14
REMARK    3  A    between atoms: C_18  and  C_21
REMARK                            x       y       z     vdW  Elec       q    Type
REMARK                         _______ _______ _______ _____ _____    ______ ____
ROOT
ATOM      1  N   UNL     1      32.196 -13.125 -23.241  0.00  0.00    -0.318 N 
ATOM      2  N   UNL     1      32.538 -13.163 -21.045  0.00  0.00    -0.318 N 
ATOM      3  C   UNL     1      31.953 -12.527 -22.036  0.00  0.00    +0.147 C 
ATOM      4  C   UNL     1      32.991 -14.219 -23.014  0.00  0.00    +0.059 C 
ATOM      5  C   UNL     1      33.190 -14.222 -21.635  0.00  0.00    +0.059 C 
ATOM      6  C   UNL     1      33.536 -15.177 -23.868  0.00  0.00    +0.018 C 
ATOM      7  C   UNL     1      33.977 -15.232 -21.059  0.00  0.00    +0.016 C 
ATOM      8  C   UNL     1      34.316 -16.177 -23.277  0.00  0.00    +0.032 C 
ATOM      9  C   UNL     1      34.535 -16.205 -21.898  0.00  0.00    +0.004 C 
ATOM     10  H   UNL     1      31.860 -12.824 -24.115  0.00  0.00    +0.148 HD
ATOM     11  H   UNL     1      32.515 -12.933 -20.088  0.00  0.00    +0.148 HD
ENDROOT
BRANCH   8  14
ATOM     12  N   UNL     1      35.785 -18.155 -23.591  0.00  0.00    -0.343 N 
ATOM     13  N   UNL     1      34.629 -17.244 -25.407  0.00  0.00    -0.285 NA
ATOM     14  C   UNL     1      34.912 -17.205 -24.118  0.00  0.00    +0.117 C 
ATOM     15  H   UNL     1      36.175 -18.842 -24.178  0.00  0.00    +0.144 HD
ATOM     16  H   UNL     1      36.009 -18.139 -22.633  0.00  0.00    +0.144 HD
ATOM     17  H   UNL     1      35.031 -17.938 -25.979  0.00  0.00    +0.188 HD
ENDBRANCH   8  14
BRANCH   3  18
ATOM     18  C   UNL     1      31.122 -11.313 -21.936  0.00  0.00    +0.080 C 
BRANCH  18  21
ATOM     19  N   UNL     1      33.083 -10.056 -22.780  0.00  0.00    -0.318 N 
ATOM     20  N   UNL     1      31.115  -9.037 -22.956  0.00  0.00    -0.318 N 
ATOM     21  C   UNL     1      31.756 -10.085 -22.578  0.00  0.00    +0.147 C 
ATOM     22  C   UNL     1      33.349  -8.844 -23.362  0.00  0.00    +0.059 C 
ATOM     23  C   UNL     1      32.105  -8.227 -23.462  0.00  0.00    +0.059 C 
ATOM     24  C   UNL     1      34.535  -8.251 -23.797  0.00  0.00    +0.016 C 
ATOM     25  C   UNL     1      32.021  -6.942 -24.025  0.00  0.00    +0.016 C 
ATOM     26  C   UNL     1      34.432  -6.973 -24.355  0.00  0.00    +0.001 C 
ATOM     27  C   UNL     1      33.198  -6.328 -24.468  0.00  0.00    +0.001 C 
ATOM     28  H   UNL     1      33.732 -10.762 -22.556  0.00  0.00    +0.148 HD
ATOM     29  H   UNL     1      30.149  -8.858 -22.899  0.00  0.00    +0.148 HD
ENDBRANCH  18  21
ENDBRANCH   3  18
TORSDOF 3
ENDMDL
MODEL 8
REMARK VINA RESULT:     -10.1      1.963      8.024
REMARK  Name = 1282
REMARK  3 active torsions:
REMARK  status: ('A' for Active; 'I' for Inactive)
REMARK    1  A    between atoms: C_3  and  C_18
REMARK    2  A    between atoms: C_8  and  C_14
REMARK    3  A    between atoms: C_18  and  C_21
REMARK                            x       y       z     vdW  Elec       q    Type
REMARK                         _______ _______ _______ _____ _____    ______ ____
ROOT
ATOM      1  N   UNL     1      36.647 -19.527 -20.512  0.00  0.00    -0.318 N 
ATOM      2  N   UNL     1      34.607 -19.914 -21.305  0.00  0.00    -0.318 N 
ATOM      3  C   UNL     1      35.715 -19.225 -21.465  0.00  0.00    +0.147 C 
ATOM      4  C   UNL     1      36.106 -20.472 -19.680  0.00  0.00    +0.059 C 
ATOM      5  C   UNL     1      34.832 -20.698 -20.196  0.00  0.00    +0.059 C 
ATOM      6  C   UNL     1      36.604 -21.131 -18.556  0.00  0.00    +0.018 C 
ATOM      7  C   UNL     1      33.993 -21.631 -19.565  0.00  0.00    +0.016 C 
ATOM      8  C   UNL     1      35.755 -22.057 -17.941  0.00  0.00    +0.032 C 
ATOM      9  C   UNL     1      34.472 -22.303 -18.434  0.00  0.00    +0.004 C 
ATOM     10  H   UNL     1      37.547 -19.135 -20.437  0.00  0.00    +0.148 HD
ATOM     11  H   UNL     1      33.793 -19.877 -21.857  0.00  0.00    +0.148 HD
ENDROOT
BRANCH   8  14
ATOM     12  N   UNL     1      37.538 -22.675 -16.326  0.00  0.00    -0.343 N 
ATOM     13  N   UNL     1      35.382 -23.545 -16.092  0.00  0.00    -0.285 NA
ATOM     14  C   UNL     1      36.219 -22.775 -16.763  0.00  0.00    +0.117 C 
ATOM     15  H   UNL     1      37.830 -23.169 -15.527  0.00  0.00    +0.144 HD
ATOM     16  H   UNL     1      38.177 -22.109 -16.816  0.00  0.00    +0.144 HD
ATOM     17  H   UNL     1      35.692 -24.033 -15.295  0.00  0.00    +0.188 HD
ENDBRANCH   8  14
BRANCH   3  18
ATOM     18  C   UNL     1      35.992 -18.232 -22.521  0.00  0.00    +0.080 C 
BRANCH  18  21
ATOM     19  N   UNL     1      35.216 -16.041 -23.379  0.00  0.00    -0.318 N 
ATOM     20  N   UNL     1      34.220 -16.779 -21.535  0.00  0.00    -0.318 N 
ATOM     21  C   UNL     1      35.101 -16.997 -22.445  0.00  0.00    +0.147 C 
ATOM     22  C   UNL     1      34.301 -15.076 -23.047  0.00  0.00    +0.059 C 
ATOM     23  C   UNL     1      33.692 -15.560 -21.893  0.00  0.00    +0.059 C 
ATOM     24  C   UNL     1      33.963 -13.859 -23.638  0.00  0.00    +0.016 C 
ATOM     25  C   UNL     1      32.684 -14.797 -21.278  0.00  0.00    +0.016 C 
ATOM     26  C   UNL     1      32.959 -13.113 -23.014  0.00  0.00    +0.001 C 
ATOM     27  C   UNL     1      32.329 -13.572 -21.855  0.00  0.00    +0.001 C 
ATOM     28  H   UNL     1      35.833 -16.034 -24.148  0.00  0.00    +0.148 HD
ATOM     29  H   UNL     1      33.980 -17.347 -20.768  0.00  0.00    +0.148 HD
ENDBRANCH  18  21
ENDBRANCH   3  18
TORSDOF 3
ENDMDL
MODEL 9
REMARK VINA RESULT:     -10.1      4.796     10.127
REMARK  Name = 1282
REMARK  3 active torsions:
REMARK  status: ('A' for Active; 'I' for Inactive)
REMARK    1  A    between atoms: C_3  and  C_18
REMARK    2  A    between atoms: C_8  and  C_14
REMARK    3  A    between atoms: C_18  and  C_21
REMARK                            x       y       z     vdW  Elec       q    Type
REMARK                         _______ _______ _______ _____ _____    ______ ____
ROOT
ATOM      1  N   UNL     1      35.084 -23.089 -16.462  0.00  0.00    -0.318 N 
ATOM      2  N   UNL     1      33.157 -23.788 -15.601  0.00  0.00    -0.318 N 
ATOM      3  C   UNL     1      33.773 -23.398 -16.695  0.00  0.00    +0.147 C 
ATOM      4  C   UNL     1      35.331 -23.291 -15.129  0.00  0.00    +0.059 C 
ATOM      5  C   UNL     1      34.113 -23.728 -14.614  0.00  0.00    +0.059 C 
ATOM      6  C   UNL     1      36.480 -23.135 -14.352  0.00  0.00    +0.018 C 
ATOM      7  C   UNL     1      34.018 -24.031 -13.245  0.00  0.00    +0.016 C 
ATOM      8  C   UNL     1      36.367 -23.442 -12.992  0.00  0.00    +0.032 C 
ATOM      9  C   UNL     1      35.159 -23.881 -12.446  0.00  0.00    +0.004 C 
ATOM     10  H   UNL     1      35.734 -22.776 -17.132  0.00  0.00    +0.148 HD
ATOM     11  H   UNL     1      32.217 -24.063 -15.509  0.00  0.00    +0.148 HD
ENDROOT
BRANCH   8  14
ATOM     12  N   UNL     1      38.168 -24.411 -11.583  0.00  0.00    -0.343 N 
ATOM     13  N   UNL     1      37.998 -22.096 -11.853  0.00  0.00    -0.285 NA
ATOM     14  C   UNL     1      37.531 -23.300 -12.131  0.00  0.00    +0.117 C 
ATOM     15  H   UNL     1      38.955 -24.291 -11.004  0.00  0.00    +0.144 HD
ATOM     16  H   UNL     1      37.832 -25.316 -11.777  0.00  0.00    +0.144 HD
ATOM     17  H   UNL     1      38.786 -21.995 -11.271  0.00  0.00    +0.188 HD
ENDBRANCH   8  14
BRANCH   3  18
ATOM     18  C   UNL     1      33.187 -23.285 -18.045  0.00  0.00    +0.080 C 
BRANCH  18  21
ATOM     19  N   UNL     1      33.000 -21.296 -19.510  0.00  0.00    -0.318 N 
ATOM     20  N   UNL     1      35.062 -21.987 -19.055  0.00  0.00    -0.318 N 
ATOM     21  C   UNL     1      33.802 -22.171 -18.885  0.00  0.00    +0.147 C 
ATOM     22  C   UNL     1      33.830 -20.430 -20.173  0.00  0.00    +0.059 C 
ATOM     23  C   UNL     1      35.112 -20.882 -19.873  0.00  0.00    +0.059 C 
ATOM     24  C   UNL     1      33.579 -19.324 -20.985  0.00  0.00    +0.016 C 
ATOM     25  C   UNL     1      36.221 -20.203 -20.407  0.00  0.00    +0.016 C 
ATOM     26  C   UNL     1      34.693 -18.660 -21.507  0.00  0.00    +0.001 C 
ATOM     27  C   UNL     1      35.992 -19.089 -21.225  0.00  0.00    +0.001 C 
ATOM     28  H   UNL     1      32.015 -21.279 -19.496  0.00  0.00    +0.148 HD
ATOM     29  H   UNL     1      35.812 -22.510 -18.689  0.00  0.00    +0.148 HD
ENDBRANCH  18  21
ENDBRANCH   3  18
TORSDOF 3
ENDMDL
