MODEL 1
REMARK VINA RESULT:     -10.6      0.000      0.000
REMARK  Name = 25113171
REMARK  6 active torsions:
REMARK  status: ('A' for Active; 'I' for Inactive)
REMARK    1  A    between atoms: N_1  and  C_28
REMARK    2  A    between atoms: N_2  and  C_16
REMARK    3  A    between atoms: C_17  and  C_24
REMARK    4  A    between atoms: C_27  and  C_35
REMARK    5  A    between atoms: C_30  and  O_33
REMARK    6  A    between atoms: C_35  and  S_36
REMARK                            x       y       z     vdW  Elec       q    Type
REMARK                         _______ _______ _______ _____ _____    ______ ____
ROOT
ATOM      1  N   UNL     1      33.762 -24.755 -13.690  0.00  0.00    -0.235 N 
ATOM      2  N   UNL     1      32.819 -22.347 -17.648  0.00  0.00    -0.290 N 
ATOM      3  N   UNL     1      29.295 -23.898 -15.014  0.00  0.00    -0.289 N 
ATOM      4  N   UNL     1      33.271 -23.565 -15.644  0.00  0.00    -0.316 NA
ATOM      5  N   UNL     1      31.505 -24.418 -14.202  0.00  0.00    -0.316 NA
ATOM      6  C   UNL     1      31.009 -23.174 -16.246  0.00  0.00    +0.159 C 
ATOM      7  C   UNL     1      32.371 -23.034 -16.505  0.00  0.00    +0.186 C 
ATOM      8  C   UNL     1      30.662 -23.867 -15.092  0.00  0.00    +0.186 C 
ATOM      9  C   UNL     1      32.789 -24.215 -14.561  0.00  0.00    +0.205 C 
ATOM     10  C   UNL     1      29.799 -22.780 -16.871  0.00  0.00    +0.006 C 
ATOM     11  C   UNL     1      28.759 -23.239 -16.090  0.00  0.00    +0.060 C 
ATOM     12  H   UNL     1      33.380 -25.221 -12.911  0.00  0.00    +0.166 HD
ATOM     13  H   UNL     1      32.091 -21.997 -18.209  0.00  0.00    +0.154 HD
ATOM     14  H   UNL     1      28.777 -24.327 -14.296  0.00  0.00    +0.154 HD
ENDROOT
BRANCH   2  16
ATOM     15  F   UNL     1      35.723 -20.539 -21.038  0.00  0.00    -0.204 F 
ATOM     16  C   UNL     1      34.107 -22.061 -18.149  0.00  0.00    +0.056 C 
ATOM     17  C   UNL     1      34.271 -21.426 -19.380  0.00  0.00    +0.094 C 
ATOM     18  C   UNL     1      35.224 -22.423 -17.397  0.00  0.00    +0.015 C 
ATOM     19  C   UNL     1      35.552 -21.151 -19.858  0.00  0.00    +0.146 C 
ATOM     20  C   UNL     1      36.505 -22.149 -17.875  0.00  0.00    +0.004 C 
ATOM     21  C   UNL     1      36.670 -21.513 -19.105  0.00  0.00    +0.030 C 
BRANCH  17  24
ATOM     22  O   UNL     1      32.315 -21.879 -20.612  0.00  0.00    -0.270 OA
ATOM     23  N   UNL     1      32.948 -19.681 -20.449  0.00  0.00    -0.325 N 
ATOM     24  C   UNL     1      33.121 -21.036 -20.187  0.00  0.00    +0.246 C 
ATOM     25  H   UNL     1      32.183 -19.378 -20.990  0.00  0.00    +0.145 HD
ATOM     26  H   UNL     1      33.589 -19.025 -20.092  0.00  0.00    +0.145 HD
ENDBRANCH  17  24
ENDBRANCH   2  16
BRANCH   1  28
ATOM     27  C   UNL     1      37.956 -24.750 -13.800  0.00  0.00    +0.004 C 
ATOM     28  C   UNL     1      35.167 -24.755 -13.717  0.00  0.00    +0.092 C 
ATOM     29  C   UNL     1      37.295 -24.907 -12.581  0.00  0.00    +0.036 C 
ATOM     30  C   UNL     1      35.901 -24.909 -12.540  0.00  0.00    +0.152 C 
ATOM     31  C   UNL     1      37.223 -24.595 -14.977  0.00  0.00    -0.001 C 
ATOM     32  C   UNL     1      35.829 -24.598 -14.935  0.00  0.00    +0.018 C 
BRANCH  30  33
ATOM     33  O   UNL     1      35.273 -25.064 -11.340  0.00  0.00    -0.470 OA
ATOM     34  C   UNL     1      35.671 -24.191 -10.284  0.00  0.00    +0.253 C 
ENDBRANCH  30  33
BRANCH  27  35
ATOM     35  C   UNL     1      39.447 -24.749 -13.845  0.00  0.00    +0.177 C 
BRANCH  35  36
ATOM     36  S   UNL     1      39.964 -26.193 -14.716  0.00  0.00    -0.004 S 
ATOM     37  O   UNL     1      38.867 -27.146 -14.711  0.00  0.00    -0.173 OA
ATOM     38  O   UNL     1      40.575 -25.777 -15.967  0.00  0.00    -0.173 OA
ATOM     39  C   UNL     1      41.253 -26.855 -13.685  0.00  0.00    +0.176 C 
ENDBRANCH  35  36
ENDBRANCH  27  35
ENDBRANCH   1  28
TORSDOF 6
ENDMDL
MODEL 2
REMARK VINA RESULT:      -9.9      3.238      7.340
REMARK  Name = 25113171
REMARK  6 active torsions:
REMARK  status: ('A' for Active; 'I' for Inactive)
REMARK    1  A    between atoms: N_1  and  C_28
REMARK    2  A    between atoms: N_2  and  C_16
REMARK    3  A    between atoms: C_17  and  C_24
REMARK    4  A    between atoms: C_27  and  C_35
REMARK    5  A    between atoms: C_30  and  O_33
REMARK    6  A    between atoms: C_35  and  S_36
REMARK                            x       y       z     vdW  Elec       q    Type
REMARK                         _______ _______ _______ _____ _____    ______ ____
ROOT
ATOM      1  N   UNL     1      32.341 -22.256 -18.154  0.00  0.00    -0.235 N 
ATOM      2  N   UNL     1      34.608 -24.252 -14.517  0.00  0.00    -0.290 N 
ATOM      3  N   UNL     1      29.948 -24.393 -14.669  0.00  0.00    -0.289 N 
ATOM      4  N   UNL     1      33.442 -23.251 -16.344  0.00  0.00    -0.316 NA
ATOM      5  N   UNL     1      31.013 -23.269 -16.517  0.00  0.00    -0.316 NA
ATOM      6  C   UNL     1      32.177 -24.304 -14.634  0.00  0.00    +0.159 C 
ATOM      7  C   UNL     1      33.407 -23.930 -15.174  0.00  0.00    +0.186 C 
ATOM      8  C   UNL     1      31.044 -23.943 -15.354  0.00  0.00    +0.186 C 
ATOM      9  C   UNL     1      32.259 -22.967 -16.935  0.00  0.00    +0.205 C 
ATOM     10  C   UNL     1      31.730 -24.996 -13.480  0.00  0.00    +0.006 C 
ATOM     11  C   UNL     1      30.353 -25.037 -13.528  0.00  0.00    +0.060 C 
ATOM     12  H   UNL     1      31.464 -22.064 -18.560  0.00  0.00    +0.166 HD
ATOM     13  H   UNL     1      34.478 -24.747 -13.677  0.00  0.00    +0.154 HD
ATOM     14  H   UNL     1      29.013 -24.275 -14.952  0.00  0.00    +0.154 HD
ENDROOT
BRANCH   2  16
ATOM     15  F   UNL     1      39.299 -25.212 -13.993  0.00  0.00    -0.204 F 
ATOM     16  C   UNL     1      35.963 -24.006 -14.825  0.00  0.00    +0.056 C 
ATOM     17  C   UNL     1      36.980 -24.756 -14.234  0.00  0.00    +0.094 C 
ATOM     18  C   UNL     1      36.280 -22.994 -15.731  0.00  0.00    +0.015 C 
ATOM     19  C   UNL     1      38.313 -24.496 -14.552  0.00  0.00    +0.146 C 
ATOM     20  C   UNL     1      37.613 -22.734 -16.049  0.00  0.00    +0.004 C 
ATOM     21  C   UNL     1      38.629 -23.485 -15.460  0.00  0.00    +0.030 C 
BRANCH  17  24
ATOM     22  O   UNL     1      36.314 -25.564 -12.124  0.00  0.00    -0.270 OA
ATOM     23  N   UNL     1      36.793 -27.132 -13.728  0.00  0.00    -0.325 N 
ATOM     24  C   UNL     1      36.678 -25.819 -13.284  0.00  0.00    +0.246 C 
ATOM     25  H   UNL     1      36.597 -27.878 -13.115  0.00  0.00    +0.145 HD
ATOM     26  H   UNL     1      37.069 -27.316 -14.655  0.00  0.00    +0.145 HD
ENDBRANCH  17  24
ENDBRANCH   2  16
BRANCH   1  28
ATOM     27  C   UNL     1      35.604 -20.827 -20.370  0.00  0.00    +0.004 C 
ATOM     28  C   UNL     1      33.428 -21.770 -18.900  0.00  0.00    +0.092 C 
ATOM     29  C   UNL     1      34.349 -20.238 -20.526  0.00  0.00    +0.036 C 
ATOM     30  C   UNL     1      33.261 -20.710 -19.792  0.00  0.00    +0.152 C 
ATOM     31  C   UNL     1      35.771 -21.888 -19.480  0.00  0.00    -0.001 C 
ATOM     32  C   UNL     1      34.683 -22.359 -18.745  0.00  0.00    +0.018 C 
BRANCH  30  33
ATOM     33  O   UNL     1      32.043 -20.120 -19.957  0.00  0.00    -0.470 OA
ATOM     34  C   UNL     1      32.006 -18.917 -20.722  0.00  0.00    +0.253 C 
ENDBRANCH  30  33
BRANCH  27  35
ATOM     35  C   UNL     1      36.768 -20.323 -21.155  0.00  0.00    +0.177 C 
BRANCH  35  36
ATOM     36  S   UNL     1      36.380 -18.697 -21.717  0.00  0.00    -0.004 S 
ATOM     37  O   UNL     1      35.731 -17.982 -20.630  0.00  0.00    -0.173 OA
ATOM     38  O   UNL     1      37.557 -18.144 -22.365  0.00  0.00    -0.173 OA
ATOM     39  C   UNL     1      35.156 -18.978 -22.977  0.00  0.00    +0.176 C 
ENDBRANCH  35  36
ENDBRANCH  27  35
ENDBRANCH   1  28
TORSDOF 6
ENDMDL
MODEL 3
REMARK VINA RESULT:      -9.1     14.311     18.680
REMARK  Name = 25113171
REMARK  6 active torsions:
REMARK  status: ('A' for Active; 'I' for Inactive)
REMARK    1  A    between atoms: N_1  and  C_28
REMARK    2  A    between atoms: N_2  and  C_16
REMARK    3  A    between atoms: C_17  and  C_24
REMARK    4  A    between atoms: C_27  and  C_35
REMARK    5  A    between atoms: C_30  and  O_33
REMARK    6  A    between atoms: C_35  and  S_36
REMARK                            x       y       z     vdW  Elec       q    Type
REMARK                         _______ _______ _______ _____ _____    ______ ____
ROOT
ATOM      1  N   UNL     1      32.425  -6.878 -22.949  0.00  0.00    -0.235 N 
ATOM      2  N   UNL     1      33.382 -11.451 -23.667  0.00  0.00    -0.290 N 
ATOM      3  N   UNL     1      31.150 -10.158 -19.780  0.00  0.00    -0.289 N 
ATOM      4  N   UNL     1      32.888  -9.147 -23.283  0.00  0.00    -0.316 NA
ATOM      5  N   UNL     1      31.729  -8.369 -21.289  0.00  0.00    -0.316 NA
ATOM      6  C   UNL     1      32.219 -10.735 -21.651  0.00  0.00    +0.159 C 
ATOM      7  C   UNL     1      32.829 -10.434 -22.868  0.00  0.00    +0.186 C 
ATOM      8  C   UNL     1      31.701  -9.665 -20.932  0.00  0.00    +0.186 C 
ATOM      9  C   UNL     1      32.341  -8.207 -22.479  0.00  0.00    +0.205 C 
ATOM     10  C   UNL     1      31.962 -11.906 -20.893  0.00  0.00    +0.006 C 
ATOM     11  C   UNL     1      31.301 -11.521 -19.746  0.00  0.00    +0.060 C 
ATOM     12  H   UNL     1      32.019  -6.216 -22.343  0.00  0.00    +0.166 HD
ATOM     13  H   UNL     1      33.288 -12.351 -23.281  0.00  0.00    +0.154 HD
ATOM     14  H   UNL     1      30.711  -9.619 -19.083  0.00  0.00    +0.154 HD
ENDROOT
BRANCH   2  16
ATOM     15  F   UNL     1      34.327 -13.400 -27.969  0.00  0.00    -0.204 F 
ATOM     16  C   UNL     1      34.044 -11.437 -24.913  0.00  0.00    +0.056 C 
ATOM     17  C   UNL     1      33.846 -12.458 -25.841  0.00  0.00    +0.094 C 
ATOM     18  C   UNL     1      34.909 -10.384 -25.209  0.00  0.00    +0.015 C 
ATOM     19  C   UNL     1      34.511 -12.425 -27.067  0.00  0.00    +0.146 C 
ATOM     20  C   UNL     1      35.574 -10.350 -26.435  0.00  0.00    +0.004 C 
ATOM     21  C   UNL     1      35.375 -11.371 -27.363  0.00  0.00    +0.030 C 
BRANCH  17  24
ATOM     22  O   UNL     1      32.924 -14.113 -24.441  0.00  0.00    -0.270 OA
ATOM     23  N   UNL     1      32.105 -13.994 -26.580  0.00  0.00    -0.325 N 
ATOM     24  C   UNL     1      32.948 -13.571 -25.558  0.00  0.00    +0.246 C 
ATOM     25  H   UNL     1      31.484 -14.743 -26.427  0.00  0.00    +0.145 HD
ATOM     26  H   UNL     1      32.128 -13.544 -27.455  0.00  0.00    +0.145 HD
ENDBRANCH  17  24
ENDBRANCH   2  16
BRANCH   1  28
ATOM     27  C   UNL     1      34.087  -5.213 -26.424  0.00  0.00    +0.004 C 
ATOM     28  C   UNL     1      32.974  -6.313 -24.114  0.00  0.00    +0.092 C 
ATOM     29  C   UNL     1      32.855  -4.755 -25.957  0.00  0.00    +0.036 C 
ATOM     30  C   UNL     1      32.298  -5.306 -24.803  0.00  0.00    +0.152 C 
ATOM     31  C   UNL     1      34.762  -6.222 -25.737  0.00  0.00    -0.001 C 
ATOM     32  C   UNL     1      34.206  -6.772 -24.582  0.00  0.00    +0.018 C 
BRANCH  30  33
ATOM     33  O   UNL     1      31.094  -4.843 -24.361  0.00  0.00    -0.470 OA
ATOM     34  C   UNL     1      31.092  -3.589 -23.684  0.00  0.00    +0.253 C 
ENDBRANCH  30  33
BRANCH  27  35
ATOM     35  C   UNL     1      34.683  -4.624 -27.658  0.00  0.00    +0.177 C 
BRANCH  35  36
ATOM     36  S   UNL     1      33.368  -3.975 -28.638  0.00  0.00    -0.004 S 
ATOM     37  O   UNL     1      32.614  -5.089 -29.186  0.00  0.00    -0.173 OA
ATOM     38  O   UNL     1      32.699  -2.935 -27.874  0.00  0.00    -0.173 OA
ATOM     39  C   UNL     1      34.214  -3.186 -29.990  0.00  0.00    +0.176 C 
ENDBRANCH  35  36
ENDBRANCH  27  35
ENDBRANCH   1  28
TORSDOF 6
ENDMDL
MODEL 4
REMARK VINA RESULT:      -8.2      3.709      7.976
REMARK  Name = 25113171
REMARK  6 active torsions:
REMARK  status: ('A' for Active; 'I' for Inactive)
REMARK    1  A    between atoms: N_1  and  C_28
REMARK    2  A    between atoms: N_2  and  C_16
REMARK    3  A    between atoms: C_17  and  C_24
REMARK    4  A    between atoms: C_27  and  C_35
REMARK    5  A    between atoms: C_30  and  O_33
REMARK    6  A    between atoms: C_35  and  S_36
REMARK                            x       y       z     vdW  Elec       q    Type
REMARK                         _______ _______ _______ _____ _____    ______ ____
ROOT
ATOM      1  N   UNL     1      37.142 -22.017 -17.671  0.00  0.00    -0.235 N 
ATOM      2  N   UNL     1      33.723 -23.700 -14.873  0.00  0.00    -0.290 N 
ATOM      3  N   UNL     1      38.187 -24.446 -13.741  0.00  0.00    -0.289 N 
ATOM      4  N   UNL     1      35.467 -22.859 -16.271  0.00  0.00    -0.316 NA
ATOM      5  N   UNL     1      37.826 -23.194 -15.770  0.00  0.00    -0.316 NA
ATOM      6  C   UNL     1      36.065 -24.067 -14.317  0.00  0.00    +0.159 C 
ATOM      7  C   UNL     1      35.090 -23.538 -15.162  0.00  0.00    +0.186 C 
ATOM      8  C   UNL     1      37.389 -23.856 -14.684  0.00  0.00    +0.186 C 
ATOM      9  C   UNL     1      36.793 -22.731 -16.503  0.00  0.00    +0.205 C 
ATOM     10  C   UNL     1      36.084 -24.810 -13.110  0.00  0.00    +0.006 C 
ATOM     11  C   UNL     1      37.404 -25.028 -12.777  0.00  0.00    +0.060 C 
ATOM     12  H   UNL     1      38.114 -21.940 -17.813  0.00  0.00    +0.166 HD
ATOM     13  H   UNL     1      33.552 -24.205 -14.046  0.00  0.00    +0.154 HD
ATOM     14  H   UNL     1      39.171 -24.451 -13.752  0.00  0.00    +0.154 HD
ENDROOT
BRANCH   2  16
ATOM     15  F   UNL     1      28.978 -22.877 -14.934  0.00  0.00    -0.204 F 
ATOM     16  C   UNL     1      32.549 -23.281 -15.533  0.00  0.00    +0.056 C 
ATOM     17  C   UNL     1      31.317 -23.292 -14.880  0.00  0.00    +0.094 C 
ATOM     18  C   UNL     1      32.631 -22.855 -16.859  0.00  0.00    +0.015 C 
ATOM     19  C   UNL     1      30.168 -22.874 -15.551  0.00  0.00    +0.146 C 
ATOM     20  C   UNL     1      31.482 -22.437 -17.530  0.00  0.00    +0.004 C 
ATOM     21  C   UNL     1      30.251 -22.446 -16.877  0.00  0.00    +0.030 C 
BRANCH  17  24
ATOM     22  O   UNL     1      31.634 -23.041 -12.560  0.00  0.00    -0.270 OA
ATOM     23  N   UNL     1      30.570 -24.949 -13.258  0.00  0.00    -0.325 N 
ATOM     24  C   UNL     1      31.201 -23.732 -13.495  0.00  0.00    +0.246 C 
ATOM     25  H   UNL     1      30.472 -25.280 -12.336  0.00  0.00    +0.145 HD
ATOM     26  H   UNL     1      30.220 -25.477 -14.010  0.00  0.00    +0.145 HD
ENDBRANCH  17  24
ENDBRANCH   2  16
BRANCH   1  28
ATOM     27  C   UNL     1      34.871 -20.133 -20.653  0.00  0.00    +0.004 C 
ATOM     28  C   UNL     1      36.374 -21.393 -18.670  0.00  0.00    +0.092 C 
ATOM     29  C   UNL     1      34.471 -21.374 -20.157  0.00  0.00    +0.036 C 
ATOM     30  C   UNL     1      35.223 -22.004 -19.166  0.00  0.00    +0.152 C 
ATOM     31  C   UNL     1      36.023 -19.522 -20.158  0.00  0.00    -0.001 C 
ATOM     32  C   UNL     1      36.774 -20.152 -19.165  0.00  0.00    +0.018 C 
BRANCH  30  33
ATOM     33  O   UNL     1      34.814 -23.216 -18.694  0.00  0.00    -0.470 OA
ATOM     34  C   UNL     1      34.118 -24.063 -19.605  0.00  0.00    +0.253 C 
ENDBRANCH  30  33
BRANCH  27  35
ATOM     35  C   UNL     1      34.066 -19.458 -21.713  0.00  0.00    +0.177 C 
BRANCH  35  36
ATOM     36  S   UNL     1      35.054 -18.172 -22.406  0.00  0.00    -0.004 S 
ATOM     37  O   UNL     1      34.681 -16.918 -21.772  0.00  0.00    -0.173 OA
ATOM     38  O   UNL     1      36.439 -18.613 -22.414  0.00  0.00    -0.173 OA
ATOM     39  C   UNL     1      34.506 -18.099 -24.097  0.00  0.00    +0.176 C 
ENDBRANCH  35  36
ENDBRANCH  27  35
ENDBRANCH   1  28
TORSDOF 6
ENDMDL
MODEL 5
REMARK VINA RESULT:      -8.0      2.964      5.592
REMARK  Name = 25113171
REMARK  6 active torsions:
REMARK  status: ('A' for Active; 'I' for Inactive)
REMARK    1  A    between atoms: N_1  and  C_28
REMARK    2  A    between atoms: N_2  and  C_16
REMARK    3  A    between atoms: C_17  and  C_24
REMARK    4  A    between atoms: C_27  and  C_35
REMARK    5  A    between atoms: C_30  and  O_33
REMARK    6  A    between atoms: C_35  and  S_36
REMARK                            x       y       z     vdW  Elec       q    Type
REMARK                         _______ _______ _______ _____ _____    ______ ____
ROOT
ATOM      1  N   UNL     1      36.777 -22.804 -16.376  0.00  0.00    -0.235 N 
ATOM      2  N   UNL     1      32.121 -22.936 -17.182  0.00  0.00    -0.290 N 
ATOM      3  N   UNL     1      34.946 -21.034 -20.370  0.00  0.00    -0.289 N 
ATOM      4  N   UNL     1      34.476 -22.859 -16.796  0.00  0.00    -0.316 NA
ATOM      5  N   UNL     1      36.035 -21.888 -18.395  0.00  0.00    -0.316 NA
ATOM      6  C   UNL     1      33.629 -21.952 -18.820  0.00  0.00    +0.159 C 
ATOM      7  C   UNL     1      33.419 -22.583 -17.595  0.00  0.00    +0.186 C 
ATOM      8  C   UNL     1      34.945 -21.642 -19.143  0.00  0.00    +0.186 C 
ATOM      9  C   UNL     1      35.702 -22.499 -17.240  0.00  0.00    +0.205 C 
ATOM     10  C   UNL     1      32.823 -21.510 -19.900  0.00  0.00    +0.006 C 
ATOM     11  C   UNL     1      33.661 -20.950 -20.840  0.00  0.00    +0.060 C 
ATOM     12  H   UNL     1      37.656 -22.530 -16.726  0.00  0.00    +0.166 HD
ATOM     13  H   UNL     1      31.421 -22.696 -17.830  0.00  0.00    +0.154 HD
ATOM     14  H   UNL     1      35.746 -20.708 -20.842  0.00  0.00    +0.154 HD
ENDROOT
BRANCH   2  16
ATOM     15  F   UNL     1      28.465 -24.478 -14.451  0.00  0.00    -0.204 F 
ATOM     16  C   UNL     1      31.624 -23.567 -16.021  0.00  0.00    +0.056 C 
ATOM     17  C   UNL     1      30.252 -23.708 -15.814  0.00  0.00    +0.094 C 
ATOM     18  C   UNL     1      32.525 -24.051 -15.073  0.00  0.00    +0.015 C 
ATOM     19  C   UNL     1      29.782 -24.334 -14.660  0.00  0.00    +0.146 C 
ATOM     20  C   UNL     1      32.055 -24.677 -13.919  0.00  0.00    +0.004 C 
ATOM     21  C   UNL     1      30.683 -24.819 -13.713  0.00  0.00    +0.030 C 
BRANCH  17  24
ATOM     22  O   UNL     1      29.319 -22.036 -17.187  0.00  0.00    -0.270 OA
ATOM     23  N   UNL     1      28.340 -24.108 -17.270  0.00  0.00    -0.325 N 
ATOM     24  C   UNL     1      29.287 -23.211 -16.788  0.00  0.00    +0.246 C 
ATOM     25  H   UNL     1      27.671 -23.811 -17.929  0.00  0.00    +0.145 HD
ATOM     26  H   UNL     1      28.337 -25.040 -16.953  0.00  0.00    +0.145 HD
ENDBRANCH  17  24
ENDBRANCH   2  16
BRANCH   1  28
ATOM     27  C   UNL     1      36.965 -24.622 -12.599  0.00  0.00    +0.004 C 
ATOM     28  C   UNL     1      36.838 -23.422 -15.114  0.00  0.00    +0.092 C 
ATOM     29  C   UNL     1      36.659 -25.390 -13.724  0.00  0.00    +0.036 C 
ATOM     30  C   UNL     1      36.595 -24.789 -14.981  0.00  0.00    +0.152 C 
ATOM     31  C   UNL     1      37.207 -23.255 -12.732  0.00  0.00    -0.001 C 
ATOM     32  C   UNL     1      37.145 -22.655 -13.990  0.00  0.00    +0.018 C 
BRANCH  30  33
ATOM     33  O   UNL     1      36.296 -25.556 -16.067  0.00  0.00    -0.470 OA
ATOM     34  C   UNL     1      36.396 -26.970 -15.908  0.00  0.00    +0.253 C 
ENDBRANCH  30  33
BRANCH  27  35
ATOM     35  C   UNL     1      37.035 -25.264 -11.254  0.00  0.00    +0.177 C 
BRANCH  35  36
ATOM     36  S   UNL     1      35.818 -24.504 -10.228  0.00  0.00    -0.004 S 
ATOM     37  O   UNL     1      35.142 -25.546  -9.474  0.00  0.00    -0.173 OA
ATOM     38  O   UNL     1      36.436 -23.380  -9.544  0.00  0.00    -0.173 OA
ATOM     39  C   UNL     1      34.650 -23.844 -11.395  0.00  0.00    +0.176 C 
ENDBRANCH  35  36
ENDBRANCH  27  35
ENDBRANCH   1  28
TORSDOF 6
ENDMDL
