MODEL 1
REMARK VINA RESULT:      -4.9      0.000      0.000
REMARK  Name = 75367
REMARK  3 active torsions:
REMARK  status: ('A' for Active; 'I' for Inactive)
REMARK    1  A    between atoms: C_1  and  C_4
REMARK    2  A    between atoms: C_1  and  C_8
REMARK    3  A    between atoms: C_8  and  O_9
REMARK                            x       y       z     vdW  Elec       q    Type
REMARK                         _______ _______ _______ _____ _____    ______ ____
ROOT
ATOM      1  C   UNL     1      39.290 -25.449 -13.904  0.00  0.00    +0.194 C 
ENDROOT
BRANCH   1   4
ATOM      2  O   UNL     1      38.329 -23.599 -15.122  0.00  0.00    -0.275 OA
ATOM      3  N   UNL     1      37.297 -25.652 -15.236  0.00  0.00    -0.328 N 
ATOM      4  C   UNL     1      38.274 -24.784 -14.802  0.00  0.00    +0.231 C 
ATOM      5  H   UNL     1      36.581 -25.330 -15.828  0.00  0.00    +0.145 HD
ATOM      6  H   UNL     1      37.317 -26.596 -14.955  0.00  0.00    +0.145 HD
ENDBRANCH   1   4
BRANCH   1   8
ATOM      7  O   UNL     1      41.308 -26.762 -14.072  0.00  0.00    -0.250 OA
ATOM      8  C   UNL     1      40.440 -26.099 -14.624  0.00  0.00    +0.323 C 
BRANCH   8   9
ATOM      9  O   UNL     1      40.421 -25.856 -15.959  0.00  0.00    -0.480 OA
ATOM     10  H   UNL     1      41.082 -25.316 -16.346  0.00  0.00    +0.295 HD
ENDBRANCH   8   9
ENDBRANCH   1   8
TORSDOF 3
ENDMDL
MODEL 2
REMARK VINA RESULT:      -4.8      1.604      1.656
REMARK  Name = 75367
REMARK  3 active torsions:
REMARK  status: ('A' for Active; 'I' for Inactive)
REMARK    1  A    between atoms: C_1  and  C_4
REMARK    2  A    between atoms: C_1  and  C_8
REMARK    3  A    between atoms: C_8  and  O_9
REMARK                            x       y       z     vdW  Elec       q    Type
REMARK                         _______ _______ _______ _____ _____    ______ ____
ROOT
ATOM      1  C   UNL     1      38.967 -25.619 -14.173  0.00  0.00    +0.194 C 
ENDROOT
BRANCH   1   4
ATOM      2  O   UNL     1      37.453 -26.711 -15.704  0.00  0.00    -0.275 OA
ATOM      3  N   UNL     1      37.097 -26.945 -13.443  0.00  0.00    -0.328 N 
ATOM      4  C   UNL     1      37.772 -26.466 -14.544  0.00  0.00    +0.231 C 
ATOM      5  H   UNL     1      36.300 -27.510 -13.563  0.00  0.00    +0.145 HD
ATOM      6  H   UNL     1      37.413 -26.724 -12.537  0.00  0.00    +0.145 HD
ENDBRANCH   1   4
BRANCH   1   8
ATOM      7  O   UNL     1      41.183 -26.570 -14.097  0.00  0.00    -0.250 OA
ATOM      8  C   UNL     1      40.274 -26.083 -14.755  0.00  0.00    +0.323 C 
BRANCH   8   9
ATOM      9  O   UNL     1      40.345 -25.887 -16.096  0.00  0.00    -0.480 OA
ATOM     10  H   UNL     1      39.811 -25.231 -16.502  0.00  0.00    +0.295 HD
ENDBRANCH   8   9
ENDBRANCH   1   8
TORSDOF 3
ENDMDL
MODEL 3
REMARK VINA RESULT:      -4.5      2.215      2.342
REMARK  Name = 75367
REMARK  3 active torsions:
REMARK  status: ('A' for Active; 'I' for Inactive)
REMARK    1  A    between atoms: C_1  and  C_4
REMARK    2  A    between atoms: C_1  and  C_8
REMARK    3  A    between atoms: C_8  and  O_9
REMARK                            x       y       z     vdW  Elec       q    Type
REMARK                         _______ _______ _______ _____ _____    ______ ____
ROOT
ATOM      1  C   UNL     1      38.659 -25.444 -13.128  0.00  0.00    +0.194 C 
ENDROOT
BRANCH   1   4
ATOM      2  O   UNL     1      36.816 -26.172 -11.749  0.00  0.00    -0.275 OA
ATOM      3  N   UNL     1      36.911 -26.888 -13.933  0.00  0.00    -0.328 N 
ATOM      4  C   UNL     1      37.381 -26.195 -12.839  0.00  0.00    +0.231 C 
ATOM      5  H   UNL     1      36.083 -27.415 -13.863  0.00  0.00    +0.145 HD
ATOM      6  H   UNL     1      37.403 -26.854 -14.785  0.00  0.00    +0.145 HD
ENDBRANCH   1   4
BRANCH   1   8
ATOM      7  O   UNL     1      40.041 -26.673 -14.678  0.00  0.00    -0.250 OA
ATOM      8  C   UNL     1      39.276 -25.741 -14.467  0.00  0.00    +0.323 C 
BRANCH   8   9
ATOM      9  O   UNL     1      38.905 -24.849 -15.420  0.00  0.00    -0.480 OA
ATOM     10  H   UNL     1      38.331 -25.115 -16.113  0.00  0.00    +0.295 HD
ENDBRANCH   8   9
ENDBRANCH   1   8
TORSDOF 3
ENDMDL
MODEL 4
REMARK VINA RESULT:      -4.5      2.625      3.339
REMARK  Name = 75367
REMARK  3 active torsions:
REMARK  status: ('A' for Active; 'I' for Inactive)
REMARK    1  A    between atoms: C_1  and  C_4
REMARK    2  A    between atoms: C_1  and  C_8
REMARK    3  A    between atoms: C_8  and  O_9
REMARK                            x       y       z     vdW  Elec       q    Type
REMARK                         _______ _______ _______ _____ _____    ______ ____
ROOT
ATOM      1  C   UNL     1      38.617 -25.508 -13.029  0.00  0.00    +0.194 C 
ENDROOT
BRANCH   1   4
ATOM      2  O   UNL     1      39.865 -26.697 -14.719  0.00  0.00    -0.275 OA
ATOM      3  N   UNL     1      38.705 -24.806 -15.328  0.00  0.00    -0.328 N 
ATOM      4  C   UNL     1      39.142 -25.750 -14.425  0.00  0.00    +0.231 C 
ATOM      5  H   UNL     1      38.983 -24.862 -16.270  0.00  0.00    +0.145 HD
ATOM      6  H   UNL     1      38.113 -24.078 -15.031  0.00  0.00    +0.145 HD
ENDBRANCH   1   4
BRANCH   1   8
ATOM      7  O   UNL     1      36.655 -25.973 -11.702  0.00  0.00    -0.250 OA
ATOM      8  C   UNL     1      37.290 -26.153 -12.733  0.00  0.00    +0.323 C 
BRANCH   8   9
ATOM      9  O   UNL     1      36.876 -26.972 -13.733  0.00  0.00    -0.480 OA
ATOM     10  H   UNL     1      35.961 -27.054 -13.923  0.00  0.00    +0.295 HD
ENDBRANCH   8   9
ENDBRANCH   1   8
TORSDOF 3
ENDMDL
MODEL 5
REMARK VINA RESULT:      -4.3      3.877      4.498
REMARK  Name = 75367
REMARK  3 active torsions:
REMARK  status: ('A' for Active; 'I' for Inactive)
REMARK    1  A    between atoms: C_1  and  C_4
REMARK    2  A    between atoms: C_1  and  C_8
REMARK    3  A    between atoms: C_8  and  O_9
REMARK                            x       y       z     vdW  Elec       q    Type
REMARK                         _______ _______ _______ _____ _____    ______ ____
ROOT
ATOM      1  C   UNL     1      36.883 -25.054 -12.274  0.00  0.00    +0.194 C 
ENDROOT
BRANCH   1   4
ATOM      2  O   UNL     1      35.297 -24.992 -10.454  0.00  0.00    -0.275 OA
ATOM      3  N   UNL     1      34.942 -23.633 -12.276  0.00  0.00    -0.328 N 
ATOM      4  C   UNL     1      35.637 -24.583 -11.560  0.00  0.00    +0.231 C 
ATOM      5  H   UNL     1      34.112 -23.252 -11.909  0.00  0.00    +0.145 HD
ATOM      6  H   UNL     1      35.276 -23.335 -13.153  0.00  0.00    +0.145 HD
ENDBRANCH   1   4
BRANCH   1   8
ATOM      7  O   UNL     1      39.113 -24.279 -12.772  0.00  0.00    -0.250 OA
ATOM      8  C   UNL     1      38.063 -24.128 -12.161  0.00  0.00    +0.323 C 
BRANCH   8   9
ATOM      9  O   UNL     1      37.844 -23.109 -11.292  0.00  0.00    -0.480 OA
ATOM     10  H   UNL     1      38.311 -23.079 -10.479  0.00  0.00    +0.295 HD
ENDBRANCH   8   9
ENDBRANCH   1   8
TORSDOF 3
ENDMDL
MODEL 6
REMARK VINA RESULT:      -4.3     10.562     11.006
REMARK  Name = 75367
REMARK  3 active torsions:
REMARK  status: ('A' for Active; 'I' for Inactive)
REMARK    1  A    between atoms: C_1  and  C_4
REMARK    2  A    between atoms: C_1  and  C_8
REMARK    3  A    between atoms: C_8  and  O_9
REMARK                            x       y       z     vdW  Elec       q    Type
REMARK                         _______ _______ _______ _____ _____    ______ ____
ROOT
ATOM      1  C   UNL     1      40.953 -15.457 -15.324  0.00  0.00    +0.194 C 
ENDROOT
BRANCH   1   4
ATOM      2  O   UNL     1      40.481 -13.636 -13.810  0.00  0.00    -0.275 OA
ATOM      3  N   UNL     1      41.827 -13.237 -15.632  0.00  0.00    -0.328 N 
ATOM      4  C   UNL     1      41.040 -14.032 -14.829  0.00  0.00    +0.231 C 
ATOM      5  H   UNL     1      41.958 -12.287 -15.407  0.00  0.00    +0.145 HD
ATOM      6  H   UNL     1      42.261 -13.618 -16.429  0.00  0.00    +0.145 HD
ENDBRANCH   1   4
BRANCH   1   8
ATOM      7  O   UNL     1      43.047 -16.240 -16.233  0.00  0.00    -0.250 OA
ATOM      8  C   UNL     1      41.919 -15.803 -16.423  0.00  0.00    +0.323 C 
BRANCH   8   9
ATOM      9  O   UNL     1      41.409 -15.563 -17.658  0.00  0.00    -0.480 OA
ATOM     10  H   UNL     1      40.493 -15.684 -17.817  0.00  0.00    +0.295 HD
ENDBRANCH   8   9
ENDBRANCH   1   8
TORSDOF 3
ENDMDL
MODEL 7
REMARK VINA RESULT:      -4.3     10.613     11.310
REMARK  Name = 75367
REMARK  3 active torsions:
REMARK  status: ('A' for Active; 'I' for Inactive)
REMARK    1  A    between atoms: C_1  and  C_4
REMARK    2  A    between atoms: C_1  and  C_8
REMARK    3  A    between atoms: C_8  and  O_9
REMARK                            x       y       z     vdW  Elec       q    Type
REMARK                         _______ _______ _______ _____ _____    ______ ____
ROOT
ATOM      1  C   UNL     1      41.390 -14.910 -17.150  0.00  0.00    +0.194 C 
ENDROOT
BRANCH   1   4
ATOM      2  O   UNL     1      42.073 -12.640 -17.608  0.00  0.00    -0.275 OA
ATOM      3  N   UNL     1      41.755 -13.278 -15.421  0.00  0.00    -0.328 N 
ATOM      4  C   UNL     1      41.781 -13.499 -16.780  0.00  0.00    +0.231 C 
ATOM      5  H   UNL     1      41.991 -12.392 -15.062  0.00  0.00    +0.145 HD
ATOM      6  H   UNL     1      41.498 -14.005 -14.809  0.00  0.00    +0.145 HD
ENDBRANCH   1   4
BRANCH   1   8
ATOM      7  O   UNL     1      42.464 -16.503 -15.689  0.00  0.00    -0.250 OA
ATOM      8  C   UNL     1      41.452 -15.899 -16.018  0.00  0.00    +0.323 C 
BRANCH   8   9
ATOM      9  O   UNL     1      40.252 -16.064 -15.405  0.00  0.00    -0.480 OA
ATOM     10  H   UNL     1      40.216 -16.217 -14.481  0.00  0.00    +0.295 HD
ENDBRANCH   8   9
ENDBRANCH   1   8
TORSDOF 3
ENDMDL
MODEL 8
REMARK VINA RESULT:      -4.3      9.489     11.081
REMARK  Name = 75367
REMARK  3 active torsions:
REMARK  status: ('A' for Active; 'I' for Inactive)
REMARK    1  A    between atoms: C_1  and  C_4
REMARK    2  A    between atoms: C_1  and  C_8
REMARK    3  A    between atoms: C_8  and  O_9
REMARK                            x       y       z     vdW  Elec       q    Type
REMARK                         _______ _______ _______ _____ _____    ______ ____
ROOT
ATOM      1  C   UNL     1      28.726 -23.180 -15.601  0.00  0.00    +0.194 C 
ENDROOT
BRANCH   1   4
ATOM      2  O   UNL     1      30.939 -22.879 -14.683  0.00  0.00    -0.275 OA
ATOM      3  N   UNL     1      30.642 -22.635 -16.951  0.00  0.00    -0.328 N 
ATOM      4  C   UNL     1      30.206 -22.882 -15.668  0.00  0.00    +0.231 C 
ATOM      5  H   UNL     1      31.589 -22.429 -17.117  0.00  0.00    +0.145 HD
ATOM      6  H   UNL     1      30.005 -22.666 -17.701  0.00  0.00    +0.145 HD
ENDBRANCH   1   4
BRANCH   1   8
ATOM      7  O   UNL     1      27.708 -23.846 -17.684  0.00  0.00    -0.250 OA
ATOM      8  C   UNL     1      27.979 -22.958 -16.887  0.00  0.00    +0.323 C 
BRANCH   8   9
ATOM      9  O   UNL     1      27.647 -21.656 -17.078  0.00  0.00    -0.480 OA
ATOM     10  H   UNL     1      26.867 -21.436 -17.550  0.00  0.00    +0.295 HD
ENDBRANCH   8   9
ENDBRANCH   1   8
TORSDOF 3
ENDMDL
MODEL 9
REMARK VINA RESULT:      -4.3      2.568      3.308
REMARK  Name = 75367
REMARK  3 active torsions:
REMARK  status: ('A' for Active; 'I' for Inactive)
REMARK    1  A    between atoms: C_1  and  C_4
REMARK    2  A    between atoms: C_1  and  C_8
REMARK    3  A    between atoms: C_8  and  O_9
REMARK                            x       y       z     vdW  Elec       q    Type
REMARK                         _______ _______ _______ _____ _____    ______ ____
ROOT
ATOM      1  C   UNL     1      37.788 -26.442 -14.225  0.00  0.00    +0.194 C 
ENDROOT
BRANCH   1   4
ATOM      2  O   UNL     1      39.385 -24.762 -13.550  0.00  0.00    -0.275 OA
ATOM      3  N   UNL     1      38.097 -24.374 -15.415  0.00  0.00    -0.328 N 
ATOM      4  C   UNL     1      38.511 -25.120 -14.334  0.00  0.00    +0.231 C 
ATOM      5  H   UNL     1      38.499 -23.493 -15.588  0.00  0.00    +0.145 HD
ATOM      6  H   UNL     1      37.400 -24.724 -16.017  0.00  0.00    +0.145 HD
ENDBRANCH   1   4
BRANCH   1   8
ATOM      7  O   UNL     1      36.747 -27.306 -16.224  0.00  0.00    -0.250 OA
ATOM      8  C   UNL     1      36.664 -26.630 -15.207  0.00  0.00    +0.323 C 
BRANCH   8   9
ATOM      9  O   UNL     1      35.544 -25.952 -14.850  0.00  0.00    -0.480 OA
ATOM     10  H   UNL     1      35.131 -25.375 -15.463  0.00  0.00    +0.295 HD
ENDBRANCH   8   9
ENDBRANCH   1   8
TORSDOF 3
ENDMDL
