MODEL 1
REMARK VINA RESULT:      -9.2      0.000      0.000
REMARK  Name = 23653533
REMARK  9 active torsions:
REMARK  status: ('A' for Active; 'I' for Inactive)
REMARK    1  A    between atoms: N_2  and  C_24
REMARK    2  A    between atoms: C_3  and  C_5
REMARK    3  A    between atoms: C_10  and  O_13
REMARK    4  A    between atoms: O_13  and  C_14
REMARK    5  A    between atoms: C_14  and  C_15
REMARK    6  A    between atoms: C_15  and  N_16
REMARK    7  A    between atoms: C_21  and  N_27
REMARK    8  A    between atoms: C_26  and  O_33
REMARK    9  A    between atoms: O_33  and  C_34
REMARK                            x       y       z     vdW  Elec       q    Type
REMARK                         _______ _______ _______ _____ _____    ______ ____
ROOT
ATOM      1  O   UNL     1      34.910  -9.881 -24.001  0.00  0.00    -0.270 OA
ATOM      2  N   UNL     1      32.668  -9.833 -23.292  0.00  0.00    -0.278 N 
ATOM      3  C   UNL     1      33.825 -10.424 -23.815  0.00  0.00    +0.250 C 
ATOM      4  H   UNL     1      31.883 -10.421 -23.211  0.00  0.00    +0.155 HD
ENDROOT
BRANCH   3   5
ATOM      5  C   UNL     1      33.692 -11.853 -24.200  0.00  0.00    +0.053 C 
ATOM      6  C   UNL     1      33.474 -13.518 -25.898  0.00  0.00    +0.012 C 
ATOM      7  C   UNL     1      33.542 -14.151 -23.568  0.00  0.00    +0.012 C 
ATOM      8  C   UNL     1      33.666 -12.809 -23.207  0.00  0.00    +0.003 C 
ATOM      9  C   UNL     1      33.599 -12.176 -25.538  0.00  0.00    +0.003 C 
ATOM     10  C   UNL     1      33.446 -14.506 -24.914  0.00  0.00    +0.130 C 
ATOM     11  C   UNL     1      33.373 -13.878 -27.344  0.00  0.00    +0.034 C 
ATOM     12  C   UNL     1      33.514 -15.194 -22.499  0.00  0.00    +0.034 C 
BRANCH  10  13
ATOM     13  O   UNL     1      33.324 -15.817 -25.266  0.00  0.00    -0.478 OA
BRANCH  13  14
ATOM     14  C   UNL     1      34.531 -16.539 -25.497  0.00  0.00    +0.182 C 
BRANCH  14  15
ATOM     15  C   UNL     1      34.455 -17.868 -24.762  0.00  0.00    -0.038 C 
BRANCH  15  16
ATOM     16  N   UNL     1      35.551 -17.994 -23.812  0.00  0.00    +0.383 N 
ATOM     17  H   UNL     1      36.396 -18.283 -24.306  0.00  0.00    -0.089 HD
ATOM     18  H   UNL     1      35.312 -18.695 -23.110  0.00  0.00    -0.089 HD
ATOM     19  H   UNL     1      35.712 -17.096 -23.357  0.00  0.00    -0.089 HD
ENDBRANCH  15  16
ENDBRANCH  14  15
ENDBRANCH  13  14
ENDBRANCH  10  13
ENDBRANCH   3   5
BRANCH   2  24
ATOM     20 CL   UNL     1      32.261  -6.443 -19.441  0.00  0.00    -0.079 Cl
ATOM     21  C   UNL     1      32.159  -6.165 -23.444  0.00  0.00    +0.050 C 
ATOM     22  C   UNL     1      32.338  -7.509 -23.828  0.00  0.00    +0.032 C 
ATOM     23  C   UNL     1      32.140  -5.865 -22.068  0.00  0.00    +0.029 C 
ATOM     24  C   UNL     1      32.492  -8.513 -22.872  0.00  0.00    +0.087 C 
ATOM     25  C   UNL     1      32.294  -6.870 -21.112  0.00  0.00    +0.094 C 
ATOM     26  C   UNL     1      32.470  -8.194 -21.514  0.00  0.00    +0.162 C 
BRANCH  21  27
ATOM     27  N   UNL     1      32.004  -5.157 -24.403  0.00  0.00    -0.307 N 
ATOM     28  C   UNL     1      31.756  -2.989 -26.291  0.00  0.00    +0.004 C 
ATOM     29  C   UNL     1      30.783  -3.145 -25.129  0.00  0.00    +0.021 C 
ATOM     30  C   UNL     1      32.295  -4.351 -26.712  0.00  0.00    +0.021 C 
ATOM     31  C   UNL     1      31.427  -3.882 -23.957  0.00  0.00    +0.091 C 
ATOM     32  C   UNL     1      32.933  -5.092 -25.537  0.00  0.00    +0.091 C 
ENDBRANCH  21  27
BRANCH  26  33
ATOM     33  O   UNL     1      32.622  -9.181 -20.585  0.00  0.00    -0.473 OA
BRANCH  33  34
ATOM     34  C   UNL     1      31.431  -9.756 -20.054  0.00  0.00    +0.206 C 
ATOM     35  C   UNL     1      31.533 -11.264 -20.131  0.00  0.00    +0.051 C 
ENDBRANCH  33  34
ENDBRANCH  26  33
ENDBRANCH   2  24
TORSDOF 9
ENDMDL
MODEL 2
REMARK VINA RESULT:      -9.2      0.029      1.543
REMARK  Name = 23653533
REMARK  9 active torsions:
REMARK  status: ('A' for Active; 'I' for Inactive)
REMARK    1  A    between atoms: N_2  and  C_24
REMARK    2  A    between atoms: C_3  and  C_5
REMARK    3  A    between atoms: C_10  and  O_13
REMARK    4  A    between atoms: O_13  and  C_14
REMARK    5  A    between atoms: C_14  and  C_15
REMARK    6  A    between atoms: C_15  and  N_16
REMARK    7  A    between atoms: C_21  and  N_27
REMARK    8  A    between atoms: C_26  and  O_33
REMARK    9  A    between atoms: O_33  and  C_34
REMARK                            x       y       z     vdW  Elec       q    Type
REMARK                         _______ _______ _______ _____ _____    ______ ____
ROOT
ATOM      1  O   UNL     1      34.901  -9.907 -23.989  0.00  0.00    -0.270 OA
ATOM      2  N   UNL     1      32.655  -9.847 -23.296  0.00  0.00    -0.278 N 
ATOM      3  C   UNL     1      33.812 -10.444 -23.811  0.00  0.00    +0.250 C 
ATOM      4  H   UNL     1      31.865 -10.431 -23.221  0.00  0.00    +0.155 HD
ENDROOT
BRANCH   3   5
ATOM      5  C   UNL     1      33.673 -11.872 -24.199  0.00  0.00    +0.053 C 
ATOM      6  C   UNL     1      33.506 -14.170 -23.573  0.00  0.00    +0.012 C 
ATOM      7  C   UNL     1      33.452 -13.532 -25.902  0.00  0.00    +0.012 C 
ATOM      8  C   UNL     1      33.584 -12.192 -25.538  0.00  0.00    +0.003 C 
ATOM      9  C   UNL     1      33.638 -12.831 -23.208  0.00  0.00    +0.003 C 
ATOM     10  C   UNL     1      33.413 -14.521 -24.920  0.00  0.00    +0.130 C 
ATOM     11  C   UNL     1      33.466 -15.216 -22.507  0.00  0.00    +0.034 C 
ATOM     12  C   UNL     1      33.353 -13.887 -27.349  0.00  0.00    +0.034 C 
BRANCH  10  13
ATOM     13  O   UNL     1      33.284 -15.831 -25.277  0.00  0.00    -0.478 OA
BRANCH  13  14
ATOM     14  C   UNL     1      34.487 -16.550 -25.537  0.00  0.00    +0.182 C 
BRANCH  14  15
ATOM     15  C   UNL     1      34.453 -17.858 -24.762  0.00  0.00    -0.038 C 
BRANCH  15  16
ATOM     16  N   UNL     1      35.551 -17.919 -23.808  0.00  0.00    +0.383 N 
ATOM     17  H   UNL     1      35.605 -17.038 -23.296  0.00  0.00    -0.089 HD
ATOM     18  H   UNL     1      36.426 -18.075 -24.308  0.00  0.00    -0.089 HD
ATOM     19  H   UNL     1      35.391 -18.684 -23.154  0.00  0.00    -0.089 HD
ENDBRANCH  15  16
ENDBRANCH  14  15
ENDBRANCH  13  14
ENDBRANCH  10  13
ENDBRANCH   3   5
BRANCH   2  24
ATOM     20 CL   UNL     1      32.266  -6.455 -19.445  0.00  0.00    -0.079 Cl
ATOM     21  C   UNL     1      32.156  -6.178 -23.449  0.00  0.00    +0.050 C 
ATOM     22  C   UNL     1      32.330  -7.522 -23.832  0.00  0.00    +0.032 C 
ATOM     23  C   UNL     1      32.140  -5.877 -22.072  0.00  0.00    +0.029 C 
ATOM     24  C   UNL     1      32.484  -8.526 -22.876  0.00  0.00    +0.087 C 
ATOM     25  C   UNL     1      32.294  -6.882 -21.117  0.00  0.00    +0.094 C 
ATOM     26  C   UNL     1      32.465  -8.206 -21.519  0.00  0.00    +0.162 C 
BRANCH  21  27
ATOM     27  N   UNL     1      32.001  -5.170 -24.408  0.00  0.00    -0.307 N 
ATOM     28  C   UNL     1      31.755  -3.001 -26.296  0.00  0.00    +0.004 C 
ATOM     29  C   UNL     1      30.783  -3.155 -25.132  0.00  0.00    +0.021 C 
ATOM     30  C   UNL     1      32.290  -4.364 -26.717  0.00  0.00    +0.021 C 
ATOM     31  C   UNL     1      31.427  -3.893 -23.961  0.00  0.00    +0.091 C 
ATOM     32  C   UNL     1      32.928  -5.106 -25.543  0.00  0.00    +0.091 C 
ENDBRANCH  21  27
BRANCH  26  33
ATOM     33  O   UNL     1      32.616  -9.194 -20.589  0.00  0.00    -0.473 OA
BRANCH  33  34
ATOM     34  C   UNL     1      31.425  -9.774 -20.065  0.00  0.00    +0.206 C 
ATOM     35  C   UNL     1      31.549 -11.282 -20.110  0.00  0.00    +0.051 C 
ENDBRANCH  33  34
ENDBRANCH  26  33
ENDBRANCH   2  24
TORSDOF 9
ENDMDL
MODEL 3
REMARK VINA RESULT:      -9.1     10.292     16.099
REMARK  Name = 23653533
REMARK  9 active torsions:
REMARK  status: ('A' for Active; 'I' for Inactive)
REMARK    1  A    between atoms: N_2  and  C_24
REMARK    2  A    between atoms: C_3  and  C_5
REMARK    3  A    between atoms: C_10  and  O_13
REMARK    4  A    between atoms: O_13  and  C_14
REMARK    5  A    between atoms: C_14  and  C_15
REMARK    6  A    between atoms: C_15  and  N_16
REMARK    7  A    between atoms: C_21  and  N_27
REMARK    8  A    between atoms: C_26  and  O_33
REMARK    9  A    between atoms: O_33  and  C_34
REMARK                            x       y       z     vdW  Elec       q    Type
REMARK                         _______ _______ _______ _____ _____    ______ ____
ROOT
ATOM      1  O   UNL     1      33.893 -23.870 -18.878  0.00  0.00    -0.270 OA
ATOM      2  N   UNL     1      33.562 -22.370 -17.098  0.00  0.00    -0.278 N 
ATOM      3  C   UNL     1      33.823 -22.732 -18.425  0.00  0.00    +0.250 C 
ATOM      4  H   UNL     1      33.542 -21.404 -16.910  0.00  0.00    +0.155 HD
ENDROOT
BRANCH   3   5
ATOM      5  C   UNL     1      34.062 -21.600 -19.358  0.00  0.00    +0.053 C 
ATOM      6  C   UNL     1      33.203 -19.898 -20.796  0.00  0.00    +0.012 C 
ATOM      7  C   UNL     1      35.586 -20.163 -20.504  0.00  0.00    +0.012 C 
ATOM      8  C   UNL     1      35.362 -21.226 -19.630  0.00  0.00    +0.003 C 
ATOM      9  C   UNL     1      32.977 -20.961 -19.921  0.00  0.00    +0.003 C 
ATOM     10  C   UNL     1      34.507 -19.498 -21.087  0.00  0.00    +0.130 C 
ATOM     11  C   UNL     1      32.035 -19.199 -21.410  0.00  0.00    +0.034 C 
ATOM     12  C   UNL     1      36.990 -19.750 -20.804  0.00  0.00    +0.034 C 
BRANCH  10  13
ATOM     13  O   UNL     1      34.728 -18.459 -21.943  0.00  0.00    -0.478 OA
BRANCH  13  14
ATOM     14  C   UNL     1      34.803 -17.156 -21.370  0.00  0.00    +0.182 C 
BRANCH  14  15
ATOM     15  C   UNL     1      34.856 -16.131 -22.492  0.00  0.00    -0.038 C 
BRANCH  15  16
ATOM     16  N   UNL     1      35.533 -16.679 -23.658  0.00  0.00    +0.383 N 
ATOM     17  H   UNL     1      34.914 -17.338 -24.132  0.00  0.00    -0.089 HD
ATOM     18  H   UNL     1      36.380 -17.163 -23.362  0.00  0.00    -0.089 HD
ATOM     19  H   UNL     1      35.778 -15.923 -24.296  0.00  0.00    -0.089 HD
ENDBRANCH  15  16
ENDBRANCH  14  15
ENDBRANCH  13  14
ENDBRANCH  10  13
ENDBRANCH   3   5
BRANCH   2  24
ATOM     20 CL   UNL     1      30.291 -25.286 -14.398  0.00  0.00    -0.079 Cl
ATOM     21  C   UNL     1      34.177 -24.350 -14.025  0.00  0.00    +0.050 C 
ATOM     22  C   UNL     1      34.374 -23.505 -15.135  0.00  0.00    +0.032 C 
ATOM     23  C   UNL     1      32.891 -24.889 -13.823  0.00  0.00    +0.029 C 
ATOM     24  C   UNL     1      33.327 -23.212 -16.008  0.00  0.00    +0.087 C 
ATOM     25  C   UNL     1      31.844 -24.596 -14.697  0.00  0.00    +0.094 C 
ATOM     26  C   UNL     1      32.062 -23.757 -15.789  0.00  0.00    +0.162 C 
BRANCH  21  27
ATOM     27  N   UNL     1      35.228 -24.644 -13.148  0.00  0.00    -0.307 N 
ATOM     28  C   UNL     1      37.485 -25.179 -11.431  0.00  0.00    +0.004 C 
ATOM     29  C   UNL     1      37.173 -26.063 -12.632  0.00  0.00    +0.021 C 
ATOM     30  C   UNL     1      36.202 -24.560 -10.888  0.00  0.00    +0.021 C 
ATOM     31  C   UNL     1      36.419 -25.292 -13.713  0.00  0.00    +0.091 C 
ATOM     32  C   UNL     1      35.443 -23.794 -11.971  0.00  0.00    +0.091 C 
ENDBRANCH  21  27
BRANCH  26  33
ATOM     33  O   UNL     1      31.042 -23.466 -16.648  0.00  0.00    -0.473 OA
BRANCH  33  34
ATOM     34  C   UNL     1      30.062 -22.538 -16.194  0.00  0.00    +0.206 C 
ATOM     35  C   UNL     1      28.704 -22.960 -16.713  0.00  0.00    +0.051 C 
ENDBRANCH  33  34
ENDBRANCH  26  33
ENDBRANCH   2  24
TORSDOF 9
ENDMDL
MODEL 4
REMARK VINA RESULT:      -9.1      2.444      8.713
REMARK  Name = 23653533
REMARK  9 active torsions:
REMARK  status: ('A' for Active; 'I' for Inactive)
REMARK    1  A    between atoms: N_2  and  C_24
REMARK    2  A    between atoms: C_3  and  C_5
REMARK    3  A    between atoms: C_10  and  O_13
REMARK    4  A    between atoms: O_13  and  C_14
REMARK    5  A    between atoms: C_14  and  C_15
REMARK    6  A    between atoms: C_15  and  N_16
REMARK    7  A    between atoms: C_21  and  N_27
REMARK    8  A    between atoms: C_26  and  O_33
REMARK    9  A    between atoms: O_33  and  C_34
REMARK                            x       y       z     vdW  Elec       q    Type
REMARK                         _______ _______ _______ _____ _____    ______ ____
ROOT
ATOM      1  O   UNL     1      34.799  -8.114 -23.198  0.00  0.00    -0.270 OA
ATOM      2  N   UNL     1      32.651  -8.863 -23.795  0.00  0.00    -0.278 N 
ATOM      3  C   UNL     1      33.739  -7.981 -23.800  0.00  0.00    +0.250 C 
ATOM      4  H   UNL     1      31.876  -8.596 -24.339  0.00  0.00    +0.155 HD
ENDROOT
BRANCH   3   5
ATOM      5  C   UNL     1      33.553  -6.747 -24.608  0.00  0.00    +0.053 C 
ATOM      6  C   UNL     1      32.251  -4.824 -25.164  0.00  0.00    +0.012 C 
ATOM      7  C   UNL     1      34.344  -5.249 -26.292  0.00  0.00    +0.012 C 
ATOM      8  C   UNL     1      34.517  -6.408 -25.534  0.00  0.00    +0.003 C 
ATOM      9  C   UNL     1      32.423  -5.982 -24.406  0.00  0.00    +0.003 C 
ATOM     10  C   UNL     1      33.211  -4.458 -26.107  0.00  0.00    +0.130 C 
ATOM     11  C   UNL     1      31.031  -3.989 -24.952  0.00  0.00    +0.034 C 
ATOM     12  C   UNL     1      35.383  -4.874 -27.296  0.00  0.00    +0.034 C 
BRANCH  10  13
ATOM     13  O   UNL     1      33.042  -3.326 -26.849  0.00  0.00    -0.478 OA
BRANCH  13  14
ATOM     14  C   UNL     1      32.048  -3.365 -27.869  0.00  0.00    +0.182 C 
BRANCH  14  15
ATOM     15  C   UNL     1      32.738  -3.463 -29.221  0.00  0.00    -0.038 C 
BRANCH  15  16
ATOM     16  N   UNL     1      32.631  -4.813 -29.755  0.00  0.00    +0.383 N 
ATOM     17  H   UNL     1      33.359  -5.399 -29.347  0.00  0.00    -0.089 HD
ATOM     18  H   UNL     1      32.745  -4.787 -30.769  0.00  0.00    -0.089 HD
ATOM     19  H   UNL     1      31.715  -5.199 -29.525  0.00  0.00    -0.089 HD
ENDBRANCH  15  16
ENDBRANCH  14  15
ENDBRANCH  13  14
ENDBRANCH  10  13
ENDBRANCH   3   5
BRANCH   2  24
ATOM     20 CL   UNL     1      31.219 -11.426 -19.568  0.00  0.00    -0.079 Cl
ATOM     21  C   UNL     1      32.857 -12.493 -23.074  0.00  0.00    +0.050 C 
ATOM     22  C   UNL     1      32.961 -11.250 -23.729  0.00  0.00    +0.032 C 
ATOM     23  C   UNL     1      32.310 -12.514 -21.776  0.00  0.00    +0.029 C 
ATOM     24  C   UNL     1      32.533 -10.075 -23.112  0.00  0.00    +0.087 C 
ATOM     25  C   UNL     1      31.881 -11.339 -21.158  0.00  0.00    +0.094 C 
ATOM     26  C   UNL     1      31.993 -10.120 -21.826  0.00  0.00    +0.162 C 
BRANCH  21  27
ATOM     27  N   UNL     1      33.288 -13.672 -23.694  0.00  0.00    -0.307 N 
ATOM     28  C   UNL     1      34.268 -16.022 -25.052  0.00  0.00    +0.004 C 
ATOM     29  C   UNL     1      33.178 -15.149 -25.662  0.00  0.00    +0.021 C 
ATOM     30  C   UNL     1      34.208 -15.950 -23.531  0.00  0.00    +0.021 C 
ATOM     31  C   UNL     1      33.272 -13.709 -25.163  0.00  0.00    +0.091 C 
ATOM     32  C   UNL     1      34.295 -14.509 -23.031  0.00  0.00    +0.091 C 
ENDBRANCH  21  27
BRANCH  26  33
ATOM     33  O   UNL     1      31.576  -8.966 -21.228  0.00  0.00    -0.473 OA
BRANCH  33  34
ATOM     34  C   UNL     1      32.507  -8.310 -20.373  0.00  0.00    +0.206 C 
ATOM     35  C   UNL     1      32.344  -6.812 -20.523  0.00  0.00    +0.051 C 
ENDBRANCH  33  34
ENDBRANCH  26  33
ENDBRANCH   2  24
TORSDOF 9
ENDMDL
MODEL 5
REMARK VINA RESULT:      -9.1     10.268     16.085
REMARK  Name = 23653533
REMARK  9 active torsions:
REMARK  status: ('A' for Active; 'I' for Inactive)
REMARK    1  A    between atoms: N_2  and  C_24
REMARK    2  A    between atoms: C_3  and  C_5
REMARK    3  A    between atoms: C_10  and  O_13
REMARK    4  A    between atoms: O_13  and  C_14
REMARK    5  A    between atoms: C_14  and  C_15
REMARK    6  A    between atoms: C_15  and  N_16
REMARK    7  A    between atoms: C_21  and  N_27
REMARK    8  A    between atoms: C_26  and  O_33
REMARK    9  A    between atoms: O_33  and  C_34
REMARK                            x       y       z     vdW  Elec       q    Type
REMARK                         _______ _______ _______ _____ _____    ______ ____
ROOT
ATOM      1  O   UNL     1      33.870 -23.871 -18.888  0.00  0.00    -0.270 OA
ATOM      2  N   UNL     1      33.591 -22.358 -17.110  0.00  0.00    -0.278 N 
ATOM      3  C   UNL     1      33.829 -22.731 -18.438  0.00  0.00    +0.250 C 
ATOM      4  H   UNL     1      33.593 -21.391 -16.925  0.00  0.00    +0.155 HD
ENDROOT
BRANCH   3   5
ATOM      5  C   UNL     1      34.082 -21.607 -19.378  0.00  0.00    +0.053 C 
ATOM      6  C   UNL     1      35.619 -20.160 -20.495  0.00  0.00    +0.012 C 
ATOM      7  C   UNL     1      33.243 -19.941 -20.870  0.00  0.00    +0.012 C 
ATOM      8  C   UNL     1      33.006 -20.995 -19.986  0.00  0.00    +0.003 C 
ATOM      9  C   UNL     1      35.384 -21.214 -19.612  0.00  0.00    +0.003 C 
ATOM     10  C   UNL     1      34.549 -19.524 -21.124  0.00  0.00    +0.130 C 
ATOM     11  C   UNL     1      37.025 -19.728 -20.755  0.00  0.00    +0.034 C 
ATOM     12  C   UNL     1      32.084 -19.273 -21.534  0.00  0.00    +0.034 C 
BRANCH  10  13
ATOM     13  O   UNL     1      34.780 -18.494 -21.987  0.00  0.00    -0.478 OA
BRANCH  13  14
ATOM     14  C   UNL     1      35.040 -18.835 -23.346  0.00  0.00    +0.182 C 
BRANCH  14  15
ATOM     15  C   UNL     1      34.743 -17.627 -24.220  0.00  0.00    -0.038 C 
BRANCH  15  16
ATOM     16  N   UNL     1      35.475 -16.460 -23.751  0.00  0.00    +0.383 N 
ATOM     17  H   UNL     1      35.681 -15.849 -24.541  0.00  0.00    -0.089 HD
ATOM     18  H   UNL     1      36.349 -16.760 -23.317  0.00  0.00    -0.089 HD
ATOM     19  H   UNL     1      34.911 -15.956 -23.068  0.00  0.00    -0.089 HD
ENDBRANCH  15  16
ENDBRANCH  14  15
ENDBRANCH  13  14
ENDBRANCH  10  13
ENDBRANCH   3   5
BRANCH   2  24
ATOM     20 CL   UNL     1      30.295 -25.218 -14.380  0.00  0.00    -0.079 Cl
ATOM     21  C   UNL     1      34.193 -24.328 -14.028  0.00  0.00    +0.050 C 
ATOM     22  C   UNL     1      34.396 -23.491 -15.143  0.00  0.00    +0.032 C 
ATOM     23  C   UNL     1      32.902 -24.850 -13.818  0.00  0.00    +0.029 C 
ATOM     24  C   UNL     1      33.349 -23.190 -16.015  0.00  0.00    +0.087 C 
ATOM     25  C   UNL     1      31.855 -24.549 -14.689  0.00  0.00    +0.094 C 
ATOM     26  C   UNL     1      32.079 -23.719 -15.787  0.00  0.00    +0.162 C 
BRANCH  21  27
ATOM     27  N   UNL     1      35.244 -24.630 -13.154  0.00  0.00    -0.307 N 
ATOM     28  C   UNL     1      37.501 -25.180 -11.441  0.00  0.00    +0.004 C 
ATOM     29  C   UNL     1      37.188 -26.055 -12.649  0.00  0.00    +0.021 C 
ATOM     30  C   UNL     1      36.220 -24.564 -10.894  0.00  0.00    +0.021 C 
ATOM     31  C   UNL     1      36.435 -25.275 -13.724  0.00  0.00    +0.091 C 
ATOM     32  C   UNL     1      35.461 -23.789 -11.970  0.00  0.00    +0.091 C 
ENDBRANCH  21  27
BRANCH  26  33
ATOM     33  O   UNL     1      31.059 -23.421 -16.644  0.00  0.00    -0.473 OA
BRANCH  33  34
ATOM     34  C   UNL     1      30.068 -22.511 -16.174  0.00  0.00    +0.206 C 
ATOM     35  C   UNL     1      28.717 -22.935 -16.709  0.00  0.00    +0.051 C 
ENDBRANCH  33  34
ENDBRANCH  26  33
ENDBRANCH   2  24
TORSDOF 9
ENDMDL
MODEL 6
REMARK VINA RESULT:      -9.0      3.886     10.934
REMARK  Name = 23653533
REMARK  9 active torsions:
REMARK  status: ('A' for Active; 'I' for Inactive)
REMARK    1  A    between atoms: N_2  and  C_24
REMARK    2  A    between atoms: C_3  and  C_5
REMARK    3  A    between atoms: C_10  and  O_13
REMARK    4  A    between atoms: O_13  and  C_14
REMARK    5  A    between atoms: C_14  and  C_15
REMARK    6  A    between atoms: C_15  and  N_16
REMARK    7  A    between atoms: C_21  and  N_27
REMARK    8  A    between atoms: C_26  and  O_33
REMARK    9  A    between atoms: O_33  and  C_34
REMARK                            x       y       z     vdW  Elec       q    Type
REMARK                         _______ _______ _______ _____ _____    ______ ____
ROOT
ATOM      1  O   UNL     1      31.826 -15.416 -20.945  0.00  0.00    -0.270 OA
ATOM      2  N   UNL     1      33.561 -15.000 -22.477  0.00  0.00    -0.278 N 
ATOM      3  C   UNL     1      32.537 -14.650 -21.587  0.00  0.00    +0.250 C 
ATOM      4  H   UNL     1      34.032 -14.251 -22.908  0.00  0.00    +0.155 HD
ENDROOT
BRANCH   3   5
ATOM      5  C   UNL     1      32.290 -13.192 -21.443  0.00  0.00    +0.053 C 
ATOM      6  C   UNL     1      32.209 -11.010 -22.410  0.00  0.00    +0.012 C 
ATOM      7  C   UNL     1      31.682 -11.331 -20.075  0.00  0.00    +0.012 C 
ATOM      8  C   UNL     1      31.915 -12.700 -20.211  0.00  0.00    +0.003 C 
ATOM      9  C   UNL     1      32.442 -12.378 -22.547  0.00  0.00    +0.003 C 
ATOM     10  C   UNL     1      31.829 -10.486 -21.175  0.00  0.00    +0.130 C 
ATOM     11  C   UNL     1      32.371 -10.121 -23.600  0.00  0.00    +0.034 C 
ATOM     12  C   UNL     1      31.275 -10.789 -18.744  0.00  0.00    +0.034 C 
BRANCH  10  13
ATOM     13  O   UNL     1      31.601  -9.148 -21.042  0.00  0.00    -0.478 OA
BRANCH  13  14
ATOM     14  C   UNL     1      32.716  -8.335 -20.688  0.00  0.00    +0.182 C 
BRANCH  14  15
ATOM     15  C   UNL     1      32.689  -7.072 -21.533  0.00  0.00    -0.038 C 
BRANCH  15  16
ATOM     16  N   UNL     1      31.969  -6.009 -20.847  0.00  0.00    +0.383 N 
ATOM     17  H   UNL     1      31.880  -5.204 -21.467  0.00  0.00    -0.089 HD
ATOM     18  H   UNL     1      32.484  -5.736 -20.009  0.00  0.00    -0.089 HD
ATOM     19  H   UNL     1      31.042  -6.341 -20.584  0.00  0.00    -0.089 HD
ENDBRANCH  15  16
ENDBRANCH  14  15
ENDBRANCH  13  14
ENDBRANCH  10  13
ENDBRANCH   3   5
BRANCH   2  24
ATOM     20 CL   UNL     1      35.235 -18.259 -26.091  0.00  0.00    -0.079 Cl
ATOM     21  C   UNL     1      34.499 -18.571 -22.157  0.00  0.00    +0.050 C 
ATOM     22  C   UNL     1      34.066 -17.268 -21.844  0.00  0.00    +0.032 C 
ATOM     23  C   UNL     1      34.856 -18.849 -23.491  0.00  0.00    +0.029 C 
ATOM     24  C   UNL     1      33.994 -16.280 -22.827  0.00  0.00    +0.087 C 
ATOM     25  C   UNL     1      34.785 -17.861 -24.474  0.00  0.00    +0.094 C 
ATOM     26  C   UNL     1      34.353 -16.577 -24.141  0.00  0.00    +0.162 C 
BRANCH  21  27
ATOM     27  N   UNL     1      34.570 -19.563 -21.171  0.00  0.00    -0.307 N 
ATOM     28  C   UNL     1      34.773 -21.507 -19.048  0.00  0.00    +0.004 C 
ATOM     29  C   UNL     1      35.962 -21.182 -19.944  0.00  0.00    +0.021 C 
ATOM     30  C   UNL     1      33.470 -21.293 -19.808  0.00  0.00    +0.021 C 
ATOM     31  C   UNL     1      35.866 -19.766 -20.509  0.00  0.00    +0.091 C 
ATOM     32  C   UNL     1      33.375 -19.879 -20.380  0.00  0.00    +0.091 C 
ENDBRANCH  21  27
BRANCH  26  33
ATOM     33  O   UNL     1      34.282 -15.606 -25.097  0.00  0.00    -0.473 OA
BRANCH  33  34
ATOM     34  C   UNL     1      33.107 -15.580 -25.903  0.00  0.00    +0.206 C 
ATOM     35  C   UNL     1      32.780 -14.144 -26.253  0.00  0.00    +0.051 C 
ENDBRANCH  33  34
ENDBRANCH  26  33
ENDBRANCH   2  24
TORSDOF 9
ENDMDL
MODEL 7
REMARK VINA RESULT:      -9.0      3.886     11.038
REMARK  Name = 23653533
REMARK  9 active torsions:
REMARK  status: ('A' for Active; 'I' for Inactive)
REMARK    1  A    between atoms: N_2  and  C_24
REMARK    2  A    between atoms: C_3  and  C_5
REMARK    3  A    between atoms: C_10  and  O_13
REMARK    4  A    between atoms: O_13  and  C_14
REMARK    5  A    between atoms: C_14  and  C_15
REMARK    6  A    between atoms: C_15  and  N_16
REMARK    7  A    between atoms: C_21  and  N_27
REMARK    8  A    between atoms: C_26  and  O_33
REMARK    9  A    between atoms: O_33  and  C_34
REMARK                            x       y       z     vdW  Elec       q    Type
REMARK                         _______ _______ _______ _____ _____    ______ ____
ROOT
ATOM      1  O   UNL     1      31.841 -15.415 -20.920  0.00  0.00    -0.270 OA
ATOM      2  N   UNL     1      33.550 -15.002 -22.481  0.00  0.00    -0.278 N 
ATOM      3  C   UNL     1      32.539 -14.651 -21.578  0.00  0.00    +0.250 C 
ATOM      4  H   UNL     1      34.012 -14.253 -22.923  0.00  0.00    +0.155 HD
ENDROOT
BRANCH   3   5
ATOM      5  C   UNL     1      32.289 -13.192 -21.438  0.00  0.00    +0.053 C 
ATOM      6  C   UNL     1      31.678 -11.327 -20.079  0.00  0.00    +0.012 C 
ATOM      7  C   UNL     1      32.209 -11.014 -22.414  0.00  0.00    +0.012 C 
ATOM      8  C   UNL     1      32.443 -12.383 -22.544  0.00  0.00    +0.003 C 
ATOM      9  C   UNL     1      31.912 -12.696 -20.208  0.00  0.00    +0.003 C 
ATOM     10  C   UNL     1      31.827 -10.486 -21.181  0.00  0.00    +0.130 C 
ATOM     11  C   UNL     1      31.269 -10.780 -18.750  0.00  0.00    +0.034 C 
ATOM     12  C   UNL     1      32.374 -10.130 -23.606  0.00  0.00    +0.034 C 
BRANCH  10  13
ATOM     13  O   UNL     1      31.598  -9.147 -21.054  0.00  0.00    -0.478 OA
BRANCH  13  14
ATOM     14  C   UNL     1      32.715  -8.331 -20.712  0.00  0.00    +0.182 C 
BRANCH  14  15
ATOM     15  C   UNL     1      32.667  -7.061 -21.547  0.00  0.00    -0.038 C 
BRANCH  15  16
ATOM     16  N   UNL     1      31.973  -6.001 -20.832  0.00  0.00    +0.383 N 
ATOM     17  H   UNL     1      30.985  -6.240 -20.746  0.00  0.00    -0.089 HD
ATOM     18  H   UNL     1      32.067  -5.126 -21.348  0.00  0.00    -0.089 HD
ATOM     19  H   UNL     1      32.380  -5.894 -19.903  0.00  0.00    -0.089 HD
ENDBRANCH  15  16
ENDBRANCH  14  15
ENDBRANCH  13  14
ENDBRANCH  10  13
ENDBRANCH   3   5
BRANCH   2  24
ATOM     20 CL   UNL     1      35.232 -18.261 -26.092  0.00  0.00    -0.079 Cl
ATOM     21  C   UNL     1      34.482 -18.575 -22.161  0.00  0.00    +0.050 C 
ATOM     22  C   UNL     1      34.050 -17.271 -21.848  0.00  0.00    +0.032 C 
ATOM     23  C   UNL     1      34.843 -18.852 -23.494  0.00  0.00    +0.029 C 
ATOM     24  C   UNL     1      33.983 -16.283 -22.830  0.00  0.00    +0.087 C 
ATOM     25  C   UNL     1      34.777 -17.863 -24.476  0.00  0.00    +0.094 C 
ATOM     26  C   UNL     1      34.346 -16.579 -24.144  0.00  0.00    +0.162 C 
BRANCH  21  27
ATOM     27  N   UNL     1      34.548 -19.567 -21.175  0.00  0.00    -0.307 N 
ATOM     28  C   UNL     1      34.743 -21.513 -19.053  0.00  0.00    +0.004 C 
ATOM     29  C   UNL     1      35.933 -21.194 -19.950  0.00  0.00    +0.021 C 
ATOM     30  C   UNL     1      33.440 -21.292 -19.811  0.00  0.00    +0.021 C 
ATOM     31  C   UNL     1      35.843 -19.778 -20.514  0.00  0.00    +0.091 C 
ATOM     32  C   UNL     1      33.352 -19.877 -20.383  0.00  0.00    +0.091 C 
ENDBRANCH  21  27
BRANCH  26  33
ATOM     33  O   UNL     1      34.279 -15.607 -25.100  0.00  0.00    -0.473 OA
BRANCH  33  34
ATOM     34  C   UNL     1      33.104 -15.575 -25.905  0.00  0.00    +0.206 C 
ATOM     35  C   UNL     1      32.782 -14.137 -26.251  0.00  0.00    +0.051 C 
ENDBRANCH  33  34
ENDBRANCH  26  33
ENDBRANCH   2  24
TORSDOF 9
ENDMDL
MODEL 8
REMARK VINA RESULT:      -8.9      4.447      7.831
REMARK  Name = 23653533
REMARK  9 active torsions:
REMARK  status: ('A' for Active; 'I' for Inactive)
REMARK    1  A    between atoms: N_2  and  C_24
REMARK    2  A    between atoms: C_3  and  C_5
REMARK    3  A    between atoms: C_10  and  O_13
REMARK    4  A    between atoms: O_13  and  C_14
REMARK    5  A    between atoms: C_14  and  C_15
REMARK    6  A    between atoms: C_15  and  N_16
REMARK    7  A    between atoms: C_21  and  N_27
REMARK    8  A    between atoms: C_26  and  O_33
REMARK    9  A    between atoms: O_33  and  C_34
REMARK                            x       y       z     vdW  Elec       q    Type
REMARK                         _______ _______ _______ _____ _____    ______ ____
ROOT
ATOM      1  O   UNL     1      34.963 -15.559 -20.928  0.00  0.00    -0.270 OA
ATOM      2  N   UNL     1      33.775 -16.274 -22.827  0.00  0.00    -0.278 N 
ATOM      3  C   UNL     1      34.475 -16.442 -21.626  0.00  0.00    +0.250 C 
ATOM      4  H   UNL     1      33.451 -17.098 -23.257  0.00  0.00    +0.155 HD
ENDROOT
BRANCH   3   5
ATOM      5  C   UNL     1      34.653 -17.850 -21.185  0.00  0.00    +0.053 C 
ATOM      6  C   UNL     1      36.096 -19.650 -20.570  0.00  0.00    +0.012 C 
ATOM      7  C   UNL     1      33.700 -19.953 -20.576  0.00  0.00    +0.012 C 
ATOM      8  C   UNL     1      33.534 -18.632 -20.991  0.00  0.00    +0.003 C 
ATOM      9  C   UNL     1      35.931 -18.328 -20.984  0.00  0.00    +0.003 C 
ATOM     10  C   UNL     1      34.981 -20.462 -20.365  0.00  0.00    +0.130 C 
ATOM     11  C   UNL     1      37.476 -20.177 -20.349  0.00  0.00    +0.034 C 
ATOM     12  C   UNL     1      32.494 -20.807 -20.362  0.00  0.00    +0.034 C 
BRANCH  10  13
ATOM     13  O   UNL     1      35.143 -21.754 -19.960  0.00  0.00    -0.478 OA
BRANCH  13  14
ATOM     14  C   UNL     1      35.313 -21.977 -18.563  0.00  0.00    +0.182 C 
BRANCH  14  15
ATOM     15  C   UNL     1      34.139 -22.797 -18.052  0.00  0.00    -0.038 C 
BRANCH  15  16
ATOM     16  N   UNL     1      34.313 -23.122 -16.644  0.00  0.00    +0.383 N 
ATOM     17  H   UNL     1      34.843 -23.989 -16.558  0.00  0.00    -0.089 HD
ATOM     18  H   UNL     1      33.398 -23.240 -16.207  0.00  0.00    -0.089 HD
ATOM     19  H   UNL     1      34.817 -22.367 -16.180  0.00  0.00    -0.089 HD
ENDBRANCH  15  16
ENDBRANCH  14  15
ENDBRANCH  13  14
ENDBRANCH  10  13
ENDBRANCH   3   5
BRANCH   2  24
ATOM     20 CL   UNL     1      33.246 -13.695 -27.250  0.00  0.00    -0.079 Cl
ATOM     21  C   UNL     1      32.850 -12.726 -23.375  0.00  0.00    +0.050 C 
ATOM     22  C   UNL     1      33.154 -13.948 -22.743  0.00  0.00    +0.032 C 
ATOM     23  C   UNL     1      32.888 -12.680 -24.782  0.00  0.00    +0.029 C 
ATOM     24  C   UNL     1      33.481 -15.080 -23.490  0.00  0.00    +0.087 C 
ATOM     25  C   UNL     1      33.215 -13.812 -25.529  0.00  0.00    +0.094 C 
ATOM     26  C   UNL     1      33.512 -15.012 -24.883  0.00  0.00    +0.162 C 
BRANCH  21  27
ATOM     27  N   UNL     1      32.522 -11.591 -22.625  0.00  0.00    -0.307 N 
ATOM     28  C   UNL     1      31.755  -9.209 -21.187  0.00  0.00    +0.004 C 
ATOM     29  C   UNL     1      32.839  -9.176 -22.258  0.00  0.00    +0.021 C 
ATOM     30  C   UNL     1      31.707 -10.583 -20.531  0.00  0.00    +0.021 C 
ATOM     31  C   UNL     1      32.640 -10.285 -23.289  0.00  0.00    +0.091 C 
ATOM     32  C   UNL     1      31.515 -11.694 -21.562  0.00  0.00    +0.091 C 
ENDBRANCH  21  27
BRANCH  26  33
ATOM     33  O   UNL     1      33.833 -16.123 -25.607  0.00  0.00    -0.473 OA
BRANCH  33  34
ATOM     34  C   UNL     1      34.979 -16.858 -25.187  0.00  0.00    +0.206 C 
ATOM     35  C   UNL     1      34.614 -18.323 -25.080  0.00  0.00    +0.051 C 
ENDBRANCH  33  34
ENDBRANCH  26  33
ENDBRANCH   2  24
TORSDOF 9
ENDMDL
MODEL 9
REMARK VINA RESULT:      -8.9      4.446      7.832
REMARK  Name = 23653533
REMARK  9 active torsions:
REMARK  status: ('A' for Active; 'I' for Inactive)
REMARK    1  A    between atoms: N_2  and  C_24
REMARK    2  A    between atoms: C_3  and  C_5
REMARK    3  A    between atoms: C_10  and  O_13
REMARK    4  A    between atoms: O_13  and  C_14
REMARK    5  A    between atoms: C_14  and  C_15
REMARK    6  A    between atoms: C_15  and  N_16
REMARK    7  A    between atoms: C_21  and  N_27
REMARK    8  A    between atoms: C_26  and  O_33
REMARK    9  A    between atoms: O_33  and  C_34
REMARK                            x       y       z     vdW  Elec       q    Type
REMARK                         _______ _______ _______ _____ _____    ______ ____
ROOT
ATOM      1  O   UNL     1      34.977 -15.561 -20.947  0.00  0.00    -0.270 OA
ATOM      2  N   UNL     1      33.775 -16.278 -22.837  0.00  0.00    -0.278 N 
ATOM      3  C   UNL     1      34.481 -16.444 -21.639  0.00  0.00    +0.250 C 
ATOM      4  H   UNL     1      33.444 -17.103 -23.261  0.00  0.00    +0.155 HD
ENDROOT
BRANCH   3   5
ATOM      5  C   UNL     1      34.655 -17.852 -21.193  0.00  0.00    +0.053 C 
ATOM      6  C   UNL     1      33.700 -19.956 -20.591  0.00  0.00    +0.012 C 
ATOM      7  C   UNL     1      36.096 -19.649 -20.564  0.00  0.00    +0.012 C 
ATOM      8  C   UNL     1      35.932 -18.328 -20.980  0.00  0.00    +0.003 C 
ATOM      9  C   UNL     1      33.535 -18.635 -21.008  0.00  0.00    +0.003 C 
ATOM     10  C   UNL     1      34.980 -20.463 -20.369  0.00  0.00    +0.130 C 
ATOM     11  C   UNL     1      32.493 -20.812 -20.388  0.00  0.00    +0.034 C 
ATOM     12  C   UNL     1      37.475 -20.174 -20.332  0.00  0.00    +0.034 C 
BRANCH  10  13
ATOM     13  O   UNL     1      35.141 -21.754 -19.961  0.00  0.00    -0.478 OA
BRANCH  13  14
ATOM     14  C   UNL     1      35.297 -21.975 -18.562  0.00  0.00    +0.182 C 
BRANCH  14  15
ATOM     15  C   UNL     1      34.112 -22.786 -18.060  0.00  0.00    -0.038 C 
BRANCH  15  16
ATOM     16  N   UNL     1      34.286 -23.137 -16.658  0.00  0.00    +0.383 N 
ATOM     17  H   UNL     1      33.564 -22.679 -16.102  0.00  0.00    -0.089 HD
ATOM     18  H   UNL     1      35.205 -22.827 -16.342  0.00  0.00    -0.089 HD
ATOM     19  H   UNL     1      34.211 -24.148 -16.549  0.00  0.00    -0.089 HD
ENDBRANCH  15  16
ENDBRANCH  14  15
ENDBRANCH  13  14
ENDBRANCH  10  13
ENDBRANCH   3   5
BRANCH   2  24
ATOM     20 CL   UNL     1      33.249 -13.711 -27.266  0.00  0.00    -0.079 Cl
ATOM     21  C   UNL     1      32.855 -12.731 -23.394  0.00  0.00    +0.050 C 
ATOM     22  C   UNL     1      33.157 -13.952 -22.759  0.00  0.00    +0.032 C 
ATOM     23  C   UNL     1      32.892 -12.689 -24.801  0.00  0.00    +0.029 C 
ATOM     24  C   UNL     1      33.482 -15.086 -23.503  0.00  0.00    +0.087 C 
ATOM     25  C   UNL     1      33.218 -13.823 -25.545  0.00  0.00    +0.094 C 
ATOM     26  C   UNL     1      33.513 -15.021 -24.896  0.00  0.00    +0.162 C 
BRANCH  21  27
ATOM     27  N   UNL     1      32.529 -11.593 -22.647  0.00  0.00    -0.307 N 
ATOM     28  C   UNL     1      31.766  -9.205 -21.216  0.00  0.00    +0.004 C 
ATOM     29  C   UNL     1      32.852  -9.178 -22.284  0.00  0.00    +0.021 C 
ATOM     30  C   UNL     1      31.712 -10.578 -20.557  0.00  0.00    +0.021 C 
ATOM     31  C   UNL     1      32.652 -10.288 -23.313  0.00  0.00    +0.091 C 
ATOM     32  C   UNL     1      31.519 -11.691 -21.586  0.00  0.00    +0.091 C 
ENDBRANCH  21  27
BRANCH  26  33
ATOM     33  O   UNL     1      33.832 -16.135 -25.617  0.00  0.00    -0.473 OA
BRANCH  33  34
ATOM     34  C   UNL     1      34.983 -16.865 -25.201  0.00  0.00    +0.206 C 
ATOM     35  C   UNL     1      34.621 -18.330 -25.080  0.00  0.00    +0.051 C 
ENDBRANCH  33  34
ENDBRANCH  26  33
ENDBRANCH   2  24
TORSDOF 9
ENDMDL
