MODEL 1
REMARK VINA RESULT:      -8.6      0.000      0.000
REMARK  Name = 447916
REMARK  5 active torsions:
REMARK  status: ('A' for Active; 'I' for Inactive)
REMARK    1  A    between atoms: N9_1  and  C1*_12
REMARK    2  A    between atoms: C2*_11  and  O2*_15
REMARK    3  A    between atoms: C3*_13  and  O3*_17
REMARK    4  A    between atoms: C4*_14  and  C5*_19
REMARK    5  A    between atoms: C5*_19  and  O5*_20
REMARK                            x       y       z     vdW  Elec       q    Type
REMARK                         _______ _______ _______ _____ _____    ______ ____
ROOT
ATOM      1  N9  A   A   1      35.995 -23.692 -15.012  0.00  0.00    -0.247 N 
ATOM      2  N7  A   A   1      35.446 -22.786 -16.974  0.00  0.00    -0.242 NA
ATOM      3  N3  A   A   1      33.785 -24.286 -14.197  0.00  0.00    -0.228 NA
ATOM      4  N1  A   A   1      32.052 -23.662 -15.796  0.00  0.00    -0.229 NA
ATOM      5  C4  A   A   1      34.634 -23.771 -15.099  0.00  0.00    +0.152 C 
ATOM      6  C8  A   A   1      36.436 -23.092 -16.162  0.00  0.00    +0.223 C 
ATOM      7  C5  A   A   1      34.314 -23.205 -16.323  0.00  0.00    +0.140 C 
ATOM      8  C6  A   A   1      32.966 -23.160 -16.662  0.00  0.00    +0.143 C 
ATOM      9  C2  A   A   1      32.512 -24.186 -14.634  0.00  0.00    +0.253 C 
ATOM     10  N6  A   A   1      32.551 -22.604 -17.884  0.00  0.00    -0.342 N 
ATOM     11  H61 A   A   1      31.594 -22.578 -18.114  0.00  0.00    +0.144 HD
ATOM     12  H62 A   A   1      33.218 -22.241 -18.512  0.00  0.00    +0.144 HD
ENDROOT
BRANCH   1  15
ATOM     13  O4* A   A   1      38.219 -23.942 -14.229  0.00  0.00    -0.333 OA
ATOM     14  C2* A   A   1      36.651 -25.643 -13.584  0.00  0.00    +0.187 C 
ATOM     15  C1* A   A   1      36.832 -24.155 -13.905  0.00  0.00    +0.225 C 
ATOM     16  C3* A   A   1      37.961 -26.276 -14.014  0.00  0.00    +0.171 C 
ATOM     17  C4* A   A   1      38.950 -25.126 -13.874  0.00  0.00    +0.175 C 
BRANCH  14  18
ATOM     18  O2* A   A   1      36.470 -25.805 -12.178  0.00  0.00    -0.378 OA
ATOM     19  H2* A   A   1      35.586 -25.493 -11.929  0.00  0.00    +0.211 HD
ENDBRANCH  14  18
BRANCH  16  20
ATOM     20  O3* A   A   1      37.865 -26.690 -15.372  0.00  0.00    -0.379 OA
ATOM     21  H3* A   A   1      38.743 -26.949 -15.694  0.00  0.00    +0.211 HD
ENDBRANCH  16  20
BRANCH  17  22
ATOM     22  C5* A   A   1      40.194 -25.226 -14.738  0.00  0.00    +0.169 C 
BRANCH  22  23
ATOM     23  O5* A   A   1      40.727 -26.535 -14.625  0.00  0.00    -0.379 OA
ATOM     24  H5* A   A   1      40.697 -26.817 -13.698  0.00  0.00    +0.211 HD
ENDBRANCH  22  23
ENDBRANCH  17  22
ENDBRANCH   1  15
TORSDOF 5
ENDMDL
MODEL 2
REMARK VINA RESULT:      -8.3      1.577      2.653
REMARK  Name = 447916
REMARK  5 active torsions:
REMARK  status: ('A' for Active; 'I' for Inactive)
REMARK    1  A    between atoms: N9_1  and  C1*_12
REMARK    2  A    between atoms: C2*_11  and  O2*_15
REMARK    3  A    between atoms: C3*_13  and  O3*_17
REMARK    4  A    between atoms: C4*_14  and  C5*_19
REMARK    5  A    between atoms: C5*_19  and  O5*_20
REMARK                            x       y       z     vdW  Elec       q    Type
REMARK                         _______ _______ _______ _____ _____    ______ ____
ROOT
ATOM      1  N9  A   A   1      34.813 -23.615 -14.814  0.00  0.00    -0.247 N 
ATOM      2  N7  A   A   1      32.673 -23.700 -14.194  0.00  0.00    -0.242 NA
ATOM      3  N3  A   A   1      34.543 -23.059 -17.163  0.00  0.00    -0.228 NA
ATOM      4  N1  A   A   1      32.186 -22.852 -17.761  0.00  0.00    -0.229 NA
ATOM      5  C4  A   A   1      34.082 -23.333 -15.934  0.00  0.00    +0.152 C 
ATOM      6  C8  A   A   1      33.922 -23.830 -13.796  0.00  0.00    +0.223 C 
ATOM      7  C5  A   A   1      32.758 -23.390 -15.528  0.00  0.00    +0.140 C 
ATOM      8  C6  A   A   1      31.793 -23.135 -16.495  0.00  0.00    +0.143 C 
ATOM      9  C2  A   A   1      33.517 -22.832 -18.012  0.00  0.00    +0.253 C 
ATOM     10  N6  A   A   1      30.425 -23.171 -16.172  0.00  0.00    -0.342 N 
ATOM     11  H61 A   A   1      29.750 -22.989 -16.865  0.00  0.00    +0.144 HD
ATOM     12  H62 A   A   1      30.142 -23.377 -15.251  0.00  0.00    +0.144 HD
ENDROOT
BRANCH   1  15
ATOM     13  O4* A   A   1      36.755 -24.814 -15.457  0.00  0.00    -0.333 OA
ATOM     14  C2* A   A   1      36.776 -23.820 -13.271  0.00  0.00    +0.187 C 
ATOM     15  C1* A   A   1      36.271 -23.682 -14.711  0.00  0.00    +0.225 C 
ATOM     16  C3* A   A   1      37.334 -25.230 -13.208  0.00  0.00    +0.171 C 
ATOM     17  C4* A   A   1      37.733 -25.494 -14.654  0.00  0.00    +0.175 C 
BRANCH  14  18
ATOM     18  O2* A   A   1      37.816 -22.873 -13.041  0.00  0.00    -0.378 OA
ATOM     19  H2* A   A   1      37.951 -22.339 -13.840  0.00  0.00    +0.211 HD
ENDBRANCH  14  18
BRANCH  16  20
ATOM     20  O3* A   A   1      36.310 -26.128 -12.800  0.00  0.00    -0.379 OA
ATOM     21  H3* A   A   1      36.287 -26.173 -11.830  0.00  0.00    +0.211 HD
ENDBRANCH  16  20
BRANCH  17  22
ATOM     22  C5* A   A   1      37.786 -26.956 -15.060  0.00  0.00    +0.169 C 
BRANCH  22  23
ATOM     23  O5* A   A   1      36.854 -27.175 -16.106  0.00  0.00    -0.379 OA
ATOM     24  H5* A   A   1      36.353 -27.987 -15.928  0.00  0.00    +0.211 HD
ENDBRANCH  22  23
ENDBRANCH  17  22
ENDBRANCH   1  15
TORSDOF 5
ENDMDL
MODEL 3
REMARK VINA RESULT:      -8.3      1.322      2.348
REMARK  Name = 447916
REMARK  5 active torsions:
REMARK  status: ('A' for Active; 'I' for Inactive)
REMARK    1  A    between atoms: N9_1  and  C1*_12
REMARK    2  A    between atoms: C2*_11  and  O2*_15
REMARK    3  A    between atoms: C3*_13  and  O3*_17
REMARK    4  A    between atoms: C4*_14  and  C5*_19
REMARK    5  A    between atoms: C5*_19  and  O5*_20
REMARK                            x       y       z     vdW  Elec       q    Type
REMARK                         _______ _______ _______ _____ _____    ______ ____
ROOT
ATOM      1  N9  A   A   1      35.949 -23.690 -14.328  0.00  0.00    -0.247 N 
ATOM      2  N7  A   A   1      33.920 -24.041 -15.183  0.00  0.00    -0.242 NA
ATOM      3  N3  A   A   1      36.977 -22.495 -16.177  0.00  0.00    -0.228 NA
ATOM      4  N1  A   A   1      35.420 -22.228 -18.036  0.00  0.00    -0.229 NA
ATOM      5  C4  A   A   1      35.961 -23.130 -15.575  0.00  0.00    +0.152 C 
ATOM      6  C8  A   A   1      34.702 -24.225 -14.140  0.00  0.00    +0.223 C 
ATOM      7  C5  A   A   1      34.694 -23.358 -16.087  0.00  0.00    +0.140 C 
ATOM      8  C6  A   A   1      34.438 -22.879 -17.368  0.00  0.00    +0.143 C 
ATOM      9  C2  A   A   1      36.612 -22.079 -17.408  0.00  0.00    +0.253 C 
ATOM     10  N6  A   A   1      33.179 -23.065 -17.965  0.00  0.00    -0.342 N 
ATOM     11  H61 A   A   1      33.009 -22.721 -18.873  0.00  0.00    +0.144 HD
ATOM     12  H62 A   A   1      32.467 -23.538 -17.477  0.00  0.00    +0.144 HD
ENDROOT
BRANCH   1  15
ATOM     13  O4* A   A   1      38.283 -24.008 -14.060  0.00  0.00    -0.333 OA
ATOM     14  C2* A   A   1      36.878 -24.771 -12.268  0.00  0.00    +0.187 C 
ATOM     15  C1* A   A   1      37.054 -23.719 -13.369  0.00  0.00    +0.225 C 
ATOM     16  C3* A   A   1      37.943 -25.808 -12.574  0.00  0.00    +0.171 C 
ATOM     17  C4* A   A   1      39.004 -24.992 -13.300  0.00  0.00    +0.175 C 
BRANCH  14  18
ATOM     18  O2* A   A   1      37.130 -24.173 -10.998  0.00  0.00    -0.378 OA
ATOM     19  H2* A   A   1      36.539 -23.413 -10.875  0.00  0.00    +0.211 HD
ENDBRANCH  14  18
BRANCH  16  20
ATOM     20  O3* A   A   1      37.402 -26.804 -13.433  0.00  0.00    -0.379 OA
ATOM     21  H3* A   A   1      37.880 -27.639 -13.300  0.00  0.00    +0.211 HD
ENDBRANCH  16  20
BRANCH  17  22
ATOM     22  C5* A   A   1      39.910 -25.779 -14.230  0.00  0.00    +0.169 C 
BRANCH  22  23
ATOM     23  O5* A   A   1      39.301 -25.851 -15.510  0.00  0.00    -0.379 OA
ATOM     24  H5* A   A   1      39.147 -26.780 -15.741  0.00  0.00    +0.211 HD
ENDBRANCH  22  23
ENDBRANCH  17  22
ENDBRANCH   1  15
TORSDOF 5
ENDMDL
MODEL 4
REMARK VINA RESULT:      -8.3      1.662      3.117
REMARK  Name = 447916
REMARK  5 active torsions:
REMARK  status: ('A' for Active; 'I' for Inactive)
REMARK    1  A    between atoms: N9_1  and  C1*_12
REMARK    2  A    between atoms: C2*_11  and  O2*_15
REMARK    3  A    between atoms: C3*_13  and  O3*_17
REMARK    4  A    between atoms: C4*_14  and  C5*_19
REMARK    5  A    between atoms: C5*_19  and  O5*_20
REMARK                            x       y       z     vdW  Elec       q    Type
REMARK                         _______ _______ _______ _____ _____    ______ ____
ROOT
ATOM      1  N9  A   A   1      34.836 -24.142 -15.272  0.00  0.00    -0.247 N 
ATOM      2  N7  A   A   1      32.750 -23.996 -14.496  0.00  0.00    -0.242 NA
ATOM      3  N3  A   A   1      34.518 -23.214 -17.494  0.00  0.00    -0.228 NA
ATOM      4  N1  A   A   1      32.193 -22.573 -17.863  0.00  0.00    -0.229 NA
ATOM      5  C4  A   A   1      34.094 -23.593 -16.279  0.00  0.00    +0.152 C 
ATOM      6  C8  A   A   1      33.984 -24.367 -14.222  0.00  0.00    +0.223 C 
ATOM      7  C5  A   A   1      32.805 -23.511 -15.777  0.00  0.00    +0.140 C 
ATOM      8  C6  A   A   1      31.836 -22.976 -16.620  0.00  0.00    +0.143 C 
ATOM      9  C2  A   A   1      33.493 -22.715 -18.218  0.00  0.00    +0.253 C 
ATOM     10  N6  A   A   1      30.502 -22.854 -16.193  0.00  0.00    -0.342 N 
ATOM     11  H61 A   A   1      29.824 -22.473 -16.798  0.00  0.00    +0.144 HD
ATOM     12  H62 A   A   1      30.245 -23.147 -15.289  0.00  0.00    +0.144 HD
ENDROOT
BRANCH   1  15
ATOM     13  O4* A   A   1      36.557 -25.499 -14.366  0.00  0.00    -0.333 OA
ATOM     14  C2* A   A   1      37.148 -23.240 -14.930  0.00  0.00    +0.187 C 
ATOM     15  C1* A   A   1      36.268 -24.440 -15.298  0.00  0.00    +0.225 C 
ATOM     16  C3* A   A   1      37.734 -23.611 -13.581  0.00  0.00    +0.171 C 
ATOM     17  C4* A   A   1      37.731 -25.134 -13.623  0.00  0.00    +0.175 C 
BRANCH  14  18
ATOM     18  O2* A   A   1      38.191 -23.105 -15.894  0.00  0.00    -0.378 OA
ATOM     19  H2* A   A   1      38.891 -22.538 -15.535  0.00  0.00    +0.211 HD
ENDBRANCH  14  18
BRANCH  16  20
ATOM     20  O3* A   A   1      36.880 -23.139 -12.546  0.00  0.00    -0.379 OA
ATOM     21  H3* A   A   1      37.408 -22.942 -11.756  0.00  0.00    +0.211 HD
ENDBRANCH  16  20
BRANCH  17  22
ATOM     22  C5* A   A   1      37.705 -25.825 -12.272  0.00  0.00    +0.169 C 
BRANCH  22  23
ATOM     23  O5* A   A   1      36.361 -25.902 -11.823  0.00  0.00    -0.379 OA
ATOM     24  H5* A   A   1      35.962 -25.018 -11.846  0.00  0.00    +0.211 HD
ENDBRANCH  22  23
ENDBRANCH  17  22
ENDBRANCH   1  15
TORSDOF 5
ENDMDL
MODEL 5
REMARK VINA RESULT:      -8.2      2.125      3.396
REMARK  Name = 447916
REMARK  5 active torsions:
REMARK  status: ('A' for Active; 'I' for Inactive)
REMARK    1  A    between atoms: N9_1  and  C1*_12
REMARK    2  A    between atoms: C2*_11  and  O2*_15
REMARK    3  A    between atoms: C3*_13  and  O3*_17
REMARK    4  A    between atoms: C4*_14  and  C5*_19
REMARK    5  A    between atoms: C5*_19  and  O5*_20
REMARK                            x       y       z     vdW  Elec       q    Type
REMARK                         _______ _______ _______ _____ _____    ______ ____
ROOT
ATOM      1  N9  A   A   1      35.999 -23.095 -16.115  0.00  0.00    -0.247 N 
ATOM      2  N7  A   A   1      37.280 -21.590 -17.146  0.00  0.00    -0.242 NA
ATOM      3  N3  A   A   1      34.150 -23.213 -17.686  0.00  0.00    -0.228 NA
ATOM      4  N1  A   A   1      34.500 -21.718 -19.582  0.00  0.00    -0.229 NA
ATOM      5  C4  A   A   1      35.333 -22.750 -17.257  0.00  0.00    +0.152 C 
ATOM      6  C8  A   A   1      37.161 -22.371 -16.093  0.00  0.00    +0.223 C 
ATOM      7  C5  A   A   1      36.145 -21.817 -17.882  0.00  0.00    +0.140 C 
ATOM      8  C6  A   A   1      35.690 -21.296 -19.089  0.00  0.00    +0.143 C 
ATOM      9  C2  A   A   1      33.814 -22.637 -18.860  0.00  0.00    +0.253 C 
ATOM     10  N6  A   A   1      36.449 -20.345 -19.792  0.00  0.00    -0.342 N 
ATOM     11  H61 A   A   1      36.116 -19.983 -20.646  0.00  0.00    +0.144 HD
ATOM     12  H62 A   A   1      37.313 -20.041 -19.432  0.00  0.00    +0.144 HD
ENDROOT
BRANCH   1  15
ATOM     13  O4* A   A   1      35.486 -23.399 -13.820  0.00  0.00    -0.333 OA
ATOM     14  C2* A   A   1      36.497 -25.259 -14.953  0.00  0.00    +0.187 C 
ATOM     15  C1* A   A   1      35.561 -24.054 -15.099  0.00  0.00    +0.225 C 
ATOM     16  C3* A   A   1      37.140 -25.064 -13.593  0.00  0.00    +0.171 C 
ATOM     17  C4* A   A   1      36.090 -24.258 -12.840  0.00  0.00    +0.175 C 
BRANCH  14  18
ATOM     18  O2* A   A   1      35.727 -26.459 -14.962  0.00  0.00    -0.378 OA
ATOM     19  H2* A   A   1      35.967 -27.002 -14.195  0.00  0.00    +0.211 HD
ENDBRANCH  14  18
BRANCH  16  20
ATOM     20  O3* A   A   1      38.339 -24.314 -13.738  0.00  0.00    -0.379 OA
ATOM     21  H3* A   A   1      39.060 -24.762 -13.267  0.00  0.00    +0.211 HD
ENDBRANCH  16  20
BRANCH  17  22
ATOM     22  C5* A   A   1      36.614 -23.416 -11.690  0.00  0.00    +0.169 C 
BRANCH  22  23
ATOM     23  O5* A   A   1      37.506 -24.202 -10.916  0.00  0.00    -0.379 OA
ATOM     24  H5* A   A   1      37.339 -24.045  -9.974  0.00  0.00    +0.211 HD
ENDBRANCH  22  23
ENDBRANCH  17  22
ENDBRANCH   1  15
TORSDOF 5
ENDMDL
MODEL 6
REMARK VINA RESULT:      -8.1      1.045      1.050
REMARK  Name = 447916
REMARK  5 active torsions:
REMARK  status: ('A' for Active; 'I' for Inactive)
REMARK    1  A    between atoms: N9_1  and  C1*_12
REMARK    2  A    between atoms: C2*_11  and  O2*_15
REMARK    3  A    between atoms: C3*_13  and  O3*_17
REMARK    4  A    between atoms: C4*_14  and  C5*_19
REMARK    5  A    between atoms: C5*_19  and  O5*_20
REMARK                            x       y       z     vdW  Elec       q    Type
REMARK                         _______ _______ _______ _____ _____    ______ ____
ROOT
ATOM      1  N9  A   A   1      36.158 -23.626 -14.402  0.00  0.00    -0.247 N 
ATOM      2  N7  A   A   1      35.343 -23.181 -16.429  0.00  0.00    -0.242 NA
ATOM      3  N3  A   A   1      34.084 -23.999 -13.194  0.00  0.00    -0.228 NA
ATOM      4  N1  A   A   1      32.147 -23.737 -14.654  0.00  0.00    -0.229 NA
ATOM      5  C4  A   A   1      34.798 -23.710 -14.291  0.00  0.00    +0.152 C 
ATOM      6  C8  A   A   1      36.435 -23.305 -15.705  0.00  0.00    +0.223 C 
ATOM      7  C5  A   A   1      34.312 -23.432 -15.559  0.00  0.00    +0.140 C 
ATOM      8  C6  A   A   1      32.931 -23.453 -15.721  0.00  0.00    +0.143 C 
ATOM      9  C2  A   A   1      32.763 -23.989 -13.473  0.00  0.00    +0.253 C 
ATOM     10  N6  A   A   1      32.351 -23.183 -16.973  0.00  0.00    -0.342 N 
ATOM     11  H61 A   A   1      31.372 -23.201 -17.076  0.00  0.00    +0.144 HD
ATOM     12  H62 A   A   1      32.924 -22.978 -17.747  0.00  0.00    +0.144 HD
ENDROOT
BRANCH   1  15
ATOM     13  O4* A   A   1      38.447 -24.005 -13.916  0.00  0.00    -0.333 OA
ATOM     14  C2* A   A   1      36.849 -25.064 -12.471  0.00  0.00    +0.187 C 
ATOM     15  C1* A   A   1      37.140 -23.835 -13.338  0.00  0.00    +0.225 C 
ATOM     16  C3* A   A   1      37.957 -26.038 -12.826  0.00  0.00    +0.171 C 
ATOM     17  C4* A   A   1      39.086 -25.114 -13.263  0.00  0.00    +0.175 C 
BRANCH  14  18
ATOM     18  O2* A   A   1      36.938 -24.704 -11.094  0.00  0.00    -0.378 OA
ATOM     19  H2* A   A   1      37.809 -24.958 -10.749  0.00  0.00    +0.211 HD
ENDBRANCH  14  18
BRANCH  16  20
ATOM     20  O3* A   A   1      37.537 -26.861 -13.908  0.00  0.00    -0.379 OA
ATOM     21  H3* A   A   1      38.215 -26.851 -14.603  0.00  0.00    +0.211 HD
ENDBRANCH  16  20
BRANCH  17  22
ATOM     22  C5* A   A   1      40.107 -25.729 -14.203  0.00  0.00    +0.169 C 
BRANCH  22  23
ATOM     23  O5* A   A   1      39.595 -25.689 -15.525  0.00  0.00    -0.379 OA
ATOM     24  H5* A   A   1      40.261 -25.303 -16.117  0.00  0.00    +0.211 HD
ENDBRANCH  22  23
ENDBRANCH  17  22
ENDBRANCH   1  15
TORSDOF 5
ENDMDL
MODEL 7
REMARK VINA RESULT:      -8.1      1.797      2.665
REMARK  Name = 447916
REMARK  5 active torsions:
REMARK  status: ('A' for Active; 'I' for Inactive)
REMARK    1  A    between atoms: N9_1  and  C1*_12
REMARK    2  A    between atoms: C2*_11  and  O2*_15
REMARK    3  A    between atoms: C3*_13  and  O3*_17
REMARK    4  A    between atoms: C4*_14  and  C5*_19
REMARK    5  A    between atoms: C5*_19  and  O5*_20
REMARK                            x       y       z     vdW  Elec       q    Type
REMARK                         _______ _______ _______ _____ _____    ______ ____
ROOT
ATOM      1  N9  A   A   1      34.257 -24.343 -14.558  0.00  0.00    -0.247 N 
ATOM      2  N7  A   A   1      33.578 -23.263 -16.387  0.00  0.00    -0.242 NA
ATOM      3  N3  A   A   1      32.126 -24.619 -13.424  0.00  0.00    -0.228 NA
ATOM      4  N1  A   A   1      30.300 -23.648 -14.718  0.00  0.00    -0.229 NA
ATOM      5  C4  A   A   1      32.904 -24.201 -14.434  0.00  0.00    +0.152 C 
ATOM      6  C8  A   A   1      34.614 -23.763 -15.747  0.00  0.00    +0.223 C 
ATOM      7  C5  A   A   1      32.502 -23.530 -15.578  0.00  0.00    +0.140 C 
ATOM      8  C6  A   A   1      31.144 -23.255 -15.702  0.00  0.00    +0.143 C 
ATOM      9  C2  A   A   1      30.836 -24.297 -13.655  0.00  0.00    +0.253 C 
ATOM     10  N6  A   A   1      30.649 -22.579 -16.830  0.00  0.00    -0.342 N 
ATOM     11  H61 A   A   1      29.685 -22.390 -16.907  0.00  0.00    +0.144 HD
ATOM     12  H62 A   A   1      31.265 -22.295 -17.544  0.00  0.00    +0.144 HD
ENDROOT
BRANCH   1  15
ATOM     13  O4* A   A   1      35.429 -24.094 -12.513  0.00  0.00    -0.333 OA
ATOM     14  C2* A   A   1      36.508 -25.389 -14.222  0.00  0.00    +0.187 C 
ATOM     15  C1* A   A   1      35.163 -24.989 -13.607  0.00  0.00    +0.225 C 
ATOM     16  C3* A   A   1      37.506 -24.449 -13.573  0.00  0.00    +0.171 C 
ATOM     17  C4* A   A   1      36.840 -24.123 -12.242  0.00  0.00    +0.175 C 
BRANCH  14  18
ATOM     18  O2* A   A   1      36.808 -26.738 -13.868  0.00  0.00    -0.378 OA
ATOM     19  H2* A   A   1      37.734 -26.800 -13.585  0.00  0.00    +0.211 HD
ENDBRANCH  14  18
BRANCH  16  20
ATOM     20  O3* A   A   1      37.639 -23.276 -14.366  0.00  0.00    -0.379 OA
ATOM     21  H3* A   A   1      36.993 -22.613 -14.073  0.00  0.00    +0.211 HD
ENDBRANCH  16  20
BRANCH  17  22
ATOM     22  C5* A   A   1      37.257 -22.808 -11.608  0.00  0.00    +0.169 C 
BRANCH  22  23
ATOM     23  O5* A   A   1      38.672 -22.721 -11.622  0.00  0.00    -0.379 OA
ATOM     24  H5* A   A   1      39.041 -23.523 -12.023  0.00  0.00    +0.211 HD
ENDBRANCH  22  23
ENDBRANCH  17  22
ENDBRANCH   1  15
TORSDOF 5
ENDMDL
MODEL 8
REMARK VINA RESULT:      -8.1      1.453      1.781
REMARK  Name = 447916
REMARK  5 active torsions:
REMARK  status: ('A' for Active; 'I' for Inactive)
REMARK    1  A    between atoms: N9_1  and  C1*_12
REMARK    2  A    between atoms: C2*_11  and  O2*_15
REMARK    3  A    between atoms: C3*_13  and  O3*_17
REMARK    4  A    between atoms: C4*_14  and  C5*_19
REMARK    5  A    between atoms: C5*_19  and  O5*_20
REMARK                            x       y       z     vdW  Elec       q    Type
REMARK                         _______ _______ _______ _____ _____    ______ ____
ROOT
ATOM      1  N9  A   A   1      36.561 -23.044 -15.774  0.00  0.00    -0.247 N 
ATOM      2  N7  A   A   1      36.950 -21.827 -17.601  0.00  0.00    -0.242 NA
ATOM      3  N3  A   A   1      34.219 -23.586 -16.126  0.00  0.00    -0.228 NA
ATOM      4  N1  A   A   1      33.387 -22.613 -18.202  0.00  0.00    -0.229 NA
ATOM      5  C4  A   A   1      35.383 -23.010 -16.464  0.00  0.00    +0.152 C 
ATOM      6  C8  A   A   1      37.471 -22.319 -16.496  0.00  0.00    +0.223 C 
ATOM      7  C5  A   A   1      35.646 -22.252 -17.594  0.00  0.00    +0.140 C 
ATOM      8  C6  A   A   1      34.592 -22.061 -18.482  0.00  0.00    +0.143 C 
ATOM      9  C2  A   A   1      33.277 -23.331 -17.058  0.00  0.00    +0.253 C 
ATOM     10  N6  A   A   1      34.769 -21.306 -19.654  0.00  0.00    -0.342 N 
ATOM     11  H61 A   A   1      34.016 -21.177 -20.275  0.00  0.00    +0.144 HD
ATOM     12  H62 A   A   1      35.647 -20.906 -19.854  0.00  0.00    +0.144 HD
ENDROOT
BRANCH   1  15
ATOM     13  O4* A   A   1      38.227 -23.956 -14.353  0.00  0.00    -0.333 OA
ATOM     14  C2* A   A   1      36.101 -25.073 -14.377  0.00  0.00    +0.187 C 
ATOM     15  C1* A   A   1      36.814 -23.722 -14.501  0.00  0.00    +0.225 C 
ATOM     16  C3* A   A   1      37.225 -26.090 -14.424  0.00  0.00    +0.171 C 
ATOM     17  C4* A   A   1      38.411 -25.302 -13.885  0.00  0.00    +0.175 C 
BRANCH  14  18
ATOM     18  O2* A   A   1      35.433 -25.141 -13.118  0.00  0.00    -0.378 OA
ATOM     19  H2* A   A   1      34.860 -24.365 -13.014  0.00  0.00    +0.211 HD
ENDBRANCH  14  18
BRANCH  16  20
ATOM     20  O3* A   A   1      37.455 -26.482 -15.772  0.00  0.00    -0.379 OA
ATOM     21  H3* A   A   1      37.517 -27.449 -15.821  0.00  0.00    +0.211 HD
ENDBRANCH  16  20
BRANCH  17  22
ATOM     22  C5* A   A   1      39.778 -25.800 -14.319  0.00  0.00    +0.169 C 
BRANCH  22  23
ATOM     23  O5* A   A   1      39.966 -25.489 -15.690  0.00  0.00    -0.379 OA
ATOM     24  H5* A   A   1      40.504 -24.686 -15.767  0.00  0.00    +0.211 HD
ENDBRANCH  22  23
ENDBRANCH  17  22
ENDBRANCH   1  15
TORSDOF 5
ENDMDL
MODEL 9
REMARK VINA RESULT:      -8.1      7.599      9.706
REMARK  Name = 447916
REMARK  5 active torsions:
REMARK  status: ('A' for Active; 'I' for Inactive)
REMARK    1  A    between atoms: N9_1  and  C1*_12
REMARK    2  A    between atoms: C2*_11  and  O2*_15
REMARK    3  A    between atoms: C3*_13  and  O3*_17
REMARK    4  A    between atoms: C4*_14  and  C5*_19
REMARK    5  A    between atoms: C5*_19  and  O5*_20
REMARK                            x       y       z     vdW  Elec       q    Type
REMARK                         _______ _______ _______ _____ _____    ______ ____
ROOT
ATOM      1  N9  A   A   1      34.556 -19.240 -20.831  0.00  0.00    -0.247 N 
ATOM      2  N7  A   A   1      32.711 -20.397 -20.356  0.00  0.00    -0.242 NA
ATOM      3  N3  A   A   1      36.200 -20.567 -19.630  0.00  0.00    -0.228 NA
ATOM      4  N1  A   A   1      35.157 -22.464 -18.505  0.00  0.00    -0.229 NA
ATOM      5  C4  A   A   1      34.955 -20.283 -20.043  0.00  0.00    +0.152 C 
ATOM      6  C8  A   A   1      33.200 -19.352 -20.990  0.00  0.00    +0.223 C 
ATOM      7  C5  A   A   1      33.797 -20.988 -19.760  0.00  0.00    +0.140 C 
ATOM      8  C6  A   A   1      33.928 -22.118 -18.960  0.00  0.00    +0.143 C 
ATOM      9  C2  A   A   1      36.201 -21.678 -18.864  0.00  0.00    +0.253 C 
ATOM     10  N6  A   A   1      32.806 -22.894 -18.623  0.00  0.00    -0.342 N 
ATOM     11  H61 A   A   1      32.911 -23.692 -18.055  0.00  0.00    +0.144 HD
ATOM     12  H62 A   A   1      31.914 -22.640 -18.955  0.00  0.00    +0.144 HD
ENDROOT
BRANCH   1  15
ATOM     13  O4* A   A   1      34.616 -17.024 -21.673  0.00  0.00    -0.333 OA
ATOM     14  C2* A   A   1      36.091 -18.611 -22.709  0.00  0.00    +0.187 C 
ATOM     15  C1* A   A   1      35.408 -18.195 -21.402  0.00  0.00    +0.225 C 
ATOM     16  C3* A   A   1      35.412 -17.761 -23.767  0.00  0.00    +0.171 C 
ATOM     17  C4* A   A   1      34.968 -16.537 -22.978  0.00  0.00    +0.175 C 
BRANCH  14  18
ATOM     18  O2* A   A   1      37.479 -18.289 -22.641  0.00  0.00    -0.378 OA
ATOM     19  H2* A   A   1      37.728 -17.767 -23.420  0.00  0.00    +0.211 HD
ENDBRANCH  14  18
BRANCH  16  20
ATOM     20  O3* A   A   1      34.286 -18.458 -24.285  0.00  0.00    -0.379 OA
ATOM     21  H3* A   A   1      33.841 -18.933 -23.565  0.00  0.00    +0.211 HD
ENDBRANCH  16  20
BRANCH  17  22
ATOM     22  C5* A   A   1      33.794 -15.773 -23.562  0.00  0.00    +0.169 C 
BRANCH  22  23
ATOM     23  O5* A   A   1      33.913 -15.760 -24.976  0.00  0.00    -0.379 OA
ATOM     24  H5* A   A   1      33.138 -15.322 -25.361  0.00  0.00    +0.211 HD
ENDBRANCH  22  23
ENDBRANCH  17  22
ENDBRANCH   1  15
TORSDOF 5
ENDMDL
