MODEL 1
REMARK VINA RESULT:     -11.0      0.000      0.000
REMARK  Name = 25062766
REMARK  6 active torsions:
REMARK  status: ('A' for Active; 'I' for Inactive)
REMARK    1  A    between atoms: N_1  and  C_12
REMARK    2  A    between atoms: C_5  and  C_21
REMARK    3  A    between atoms: C_9  and  N_16
REMARK    4  A    between atoms: C_24  and  C_29
REMARK    5  A    between atoms: N_28  and  C_31
REMARK    6  A    between atoms: C_31  and  C_33
REMARK                            x       y       z     vdW  Elec       q    Type
REMARK                         _______ _______ _______ _____ _____    ______ ____
ROOT
ATOM      1  N   UNL     1      37.003 -22.041 -17.698  0.00  0.00    -0.247 N 
ATOM      2  N   UNL     1      35.010 -22.744 -16.685  0.00  0.00    -0.337 NA
ATOM      3  N   UNL     1      37.151 -23.408 -15.800  0.00  0.00    -0.170 NA
ATOM      4  C   UNL     1      36.357 -22.767 -16.678  0.00  0.00    +0.149 C 
ATOM      5  C   UNL     1      34.424 -23.448 -15.695  0.00  0.00    +0.146 C 
ATOM      6  C   UNL     1      35.125 -24.149 -14.734  0.00  0.00    +0.055 C 
ATOM      7  C   UNL     1      36.499 -24.093 -14.837  0.00  0.00    +0.114 C 
ATOM      8  H   UNL     1      37.986 -22.086 -17.653  0.00  0.00    +0.165 HD
ENDROOT
BRANCH   1  12
ATOM      9  C   UNL     1      35.565 -19.722 -20.890  0.00  0.00    +0.048 C 
ATOM     10  C   UNL     1      34.737 -20.669 -20.288  0.00  0.00    +0.016 C 
ATOM     11  C   UNL     1      36.871 -19.545 -20.433  0.00  0.00    +0.016 C 
ATOM     12  C   UNL     1      36.520 -21.263 -18.770  0.00  0.00    +0.058 C 
ATOM     13  C   UNL     1      35.214 -21.439 -19.228  0.00  0.00    +0.017 C 
ATOM     14  C   UNL     1      37.348 -20.316 -19.373  0.00  0.00    +0.017 C 
BRANCH   9  16
ATOM     15  O   UNL     1      34.388 -17.378 -24.177  0.00  0.00    -0.350 OA
ATOM     16  N   UNL     1      35.086 -18.949 -21.954  0.00  0.00    -0.303 N 
ATOM     17  C   UNL     1      35.203 -19.492 -23.313  0.00  0.00    +0.123 C 
ATOM     18  C   UNL     1      35.107 -17.486 -21.862  0.00  0.00    +0.123 C 
ATOM     19  C   UNL     1      34.211 -18.793 -24.236  0.00  0.00    +0.164 C 
ATOM     20  C   UNL     1      34.120 -16.893 -22.862  0.00  0.00    +0.164 C 
ENDBRANCH   9  16
ENDBRANCH   1  12
BRANCH   5  21
ATOM     21  C   UNL     1      32.981 -23.429 -15.700  0.00  0.00    +0.031 C 
ATOM     22  C   UNL     1      32.275 -23.720 -14.533  0.00  0.00    +0.003 C 
ATOM     23  C   UNL     1      32.292 -23.117 -16.872  0.00  0.00    +0.003 C 
ATOM     24  C   UNL     1      30.192 -23.387 -15.709  0.00  0.00    +0.053 C 
ATOM     25  C   UNL     1      30.880 -23.699 -14.537  0.00  0.00    +0.005 C 
ATOM     26  C   UNL     1      30.897 -23.096 -16.877  0.00  0.00    +0.005 C 
BRANCH  24  29
ATOM     27  O   UNL     1      28.090 -24.360 -15.346  0.00  0.00    -0.270 OA
ATOM     28  N   UNL     1      28.121 -22.178 -16.129  0.00  0.00    -0.288 N 
ATOM     29  C   UNL     1      28.738 -23.365 -15.715  0.00  0.00    +0.247 C 
ATOM     30  H   UNL     1      28.695 -21.429 -16.409  0.00  0.00    +0.151 HD
BRANCH  28  31
ATOM     31  C   UNL     1      26.689 -21.992 -16.168  0.00  0.00    +0.197 C 
BRANCH  31  33
ATOM     32  N   UNL     1      25.947 -20.918 -18.442  0.00  0.00    -0.194 NA
ATOM     33  C   UNL     1      26.275 -21.395 -17.436  0.00  0.00    +0.095 C 
ENDBRANCH  31  33
ENDBRANCH  28  31
ENDBRANCH  24  29
ENDBRANCH   5  21
TORSDOF 6
ENDMDL
MODEL 2
REMARK VINA RESULT:      -9.9      9.232     14.351
REMARK  Name = 25062766
REMARK  6 active torsions:
REMARK  status: ('A' for Active; 'I' for Inactive)
REMARK    1  A    between atoms: N_1  and  C_12
REMARK    2  A    between atoms: C_5  and  C_21
REMARK    3  A    between atoms: C_9  and  N_16
REMARK    4  A    between atoms: C_24  and  C_29
REMARK    5  A    between atoms: N_28  and  C_31
REMARK    6  A    between atoms: C_31  and  C_33
REMARK                            x       y       z     vdW  Elec       q    Type
REMARK                         _______ _______ _______ _____ _____    ______ ____
ROOT
ATOM      1  N   UNL     1      32.243  -7.091 -21.797  0.00  0.00    -0.247 N 
ATOM      2  N   UNL     1      32.392  -9.410 -22.104  0.00  0.00    -0.337 NA
ATOM      3  N   UNL     1      31.687  -8.482 -19.995  0.00  0.00    -0.170 NA
ATOM      4  C   UNL     1      32.101  -8.391 -21.272  0.00  0.00    +0.149 C 
ATOM      5  C   UNL     1      32.245 -10.640 -21.569  0.00  0.00    +0.146 C 
ATOM      6  C   UNL     1      31.829 -10.868 -20.273  0.00  0.00    +0.055 C 
ATOM      7  C   UNL     1      31.562  -9.740 -19.524  0.00  0.00    +0.114 C 
ATOM      8  H   UNL     1      32.019  -6.379 -21.155  0.00  0.00    +0.165 HD
ENDROOT
BRANCH   1  12
ATOM      9  C   UNL     1      33.434  -5.657 -25.560  0.00  0.00    +0.048 C 
ATOM     10  C   UNL     1      32.240  -5.215 -24.991  0.00  0.00    +0.016 C 
ATOM     11  C   UNL     1      34.233  -6.577 -24.880  0.00  0.00    +0.016 C 
ATOM     12  C   UNL     1      32.643  -6.610 -23.061  0.00  0.00    +0.058 C 
ATOM     13  C   UNL     1      31.845  -5.691 -23.742  0.00  0.00    +0.017 C 
ATOM     14  C   UNL     1      33.837  -7.053 -23.630  0.00  0.00    +0.017 C 
BRANCH   9  16
ATOM     15  O   UNL     1      34.690  -3.979 -29.205  0.00  0.00    -0.350 OA
ATOM     16  N   UNL     1      33.832  -5.180 -26.814  0.00  0.00    -0.303 N 
ATOM     17  C   UNL     1      35.250  -4.858 -27.016  0.00  0.00    +0.123 C 
ATOM     18  C   UNL     1      32.893  -4.405 -27.632  0.00  0.00    +0.123 C 
ATOM     19  C   UNL     1      35.573  -4.857 -28.506  0.00  0.00    +0.164 C 
ATOM     20  C   UNL     1      33.340  -4.428 -29.090  0.00  0.00    +0.164 C 
ENDBRANCH   9  16
ENDBRANCH   1  12
BRANCH   5  21
ATOM     21  C   UNL     1      32.559 -11.735 -22.456  0.00  0.00    +0.031 C 
ATOM     22  C   UNL     1      33.240 -11.494 -23.649  0.00  0.00    +0.003 C 
ATOM     23  C   UNL     1      32.181 -13.035 -22.119  0.00  0.00    +0.003 C 
ATOM     24  C   UNL     1      33.167 -13.852 -24.167  0.00  0.00    +0.053 C 
ATOM     25  C   UNL     1      33.545 -12.553 -24.505  0.00  0.00    +0.005 C 
ATOM     26  C   UNL     1      32.485 -14.093 -22.975  0.00  0.00    +0.005 C 
BRANCH  24  29
ATOM     27  O   UNL     1      33.190 -14.898 -26.265  0.00  0.00    -0.270 OA
ATOM     28  N   UNL     1      34.144 -16.057 -24.499  0.00  0.00    -0.288 N 
ATOM     29  C   UNL     1      33.484 -14.957 -25.058  0.00  0.00    +0.247 C 
ATOM     30  H   UNL     1      34.346 -16.037 -23.535  0.00  0.00    +0.151 HD
BRANCH  28  31
ATOM     31  C   UNL     1      34.547 -17.219 -25.257  0.00  0.00    +0.197 C 
BRANCH  31  33
ATOM     32  N   UNL     1      34.830 -19.301 -23.689  0.00  0.00    -0.194 NA
ATOM     33  C   UNL     1      34.706 -18.381 -24.385  0.00  0.00    +0.095 C 
ENDBRANCH  31  33
ENDBRANCH  28  31
ENDBRANCH  24  29
ENDBRANCH   5  21
TORSDOF 6
ENDMDL
MODEL 3
REMARK VINA RESULT:      -9.8      1.505      8.341
REMARK  Name = 25062766
REMARK  6 active torsions:
REMARK  status: ('A' for Active; 'I' for Inactive)
REMARK    1  A    between atoms: N_1  and  C_12
REMARK    2  A    between atoms: C_5  and  C_21
REMARK    3  A    between atoms: C_9  and  N_16
REMARK    4  A    between atoms: C_24  and  C_29
REMARK    5  A    between atoms: N_28  and  C_31
REMARK    6  A    between atoms: C_31  and  C_33
REMARK                            x       y       z     vdW  Elec       q    Type
REMARK                         _______ _______ _______ _____ _____    ______ ____
ROOT
ATOM      1  N   UNL     1      33.925 -23.376 -15.197  0.00  0.00    -0.247 N 
ATOM      2  N   UNL     1      34.917 -22.294 -17.024  0.00  0.00    -0.337 NA
ATOM      3  N   UNL     1      36.261 -23.422 -15.373  0.00  0.00    -0.170 NA
ATOM      4  C   UNL     1      35.092 -23.013 -15.898  0.00  0.00    +0.149 C 
ATOM      5  C   UNL     1      36.055 -21.964 -17.670  0.00  0.00    +0.146 C 
ATOM      6  C   UNL     1      37.315 -22.322 -17.235  0.00  0.00    +0.055 C 
ATOM      7  C   UNL     1      37.358 -23.057 -16.069  0.00  0.00    +0.114 C 
ATOM      8  H   UNL     1      34.100 -23.900 -14.383  0.00  0.00    +0.165 HD
ENDROOT
BRANCH   1  12
ATOM      9  C   UNL     1      29.846 -22.663 -15.902  0.00  0.00    +0.048 C 
ATOM     10  C   UNL     1      30.320 -22.774 -14.594  0.00  0.00    +0.016 C 
ATOM     11  C   UNL     1      30.728 -22.789 -16.976  0.00  0.00    +0.016 C 
ATOM     12  C   UNL     1      32.555 -23.137 -15.434  0.00  0.00    +0.058 C 
ATOM     13  C   UNL     1      31.673 -23.011 -14.360  0.00  0.00    +0.017 C 
ATOM     14  C   UNL     1      32.082 -23.025 -16.741  0.00  0.00    +0.017 C 
BRANCH   9  16
ATOM     15  O   UNL     1      25.716 -22.217 -16.552  0.00  0.00    -0.350 OA
ATOM     16  N   UNL     1      28.488 -22.425 -16.137  0.00  0.00    -0.303 N 
ATOM     17  C   UNL     1      27.556 -22.553 -15.008  0.00  0.00    +0.123 C 
ATOM     18  C   UNL     1      27.913 -22.708 -17.456  0.00  0.00    +0.123 C 
ATOM     19  C   UNL     1      26.273 -21.787 -15.309  0.00  0.00    +0.164 C 
ATOM     20  C   UNL     1      26.610 -21.934 -17.627  0.00  0.00    +0.164 C 
ENDBRANCH   9  16
ENDBRANCH   1  12
BRANCH   5  21
ATOM     21  C   UNL     1      35.873 -21.192 -18.875  0.00  0.00    +0.031 C 
ATOM     22  C   UNL     1      36.951 -20.503 -19.432  0.00  0.00    +0.003 C 
ATOM     23  C   UNL     1      34.620 -21.134 -19.485  0.00  0.00    +0.003 C 
ATOM     24  C   UNL     1      35.522 -19.702 -21.208  0.00  0.00    +0.053 C 
ATOM     25  C   UNL     1      36.775 -19.758 -20.598  0.00  0.00    +0.005 C 
ATOM     26  C   UNL     1      34.444 -20.389 -20.651  0.00  0.00    +0.005 C 
BRANCH  24  29
ATOM     27  O   UNL     1      35.086 -19.491 -23.501  0.00  0.00    -0.270 OA
ATOM     28  N   UNL     1      35.436 -17.533 -22.310  0.00  0.00    -0.288 N 
ATOM     29  C   UNL     1      35.338 -18.925 -22.423  0.00  0.00    +0.247 C 
ATOM     30  H   UNL     1      35.639 -17.152 -21.425  0.00  0.00    +0.151 HD
BRANCH  28  31
ATOM     31  C   UNL     1      35.255 -16.626 -23.420  0.00  0.00    +0.197 C 
BRANCH  31  33
ATOM     32  N   UNL     1      34.266 -14.339 -22.606  0.00  0.00    -0.194 NA
ATOM     33  C   UNL     1      34.705 -15.350 -22.965  0.00  0.00    +0.095 C 
ENDBRANCH  31  33
ENDBRANCH  28  31
ENDBRANCH  24  29
ENDBRANCH   5  21
TORSDOF 6
ENDMDL
MODEL 4
REMARK VINA RESULT:      -9.6      9.607     15.687
REMARK  Name = 25062766
REMARK  6 active torsions:
REMARK  status: ('A' for Active; 'I' for Inactive)
REMARK    1  A    between atoms: N_1  and  C_12
REMARK    2  A    between atoms: C_5  and  C_21
REMARK    3  A    between atoms: C_9  and  N_16
REMARK    4  A    between atoms: C_24  and  C_29
REMARK    5  A    between atoms: N_28  and  C_31
REMARK    6  A    between atoms: C_31  and  C_33
REMARK                            x       y       z     vdW  Elec       q    Type
REMARK                         _______ _______ _______ _____ _____    ______ ____
ROOT
ATOM      1  N   UNL     1      31.974 -10.761 -20.490  0.00  0.00    -0.247 N 
ATOM      2  N   UNL     1      32.416  -8.832 -21.744  0.00  0.00    -0.337 NA
ATOM      3  N   UNL     1      31.602  -8.679 -19.481  0.00  0.00    -0.170 NA
ATOM      4  C   UNL     1      31.998  -9.355 -20.575  0.00  0.00    +0.149 C 
ATOM      5  C   UNL     1      32.426  -7.483 -21.791  0.00  0.00    +0.146 C 
ATOM      6  C   UNL     1      32.044  -6.676 -20.739  0.00  0.00    +0.055 C 
ATOM      7  C   UNL     1      31.637  -7.336 -19.598  0.00  0.00    +0.114 C 
ATOM      8  H   UNL     1      31.663 -11.099 -19.619  0.00  0.00    +0.165 HD
ENDROOT
BRANCH   1  12
ATOM      9  C   UNL     1      32.972 -13.796 -23.216  0.00  0.00    +0.048 C 
ATOM     10  C   UNL     1      32.994 -12.461 -23.620  0.00  0.00    +0.016 C 
ATOM     11  C   UNL     1      32.619 -14.123 -21.907  0.00  0.00    +0.016 C 
ATOM     12  C   UNL     1      32.309 -11.780 -21.406  0.00  0.00    +0.058 C 
ATOM     13  C   UNL     1      32.662 -11.454 -22.716  0.00  0.00    +0.017 C 
ATOM     14  C   UNL     1      32.288 -13.115 -21.003  0.00  0.00    +0.017 C 
BRANCH   9  16
ATOM     15  O   UNL     1      34.211 -16.699 -25.994  0.00  0.00    -0.350 OA
ATOM     16  N   UNL     1      33.305 -14.807 -24.125  0.00  0.00    -0.303 N 
ATOM     17  C   UNL     1      34.453 -15.669 -23.813  0.00  0.00    +0.123 C 
ATOM     18  C   UNL     1      33.030 -14.626 -25.554  0.00  0.00    +0.123 C 
ATOM     19  C   UNL     1      34.350 -16.970 -24.600  0.00  0.00    +0.164 C 
ATOM     20  C   UNL     1      33.002 -15.983 -26.249  0.00  0.00    +0.164 C 
ENDBRANCH   9  16
ENDBRANCH   1  12
BRANCH   5  21
ATOM     21  C   UNL     1      32.871  -6.917 -23.042  0.00  0.00    +0.031 C 
ATOM     22  C   UNL     1      32.046  -6.036 -23.742  0.00  0.00    +0.003 C 
ATOM     23  C   UNL     1      34.126  -7.251 -23.552  0.00  0.00    +0.003 C 
ATOM     24  C   UNL     1      33.733  -5.821 -25.459  0.00  0.00    +0.053 C 
ATOM     25  C   UNL     1      32.477  -5.488 -24.950  0.00  0.00    +0.005 C 
ATOM     26  C   UNL     1      34.557  -6.703 -24.760  0.00  0.00    +0.005 C 
BRANCH  24  29
ATOM     27  O   UNL     1      35.394  -5.205 -26.993  0.00  0.00    -0.270 OA
ATOM     28  N   UNL     1      33.195  -4.785 -27.594  0.00  0.00    -0.288 N 
ATOM     29  C   UNL     1      34.183  -5.250 -26.718  0.00  0.00    +0.247 C 
ATOM     30  H   UNL     1      32.254  -4.851 -27.312  0.00  0.00    +0.151 HD
BRANCH  28  31
ATOM     31  C   UNL     1      33.481  -4.214 -28.890  0.00  0.00    +0.197 C 
BRANCH  31  33
ATOM     32  N   UNL     1      31.301  -3.270 -30.000  0.00  0.00    -0.194 NA
ATOM     33  C   UNL     1      32.264  -3.689 -29.508  0.00  0.00    +0.095 C 
ENDBRANCH  31  33
ENDBRANCH  28  31
ENDBRANCH  24  29
ENDBRANCH   5  21
TORSDOF 6
ENDMDL
MODEL 5
REMARK VINA RESULT:      -9.5      9.604     15.795
REMARK  Name = 25062766
REMARK  6 active torsions:
REMARK  status: ('A' for Active; 'I' for Inactive)
REMARK    1  A    between atoms: N_1  and  C_12
REMARK    2  A    between atoms: C_5  and  C_21
REMARK    3  A    between atoms: C_9  and  N_16
REMARK    4  A    between atoms: C_24  and  C_29
REMARK    5  A    between atoms: N_28  and  C_31
REMARK    6  A    between atoms: C_31  and  C_33
REMARK                            x       y       z     vdW  Elec       q    Type
REMARK                         _______ _______ _______ _____ _____    ______ ____
ROOT
ATOM      1  N   UNL     1      32.016 -10.665 -20.543  0.00  0.00    -0.247 N 
ATOM      2  N   UNL     1      32.431  -8.741 -21.814  0.00  0.00    -0.337 NA
ATOM      3  N   UNL     1      31.653  -8.578 -19.539  0.00  0.00    -0.170 NA
ATOM      4  C   UNL     1      32.034  -9.259 -20.636  0.00  0.00    +0.149 C 
ATOM      5  C   UNL     1      32.437  -7.393 -21.869  0.00  0.00    +0.146 C 
ATOM      6  C   UNL     1      32.069  -6.580 -20.815  0.00  0.00    +0.055 C 
ATOM      7  C   UNL     1      31.682  -7.235 -19.664  0.00  0.00    +0.114 C 
ATOM      8  H   UNL     1      31.719 -10.999 -19.665  0.00  0.00    +0.165 HD
ENDROOT
BRANCH   1  12
ATOM      9  C   UNL     1      32.979 -13.711 -23.268  0.00  0.00    +0.048 C 
ATOM     10  C   UNL     1      33.033 -12.376 -23.667  0.00  0.00    +0.016 C 
ATOM     11  C   UNL     1      32.604 -14.035 -21.964  0.00  0.00    +0.016 C 
ATOM     12  C   UNL     1      32.339 -11.687 -21.458  0.00  0.00    +0.058 C 
ATOM     13  C   UNL     1      32.713 -11.365 -22.763  0.00  0.00    +0.017 C 
ATOM     14  C   UNL     1      32.284 -13.023 -21.059  0.00  0.00    +0.017 C 
BRANCH   9  16
ATOM     15  O   UNL     1      34.190 -16.637 -26.034  0.00  0.00    -0.350 OA
ATOM     16  N   UNL     1      33.300 -14.727 -24.175  0.00  0.00    -0.303 N 
ATOM     17  C   UNL     1      34.398 -15.641 -23.833  0.00  0.00    +0.123 C 
ATOM     18  C   UNL     1      33.084 -14.519 -25.611  0.00  0.00    +0.123 C 
ATOM     19  C   UNL     1      34.267 -16.928 -24.639  0.00  0.00    +0.164 C 
ATOM     20  C   UNL     1      33.023 -15.867 -26.323  0.00  0.00    +0.164 C 
ENDBRANCH   9  16
ENDBRANCH   1  12
BRANCH   5  21
ATOM     21  C   UNL     1      32.860  -6.832 -23.130  0.00  0.00    +0.031 C 
ATOM     22  C   UNL     1      32.050  -5.908 -23.790  0.00  0.00    +0.003 C 
ATOM     23  C   UNL     1      34.080  -7.214 -23.688  0.00  0.00    +0.003 C 
ATOM     24  C   UNL     1      33.681  -5.747 -25.565  0.00  0.00    +0.053 C 
ATOM     25  C   UNL     1      32.460  -5.365 -25.008  0.00  0.00    +0.005 C 
ATOM     26  C   UNL     1      34.490  -6.671 -24.906  0.00  0.00    +0.005 C 
BRANCH  24  29
ATOM     27  O   UNL     1      33.272  -4.839 -27.687  0.00  0.00    -0.270 OA
ATOM     28  N   UNL     1      35.487  -5.028 -27.030  0.00  0.00    -0.288 N 
ATOM     29  C   UNL     1      34.109  -5.182 -26.835  0.00  0.00    +0.247 C 
ATOM     30  H   UNL     1      36.093  -5.321 -26.312  0.00  0.00    +0.151 HD
BRANCH  28  31
ATOM     31  C   UNL     1      36.067  -4.461 -28.226  0.00  0.00    +0.197 C 
BRANCH  31  33
ATOM     32  N   UNL     1      37.869  -6.073 -29.240  0.00  0.00    -0.194 NA
ATOM     33  C   UNL     1      37.072  -5.358 -28.793  0.00  0.00    +0.095 C 
ENDBRANCH  31  33
ENDBRANCH  28  31
ENDBRANCH  24  29
ENDBRANCH   5  21
TORSDOF 6
ENDMDL
MODEL 6
REMARK VINA RESULT:      -9.3      1.905      8.191
REMARK  Name = 25062766
REMARK  6 active torsions:
REMARK  status: ('A' for Active; 'I' for Inactive)
REMARK    1  A    between atoms: N_1  and  C_12
REMARK    2  A    between atoms: C_5  and  C_21
REMARK    3  A    between atoms: C_9  and  N_16
REMARK    4  A    between atoms: C_24  and  C_29
REMARK    5  A    between atoms: N_28  and  C_31
REMARK    6  A    between atoms: C_31  and  C_33
REMARK                            x       y       z     vdW  Elec       q    Type
REMARK                         _______ _______ _______ _____ _____    ______ ____
ROOT
ATOM      1  N   UNL     1      33.189 -24.656 -14.049  0.00  0.00    -0.247 N 
ATOM      2  N   UNL     1      34.668 -23.565 -15.502  0.00  0.00    -0.337 NA
ATOM      3  N   UNL     1      35.485 -25.044 -13.784  0.00  0.00    -0.170 NA
ATOM      4  C   UNL     1      34.512 -24.410 -14.465  0.00  0.00    +0.149 C 
ATOM      5  C   UNL     1      35.947 -23.352 -15.874  0.00  0.00    +0.146 C 
ATOM      6  C   UNL     1      37.034 -23.941 -15.258  0.00  0.00    +0.055 C 
ATOM      7  C   UNL     1      36.739 -24.785 -14.208  0.00  0.00    +0.114 C 
ATOM      8  H   UNL     1      33.123 -25.279 -13.289  0.00  0.00    +0.165 HD
ENDROOT
BRANCH   1  12
ATOM      9  C   UNL     1      29.471 -23.261 -15.414  0.00  0.00    +0.048 C 
ATOM     10  C   UNL     1      30.589 -22.429 -15.465  0.00  0.00    +0.016 C 
ATOM     11  C   UNL     1      29.587 -24.556 -14.910  0.00  0.00    +0.016 C 
ATOM     12  C   UNL     1      31.940 -24.187 -14.507  0.00  0.00    +0.058 C 
ATOM     13  C   UNL     1      31.823 -22.891 -15.012  0.00  0.00    +0.017 C 
ATOM     14  C   UNL     1      30.821 -25.019 -14.456  0.00  0.00    +0.017 C 
BRANCH   9  16
ATOM     15  O   UNL     1      25.869 -21.619 -16.834  0.00  0.00    -0.350 OA
ATOM     16  N   UNL     1      28.231 -22.796 -15.869  0.00  0.00    -0.303 N 
ATOM     17  C   UNL     1      28.099 -22.456 -17.292  0.00  0.00    +0.123 C 
ATOM     18  C   UNL     1      27.353 -22.048 -14.964  0.00  0.00    +0.123 C 
ATOM     19  C   UNL     1      26.627 -22.472 -17.691  0.00  0.00    +0.164 C 
ATOM     20  C   UNL     1      25.921 -22.086 -15.487  0.00  0.00    +0.164 C 
ENDBRANCH   9  16
ENDBRANCH   1  12
BRANCH   5  21
ATOM     21  C   UNL     1      36.120 -22.446 -16.984  0.00  0.00    +0.031 C 
ATOM     22  C   UNL     1      37.160 -21.516 -16.971  0.00  0.00    +0.003 C 
ATOM     23  C   UNL     1      35.248 -22.501 -18.071  0.00  0.00    +0.003 C 
ATOM     24  C   UNL     1      36.456 -20.698 -19.132  0.00  0.00    +0.053 C 
ATOM     25  C   UNL     1      37.328 -20.642 -18.045  0.00  0.00    +0.005 C 
ATOM     26  C   UNL     1      35.416 -21.627 -19.145  0.00  0.00    +0.005 C 
BRANCH  24  29
ATOM     27  O   UNL     1      37.742 -19.655 -20.792  0.00  0.00    -0.270 OA
ATOM     28  N   UNL     1      35.494 -19.097 -20.694  0.00  0.00    -0.288 N 
ATOM     29  C   UNL     1      36.630 -19.786 -20.252  0.00  0.00    +0.247 C 
ATOM     30  H   UNL     1      34.645 -19.248 -20.219  0.00  0.00    +0.151 HD
BRANCH  28  31
ATOM     31  C   UNL     1      35.500 -18.177 -21.807  0.00  0.00    +0.197 C 
BRANCH  31  33
ATOM     32  N   UNL     1      34.851 -19.396 -24.036  0.00  0.00    -0.194 NA
ATOM     33  C   UNL     1      35.138 -18.859 -23.049  0.00  0.00    +0.095 C 
ENDBRANCH  31  33
ENDBRANCH  28  31
ENDBRANCH  24  29
ENDBRANCH   5  21
TORSDOF 6
ENDMDL
MODEL 7
REMARK VINA RESULT:      -8.7      5.646     11.227
REMARK  Name = 25062766
REMARK  6 active torsions:
REMARK  status: ('A' for Active; 'I' for Inactive)
REMARK    1  A    between atoms: N_1  and  C_12
REMARK    2  A    between atoms: C_5  and  C_21
REMARK    3  A    between atoms: C_9  and  N_16
REMARK    4  A    between atoms: C_24  and  C_29
REMARK    5  A    between atoms: N_28  and  C_31
REMARK    6  A    between atoms: C_31  and  C_33
REMARK                            x       y       z     vdW  Elec       q    Type
REMARK                         _______ _______ _______ _____ _____    ______ ____
ROOT
ATOM      1  N   UNL     1      34.325 -16.916 -25.584  0.00  0.00    -0.247 N 
ATOM      2  N   UNL     1      33.524 -14.919 -24.657  0.00  0.00    -0.337 NA
ATOM      3  N   UNL     1      33.752 -15.173 -27.042  0.00  0.00    -0.170 NA
ATOM      4  C   UNL     1      33.844 -15.605 -25.771  0.00  0.00    +0.149 C 
ATOM      5  C   UNL     1      33.067 -13.667 -24.872  0.00  0.00    +0.146 C 
ATOM      6  C   UNL     1      32.927 -13.107 -26.126  0.00  0.00    +0.055 C 
ATOM      7  C   UNL     1      33.288 -13.914 -27.185  0.00  0.00    +0.114 C 
ATOM      8  H   UNL     1      34.545 -17.380 -26.425  0.00  0.00    +0.165 HD
ENDROOT
BRANCH   1  12
ATOM      9  C   UNL     1      35.001 -19.238 -22.151  0.00  0.00    +0.048 C 
ATOM     10  C   UNL     1      35.003 -17.846 -22.063  0.00  0.00    +0.016 C 
ATOM     11  C   UNL     1      34.774 -19.859 -23.379  0.00  0.00    +0.016 C 
ATOM     12  C   UNL     1      34.552 -17.695 -24.431  0.00  0.00    +0.058 C 
ATOM     13  C   UNL     1      34.779 -17.075 -23.202  0.00  0.00    +0.017 C 
ATOM     14  C   UNL     1      34.549 -19.088 -24.519  0.00  0.00    +0.017 C 
BRANCH   9  16
ATOM     15  O   UNL     1      35.591 -21.346 -18.561  0.00  0.00    -0.350 OA
ATOM     16  N   UNL     1      35.226 -20.012 -21.007  0.00  0.00    -0.303 N 
ATOM     17  C   UNL     1      34.067 -20.389 -20.186  0.00  0.00    +0.123 C 
ATOM     18  C   UNL     1      36.493 -19.890 -20.279  0.00  0.00    +0.123 C 
ATOM     19  C   UNL     1      34.415 -21.601 -19.329  0.00  0.00    +0.164 C 
ATOM     20  C   UNL     1      36.713 -21.128 -19.416  0.00  0.00    +0.164 C 
ENDBRANCH   9  16
ENDBRANCH   1  12
BRANCH   5  21
ATOM     21  C   UNL     1      32.726 -12.927 -23.681  0.00  0.00    +0.031 C 
ATOM     22  C   UNL     1      32.347 -13.604 -22.522  0.00  0.00    +0.003 C 
ATOM     23  C   UNL     1      32.776 -11.533 -23.689  0.00  0.00    +0.003 C 
ATOM     24  C   UNL     1      32.069 -11.494 -21.379  0.00  0.00    +0.053 C 
ATOM     25  C   UNL     1      32.018 -12.888 -21.371  0.00  0.00    +0.005 C 
ATOM     26  C   UNL     1      32.448 -10.816 -22.538  0.00  0.00    +0.005 C 
BRANCH  24  29
ATOM     27  O   UNL     1      31.388 -11.341 -19.141  0.00  0.00    -0.270 OA
ATOM     28  N   UNL     1      31.821  -9.352 -20.251  0.00  0.00    -0.288 N 
ATOM     29  C   UNL     1      31.727 -10.747 -20.180  0.00  0.00    +0.247 C 
ATOM     30  H   UNL     1      32.095  -8.948 -21.106  0.00  0.00    +0.151 HD
BRANCH  28  31
ATOM     31  C   UNL     1      31.537  -8.473 -19.140  0.00  0.00    +0.197 C 
BRANCH  31  33
ATOM     32  N   UNL     1      32.784  -6.184 -19.422  0.00  0.00    -0.194 NA
ATOM     33  C   UNL     1      32.231  -7.196 -19.295  0.00  0.00    +0.095 C 
ENDBRANCH  31  33
ENDBRANCH  28  31
ENDBRANCH  24  29
ENDBRANCH   5  21
TORSDOF 6
ENDMDL
MODEL 8
REMARK VINA RESULT:      -8.2      4.944     10.183
REMARK  Name = 25062766
REMARK  6 active torsions:
REMARK  status: ('A' for Active; 'I' for Inactive)
REMARK    1  A    between atoms: N_1  and  C_12
REMARK    2  A    between atoms: C_5  and  C_21
REMARK    3  A    between atoms: C_9  and  N_16
REMARK    4  A    between atoms: C_24  and  C_29
REMARK    5  A    between atoms: N_28  and  C_31
REMARK    6  A    between atoms: C_31  and  C_33
REMARK                            x       y       z     vdW  Elec       q    Type
REMARK                         _______ _______ _______ _____ _____    ______ ____
ROOT
ATOM      1  N   UNL     1      34.826 -18.617 -24.165  0.00  0.00    -0.247 N 
ATOM      2  N   UNL     1      33.957 -16.529 -23.554  0.00  0.00    -0.337 NA
ATOM      3  N   UNL     1      34.319 -17.091 -25.869  0.00  0.00    -0.170 NA
ATOM      4  C   UNL     1      34.344 -17.351 -24.549  0.00  0.00    +0.149 C 
ATOM      5  C   UNL     1      33.501 -15.325 -23.957  0.00  0.00    +0.146 C 
ATOM      6  C   UNL     1      33.425 -14.936 -25.280  0.00  0.00    +0.055 C 
ATOM      7  C   UNL     1      33.853 -15.869 -26.201  0.00  0.00    +0.114 C 
ATOM      8  H   UNL     1      35.097 -19.184 -24.924  0.00  0.00    +0.165 HD
ENDROOT
BRANCH   1  12
ATOM      9  C   UNL     1      35.335 -20.455 -20.423  0.00  0.00    +0.048 C 
ATOM     10  C   UNL     1      34.067 -20.390 -21.002  0.00  0.00    +0.016 C 
ATOM     11  C   UNL     1      36.434 -19.910 -21.087  0.00  0.00    +0.016 C 
ATOM     12  C   UNL     1      34.997 -19.235 -22.908  0.00  0.00    +0.058 C 
ATOM     13  C   UNL     1      33.898 -19.780 -22.244  0.00  0.00    +0.017 C 
ATOM     14  C   UNL     1      36.264 -19.300 -22.329  0.00  0.00    +0.017 C 
BRANCH   9  16
ATOM     15  O   UNL     1      36.004 -22.487 -16.803  0.00  0.00    -0.350 OA
ATOM     16  N   UNL     1      35.504 -21.068 -19.177  0.00  0.00    -0.303 N 
ATOM     17  C   UNL     1      36.849 -21.078 -18.587  0.00  0.00    +0.123 C 
ATOM     18  C   UNL     1      34.644 -22.192 -18.791  0.00  0.00    +0.123 C 
ATOM     19  C   UNL     1      36.751 -21.303 -17.082  0.00  0.00    +0.164 C 
ATOM     20  C   UNL     1      34.663 -22.358 -17.275  0.00  0.00    +0.164 C 
ENDBRANCH   9  16
ENDBRANCH   1  12
BRANCH   5  21
ATOM     21  C   UNL     1      33.087 -14.440 -22.895  0.00  0.00    +0.031 C 
ATOM     22  C   UNL     1      33.095 -14.884 -21.572  0.00  0.00    +0.003 C 
ATOM     23  C   UNL     1      32.679 -13.139 -23.190  0.00  0.00    +0.003 C 
ATOM     24  C   UNL     1      32.289 -12.727 -20.842  0.00  0.00    +0.053 C 
ATOM     25  C   UNL     1      32.696 -14.028 -20.546  0.00  0.00    +0.005 C 
ATOM     26  C   UNL     1      32.280 -12.283 -22.164  0.00  0.00    +0.005 C 
BRANCH  24  29
ATOM     27  O   UNL     1      31.568 -12.287 -18.655  0.00  0.00    -0.270 OA
ATOM     28  N   UNL     1      31.858 -10.464 -20.058  0.00  0.00    -0.288 N 
ATOM     29  C   UNL     1      31.873 -11.834 -19.772  0.00  0.00    +0.247 C 
ATOM     30  H   UNL     1      32.111 -10.175 -20.964  0.00  0.00    +0.151 HD
BRANCH  28  31
ATOM     31  C   UNL     1      31.492  -9.450 -19.095  0.00  0.00    +0.197 C 
BRANCH  31  33
ATOM     32  N   UNL     1      32.467  -7.116 -19.782  0.00  0.00    -0.194 NA
ATOM     33  C   UNL     1      32.034  -8.148 -19.479  0.00  0.00    +0.095 C 
ENDBRANCH  31  33
ENDBRANCH  28  31
ENDBRANCH  24  29
ENDBRANCH   5  21
TORSDOF 6
ENDMDL
