MODEL 1
REMARK VINA RESULT:      -9.4      0.000      0.000
REMARK  Name = 448288
REMARK  8 active torsions:
REMARK  status: ('A' for Active; 'I' for Inactive)
REMARK    1  A    between atoms: C_1  and  C_4
REMARK    2  A    between atoms: C_1  and  O_15
REMARK    3  A    between atoms: C_1  and  C_17
REMARK    4  A    between atoms: N_3  and  N_6
REMARK    5  A    between atoms: N_6  and  C_8
REMARK    6  A    between atoms: C_17  and  N_18
REMARK    7  A    between atoms: C_17  and  C_22
REMARK    8  A    between atoms: C_22  and  C_23
REMARK                            x       y       z     vdW  Elec       q    Type
REMARK                         _______ _______ _______ _____ _____    ______ ____
ROOT
ATOM      1  C   UNL     1      34.433 -14.700 -21.863  0.00  0.00    +0.168 C 
ENDROOT
BRANCH   1   4
ATOM      2  O   UNL     1      34.041 -16.432 -23.507  0.00  0.00    -0.271 OA
ATOM      3  N   UNL     1      35.240 -16.962 -21.591  0.00  0.00    -0.234 N 
ATOM      4  C   UNL     1      34.532 -16.116 -22.425  0.00  0.00    +0.263 C 
ATOM      5  H   UNL     1      35.606 -16.638 -20.737  0.00  0.00    +0.173 HD
BRANCH   3   6
ATOM      6  N   UNL     1      35.420 -18.256 -21.985  0.00  0.00    -0.263 N 
ATOM      7  H   UNL     1      35.872 -18.458 -22.836  0.00  0.00    +0.170 HD
BRANCH   6   8
ATOM      8  C   UNL     1      34.957 -19.294 -21.168  0.00  0.00    +0.061 C 
ATOM      9  C   UNL     1      33.583 -19.489 -20.981  0.00  0.00    +0.015 C 
ATOM     10  C   UNL     1      35.862 -20.150 -20.529  0.00  0.00    +0.015 C 
ATOM     11  C   UNL     1      34.031 -21.371 -19.533  0.00  0.00    -0.022 C 
ATOM     12  C   UNL     1      33.122 -20.524 -20.167  0.00  0.00    -0.003 C 
ATOM     13  C   UNL     1      35.401 -21.184 -19.714  0.00  0.00    -0.003 C 
ATOM     14  C   UNL     1      33.537 -22.478 -18.663  0.00  0.00    +0.031 C 
ENDBRANCH   6   8
ENDBRANCH   3   6
ENDBRANCH   1   4
BRANCH   1  15
ATOM     15  O   UNL     1      34.800 -13.773 -22.874  0.00  0.00    -0.377 OA
ATOM     16  H   UNL     1      35.011 -12.918 -22.465  0.00  0.00    +0.211 HD
ENDBRANCH   1  15
BRANCH   1  17
ATOM     17  C   UNL     1      33.025 -14.370 -21.327  0.00  0.00    -0.029 C 
BRANCH  17  18
ATOM     18  N   UNL     1      32.292 -15.612 -21.044  0.00  0.00    +0.384 N 
ATOM     19  H   UNL     1      32.134 -16.120 -21.915  0.00  0.00    -0.089 HD
ATOM     20  H   UNL     1      31.395 -15.387 -20.615  0.00  0.00    -0.089 HD
ATOM     21  H   UNL     1      32.838 -16.192 -20.407  0.00  0.00    -0.089 HD
ENDBRANCH  17  18
BRANCH  17  22
ATOM     22  C   UNL     1      32.184 -13.513 -22.294  0.00  0.00    -0.019 C 
BRANCH  22  23
ATOM     23  C   UNL     1      31.618 -12.251 -21.647  0.00  0.00    -0.002 C 
ATOM     24  C   UNL     1      32.151 -10.995 -22.349  0.00  0.00    -0.000 C 
ATOM     25  C   UNL     1      31.942 -12.218 -20.147  0.00  0.00    -0.000 C 
ATOM     26  C   UNL     1      31.641  -9.718 -21.685  0.00  0.00    -0.000 C 
ATOM     27  C   UNL     1      31.433 -10.938 -19.488  0.00  0.00    -0.000 C 
ATOM     28  C   UNL     1      31.958  -9.693 -20.193  0.00  0.00    -0.000 C 
ENDBRANCH  22  23
ENDBRANCH  17  22
ENDBRANCH   1  17
TORSDOF 8
ENDMDL
MODEL 2
REMARK VINA RESULT:      -9.4      2.110      8.785
REMARK  Name = 448288
REMARK  8 active torsions:
REMARK  status: ('A' for Active; 'I' for Inactive)
REMARK    1  A    between atoms: C_1  and  C_4
REMARK    2  A    between atoms: C_1  and  O_15
REMARK    3  A    between atoms: C_1  and  C_17
REMARK    4  A    between atoms: N_3  and  N_6
REMARK    5  A    between atoms: N_6  and  C_8
REMARK    6  A    between atoms: C_17  and  N_18
REMARK    7  A    between atoms: C_17  and  C_22
REMARK    8  A    between atoms: C_22  and  C_23
REMARK                            x       y       z     vdW  Elec       q    Type
REMARK                         _______ _______ _______ _____ _____    ______ ____
ROOT
ATOM      1  C   UNL     1      34.049 -15.977 -22.932  0.00  0.00    +0.168 C 
ENDROOT
BRANCH   1   4
ATOM      2  O   UNL     1      32.211 -14.945 -21.743  0.00  0.00    -0.271 OA
ATOM      3  N   UNL     1      33.268 -13.743 -23.424  0.00  0.00    -0.234 N 
ATOM      4  C   UNL     1      33.065 -14.851 -22.623  0.00  0.00    +0.263 C 
ATOM      5  H   UNL     1      33.974 -13.740 -24.111  0.00  0.00    +0.173 HD
BRANCH   3   6
ATOM      6  N   UNL     1      32.467 -12.655 -23.238  0.00  0.00    -0.263 N 
ATOM      7  H   UNL     1      31.518 -12.771 -23.004  0.00  0.00    +0.170 HD
BRANCH   6   8
ATOM      8  C   UNL     1      33.006 -11.371 -23.381  0.00  0.00    +0.061 C 
ATOM      9  C   UNL     1      32.432 -10.284 -22.711  0.00  0.00    +0.015 C 
ATOM     10  C   UNL     1      34.125 -11.159 -24.195  0.00  0.00    +0.015 C 
ATOM     11  C   UNL     1      34.083  -8.802 -23.667  0.00  0.00    -0.022 C 
ATOM     12  C   UNL     1      32.969  -9.004 -22.853  0.00  0.00    -0.003 C 
ATOM     13  C   UNL     1      34.662  -9.879 -24.338  0.00  0.00    -0.003 C 
ATOM     14  C   UNL     1      34.658  -7.434 -23.819  0.00  0.00    +0.031 C 
ENDBRANCH   6   8
ENDBRANCH   3   6
ENDBRANCH   1   4
BRANCH   1  15
ATOM     15  O   UNL     1      35.254 -15.418 -23.431  0.00  0.00    -0.377 OA
ATOM     16  H   UNL     1      35.288 -14.474 -23.208  0.00  0.00    +0.211 HD
ENDBRANCH   1  15
BRANCH   1  17
ATOM     17  C   UNL     1      34.345 -16.862 -21.703  0.00  0.00    -0.029 C 
BRANCH  17  18
ATOM     18  N   UNL     1      34.804 -16.027 -20.583  0.00  0.00    +0.384 N 
ATOM     19  H   UNL     1      35.099 -15.117 -20.935  0.00  0.00    -0.089 HD
ATOM     20  H   UNL     1      35.589 -16.484 -20.119  0.00  0.00    -0.089 HD
ATOM     21  H   UNL     1      34.041 -15.903 -19.917  0.00  0.00    -0.089 HD
ENDBRANCH  17  18
BRANCH  17  22
ATOM     22  C   UNL     1      35.404 -17.950 -21.969  0.00  0.00    -0.019 C 
BRANCH  22  23
ATOM     23  C   UNL     1      34.961 -19.345 -21.534  0.00  0.00    -0.002 C 
ATOM     24  C   UNL     1      33.549 -19.303 -20.934  0.00  0.00    -0.000 C 
ATOM     25  C   UNL     1      35.961 -19.945 -20.536  0.00  0.00    -0.000 C 
ATOM     26  C   UNL     1      33.104 -20.679 -20.442  0.00  0.00    -0.000 C 
ATOM     27  C   UNL     1      35.512 -21.319 -20.045  0.00  0.00    -0.000 C 
ATOM     28  C   UNL     1      34.106 -21.276 -19.457  0.00  0.00    -0.000 C 
ENDBRANCH  22  23
ENDBRANCH  17  22
ENDBRANCH   1  17
TORSDOF 8
ENDMDL
MODEL 3
REMARK VINA RESULT:      -9.3      2.321      8.943
REMARK  Name = 448288
REMARK  8 active torsions:
REMARK  status: ('A' for Active; 'I' for Inactive)
REMARK    1  A    between atoms: C_1  and  C_4
REMARK    2  A    between atoms: C_1  and  O_15
REMARK    3  A    between atoms: C_1  and  C_17
REMARK    4  A    between atoms: N_3  and  N_6
REMARK    5  A    between atoms: N_6  and  C_8
REMARK    6  A    between atoms: C_17  and  N_18
REMARK    7  A    between atoms: C_17  and  C_22
REMARK    8  A    between atoms: C_22  and  C_23
REMARK                            x       y       z     vdW  Elec       q    Type
REMARK                         _______ _______ _______ _____ _____    ______ ____
ROOT
ATOM      1  C   UNL     1      34.230 -15.590 -21.937  0.00  0.00    +0.168 C 
ENDROOT
BRANCH   1   4
ATOM      2  O   UNL     1      33.471 -15.365 -24.224  0.00  0.00    -0.271 OA
ATOM      3  N   UNL     1      34.262 -13.482 -23.121  0.00  0.00    -0.234 N 
ATOM      4  C   UNL     1      33.945 -14.823 -23.227  0.00  0.00    +0.263 C 
ATOM      5  H   UNL     1      34.640 -13.117 -22.288  0.00  0.00    +0.173 HD
BRANCH   3   6
ATOM      6  N   UNL     1      34.037 -12.677 -24.199  0.00  0.00    -0.263 N 
ATOM      7  H   UNL     1      33.943 -13.067 -25.098  0.00  0.00    +0.170 HD
BRANCH   6   8
ATOM      8  C   UNL     1      33.940 -11.293 -24.016  0.00  0.00    +0.061 C 
ATOM      9  C   UNL     1      34.903 -10.437 -24.564  0.00  0.00    +0.015 C 
ATOM     10  C   UNL     1      32.878 -10.748 -23.284  0.00  0.00    +0.015 C 
ATOM     11  C   UNL     1      33.746  -8.523 -23.649  0.00  0.00    -0.022 C 
ATOM     12  C   UNL     1      34.806  -9.057 -24.382  0.00  0.00    -0.003 C 
ATOM     13  C   UNL     1      32.781  -9.368 -23.100  0.00  0.00    -0.003 C 
ATOM     14  C   UNL     1      33.642  -7.048 -23.455  0.00  0.00    +0.031 C 
ENDBRANCH   6   8
ENDBRANCH   3   6
ENDBRANCH   1   4
BRANCH   1  15
ATOM     15  O   UNL     1      33.001 -15.890 -21.294  0.00  0.00    -0.377 OA
ATOM     16  H   UNL     1      32.334 -16.112 -21.962  0.00  0.00    +0.211 HD
ENDBRANCH   1  15
BRANCH   1  17
ATOM     17  C   UNL     1      35.033 -16.884 -22.180  0.00  0.00    -0.029 C 
BRANCH  17  18
ATOM     18  N   UNL     1      35.761 -16.792 -23.453  0.00  0.00    +0.384 N 
ATOM     19  H   UNL     1      35.190 -17.186 -24.201  0.00  0.00    -0.089 HD
ATOM     20  H   UNL     1      36.635 -17.312 -23.383  0.00  0.00    -0.089 HD
ATOM     21  H   UNL     1      35.963 -15.813 -23.659  0.00  0.00    -0.089 HD
ENDBRANCH  17  18
BRANCH  17  22
ATOM     22  C   UNL     1      34.158 -18.154 -22.207  0.00  0.00    -0.019 C 
BRANCH  22  23
ATOM     23  C   UNL     1      34.347 -19.045 -20.980  0.00  0.00    -0.002 C 
ATOM     24  C   UNL     1      35.672 -19.812 -21.066  0.00  0.00    -0.000 C 
ATOM     25  C   UNL     1      33.164 -20.011 -20.826  0.00  0.00    -0.000 C 
ATOM     26  C   UNL     1      35.858 -20.751 -19.875  0.00  0.00    -0.000 C 
ATOM     27  C   UNL     1      33.355 -20.949 -19.636  0.00  0.00    -0.000 C 
ATOM     28  C   UNL     1      34.677 -21.704 -19.720  0.00  0.00    -0.000 C 
ENDBRANCH  22  23
ENDBRANCH  17  22
ENDBRANCH   1  17
TORSDOF 8
ENDMDL
MODEL 4
REMARK VINA RESULT:      -9.3      1.564      8.649
REMARK  Name = 448288
REMARK  8 active torsions:
REMARK  status: ('A' for Active; 'I' for Inactive)
REMARK    1  A    between atoms: C_1  and  C_4
REMARK    2  A    between atoms: C_1  and  O_15
REMARK    3  A    between atoms: C_1  and  C_17
REMARK    4  A    between atoms: N_3  and  N_6
REMARK    5  A    between atoms: N_6  and  C_8
REMARK    6  A    between atoms: C_17  and  N_18
REMARK    7  A    between atoms: C_17  and  C_22
REMARK    8  A    between atoms: C_22  and  C_23
REMARK                            x       y       z     vdW  Elec       q    Type
REMARK                         _______ _______ _______ _____ _____    ______ ____
ROOT
ATOM      1  C   UNL     1      33.737 -15.111 -22.266  0.00  0.00    +0.168 C 
ENDROOT
BRANCH   1   4
ATOM      2  O   UNL     1      32.352 -14.405 -20.411  0.00  0.00    -0.271 OA
ATOM      3  N   UNL     1      32.135 -13.309 -22.445  0.00  0.00    -0.234 N 
ATOM      4  C   UNL     1      32.668 -14.255 -21.589  0.00  0.00    +0.263 C 
ATOM      5  H   UNL     1      32.437 -13.247 -23.380  0.00  0.00    +0.173 HD
BRANCH   3   6
ATOM      6  N   UNL     1      31.181 -12.463 -21.960  0.00  0.00    -0.263 N 
ATOM      7  H   UNL     1      30.238 -12.746 -21.924  0.00  0.00    +0.170 HD
BRANCH   6   8
ATOM      8  C   UNL     1      31.553 -11.191 -21.511  0.00  0.00    +0.061 C 
ATOM      9  C   UNL     1      31.515 -10.882 -20.146  0.00  0.00    +0.015 C 
ATOM     10  C   UNL     1      31.969 -10.212 -22.422  0.00  0.00    +0.015 C 
ATOM     11  C   UNL     1      32.297  -8.644 -20.614  0.00  0.00    -0.022 C 
ATOM     12  C   UNL     1      31.886  -9.613 -19.699  0.00  0.00    -0.003 C 
ATOM     13  C   UNL     1      32.340  -8.943 -21.975  0.00  0.00    -0.003 C 
ATOM     14  C   UNL     1      32.694  -7.288 -20.135  0.00  0.00    +0.031 C 
ENDBRANCH   6   8
ENDBRANCH   3   6
ENDBRANCH   1   4
BRANCH   1  15
ATOM     15  O   UNL     1      34.865 -14.301 -22.557  0.00  0.00    -0.377 OA
ATOM     16  H   UNL     1      35.387 -14.717 -23.261  0.00  0.00    +0.211 HD
ENDBRANCH   1  15
BRANCH   1  17
ATOM     17  C   UNL     1      34.160 -16.321 -21.409  0.00  0.00    -0.029 C 
BRANCH  17  18
ATOM     18  N   UNL     1      34.837 -15.859 -20.188  0.00  0.00    +0.384 N 
ATOM     19  H   UNL     1      35.829 -15.724 -20.379  0.00  0.00    -0.089 HD
ATOM     20  H   UNL     1      34.723 -16.556 -19.452  0.00  0.00    -0.089 HD
ATOM     21  H   UNL     1      34.425 -14.976 -19.885  0.00  0.00    -0.089 HD
ENDBRANCH  17  18
BRANCH  17  22
ATOM     22  C   UNL     1      35.096 -17.300 -22.146  0.00  0.00    -0.019 C 
BRANCH  22  23
ATOM     23  C   UNL     1      34.852 -18.762 -21.778  0.00  0.00    -0.002 C 
ATOM     24  C   UNL     1      33.500 -18.926 -21.073  0.00  0.00    -0.000 C 
ATOM     25  C   UNL     1      35.993 -19.298 -20.903  0.00  0.00    -0.000 C 
ATOM     26  C   UNL     1      33.257 -20.373 -20.648  0.00  0.00    -0.000 C 
ATOM     27  C   UNL     1      35.746 -20.744 -20.478  0.00  0.00    -0.000 C 
ATOM     28  C   UNL     1      34.398 -20.905 -19.785  0.00  0.00    -0.000 C 
ENDBRANCH  22  23
ENDBRANCH  17  22
ENDBRANCH   1  17
TORSDOF 8
ENDMDL
MODEL 5
REMARK VINA RESULT:      -9.3      1.256      8.494
REMARK  Name = 448288
REMARK  8 active torsions:
REMARK  status: ('A' for Active; 'I' for Inactive)
REMARK    1  A    between atoms: C_1  and  C_4
REMARK    2  A    between atoms: C_1  and  O_15
REMARK    3  A    between atoms: C_1  and  C_17
REMARK    4  A    between atoms: N_3  and  N_6
REMARK    5  A    between atoms: N_6  and  C_8
REMARK    6  A    between atoms: C_17  and  N_18
REMARK    7  A    between atoms: C_17  and  C_22
REMARK    8  A    between atoms: C_22  and  C_23
REMARK                            x       y       z     vdW  Elec       q    Type
REMARK                         _______ _______ _______ _____ _____    ______ ____
ROOT
ATOM      1  C   UNL     1      34.732 -16.687 -22.618  0.00  0.00    +0.168 C 
ENDROOT
BRANCH   1   4
ATOM      2  O   UNL     1      34.875 -15.447 -20.545  0.00  0.00    -0.271 OA
ATOM      3  N   UNL     1      33.010 -15.152 -21.896  0.00  0.00    -0.234 N 
ATOM      4  C   UNL     1      34.232 -15.706 -21.560  0.00  0.00    +0.263 C 
ATOM      5  H   UNL     1      32.552 -15.408 -22.728  0.00  0.00    +0.173 HD
BRANCH   3   6
ATOM      6  N   UNL     1      32.458 -14.241 -21.043  0.00  0.00    -0.263 N 
ATOM      7  H   UNL     1      32.212 -14.504 -20.127  0.00  0.00    +0.170 HD
BRANCH   6   8
ATOM      8  C   UNL     1      32.246 -12.929 -21.482  0.00  0.00    +0.061 C 
ATOM      9  C   UNL     1      32.693 -12.523 -22.745  0.00  0.00    +0.015 C 
ATOM     10  C   UNL     1      31.583 -12.007 -20.663  0.00  0.00    +0.015 C 
ATOM     11  C   UNL     1      31.822 -10.303 -22.359  0.00  0.00    -0.022 C 
ATOM     12  C   UNL     1      32.482 -11.216 -23.182  0.00  0.00    -0.003 C 
ATOM     13  C   UNL     1      31.372 -10.698 -21.099  0.00  0.00    -0.003 C 
ATOM     14  C   UNL     1      31.596  -8.905 -22.827  0.00  0.00    +0.031 C 
ENDBRANCH   6   8
ENDBRANCH   3   6
ENDBRANCH   1   4
BRANCH   1  15
ATOM     15  O   UNL     1      35.612 -16.010 -23.502  0.00  0.00    -0.377 OA
ATOM     16  H   UNL     1      35.752 -15.104 -23.185  0.00  0.00    +0.211 HD
ENDBRANCH   1  15
BRANCH   1  17
ATOM     17  C   UNL     1      35.437 -17.914 -22.004  0.00  0.00    -0.029 C 
BRANCH  17  18
ATOM     18  N   UNL     1      36.681 -18.196 -22.736  0.00  0.00    +0.384 N 
ATOM     19  H   UNL     1      36.967 -17.365 -23.254  0.00  0.00    -0.089 HD
ATOM     20  H   UNL     1      36.526 -18.966 -23.385  0.00  0.00    -0.089 HD
ATOM     21  H   UNL     1      37.414 -18.452 -22.073  0.00  0.00    -0.089 HD
ENDBRANCH  17  18
BRANCH  17  22
ATOM     22  C   UNL     1      34.569 -19.188 -22.007  0.00  0.00    -0.019 C 
BRANCH  22  23
ATOM     23  C   UNL     1      34.508 -19.882 -20.647  0.00  0.00    -0.002 C 
ATOM     24  C   UNL     1      35.725 -20.794 -20.449  0.00  0.00    -0.000 C 
ATOM     25  C   UNL     1      33.201 -20.674 -20.501  0.00  0.00    -0.000 C 
ATOM     26  C   UNL     1      35.659 -21.540 -19.117  0.00  0.00    -0.000 C 
ATOM     27  C   UNL     1      33.140 -21.420 -19.170  0.00  0.00    -0.000 C 
ATOM     28  C   UNL     1      34.356 -22.319 -18.972  0.00  0.00    -0.000 C 
ENDBRANCH  22  23
ENDBRANCH  17  22
ENDBRANCH   1  17
TORSDOF 8
ENDMDL
MODEL 6
REMARK VINA RESULT:      -9.2      8.968     11.150
REMARK  Name = 448288
REMARK  8 active torsions:
REMARK  status: ('A' for Active; 'I' for Inactive)
REMARK    1  A    between atoms: C_1  and  C_4
REMARK    2  A    between atoms: C_1  and  O_15
REMARK    3  A    between atoms: C_1  and  C_17
REMARK    4  A    between atoms: N_3  and  N_6
REMARK    5  A    between atoms: N_6  and  C_8
REMARK    6  A    between atoms: C_17  and  N_18
REMARK    7  A    between atoms: C_17  and  C_22
REMARK    8  A    between atoms: C_22  and  C_23
REMARK                            x       y       z     vdW  Elec       q    Type
REMARK                         _______ _______ _______ _____ _____    ______ ____
ROOT
ATOM      1  C   UNL     1      36.379 -23.580 -13.540  0.00  0.00    +0.168 C 
ENDROOT
BRANCH   1   4
ATOM      2  O   UNL     1      34.777 -23.972 -11.768  0.00  0.00    -0.271 OA
ATOM      3  N   UNL     1      34.225 -24.607 -13.931  0.00  0.00    -0.234 N 
ATOM      4  C   UNL     1      35.053 -24.071 -12.962  0.00  0.00    +0.263 C 
ATOM      5  H   UNL     1      34.514 -24.654 -14.871  0.00  0.00    +0.173 HD
BRANCH   3   6
ATOM      6  N   UNL     1      32.998 -25.066 -13.551  0.00  0.00    -0.263 N 
ATOM      7  H   UNL     1      32.922 -25.784 -12.883  0.00  0.00    +0.170 HD
BRANCH   6   8
ATOM      8  C   UNL     1      31.848 -24.506 -14.120  0.00  0.00    +0.061 C 
ATOM      9  C   UNL     1      31.838 -23.166 -14.524  0.00  0.00    +0.015 C 
ATOM     10  C   UNL     1      30.694 -25.281 -14.290  0.00  0.00    +0.015 C 
ATOM     11  C   UNL     1      29.546 -23.386 -15.256  0.00  0.00    -0.022 C 
ATOM     12  C   UNL     1      30.692 -22.608 -15.090  0.00  0.00    -0.003 C 
ATOM     13  C   UNL     1      29.547 -24.723 -14.856  0.00  0.00    -0.003 C 
ATOM     14  C   UNL     1      28.320 -22.790 -15.861  0.00  0.00    +0.031 C 
ENDBRANCH   6   8
ENDBRANCH   3   6
ENDBRANCH   1   4
BRANCH   1  15
ATOM     15  O   UNL     1      37.448 -24.200 -12.842  0.00  0.00    -0.377 OA
ATOM     16  H   UNL     1      37.785 -24.945 -13.364  0.00  0.00    +0.211 HD
ENDBRANCH   1  15
BRANCH   1  17
ATOM     17  C   UNL     1      36.505 -23.852 -15.053  0.00  0.00    -0.029 C 
BRANCH  17  18
ATOM     18  N   UNL     1      37.480 -24.927 -15.290  0.00  0.00    +0.384 N 
ATOM     19  H   UNL     1      37.040 -25.830 -15.118  0.00  0.00    -0.089 HD
ATOM     20  H   UNL     1      38.274 -24.809 -14.662  0.00  0.00    -0.089 HD
ATOM     21  H   UNL     1      37.803 -24.885 -16.257  0.00  0.00    -0.089 HD
ENDBRANCH  17  18
BRANCH  17  22
ATOM     22  C   UNL     1      36.933 -22.614 -15.866  0.00  0.00    -0.019 C 
BRANCH  22  23
ATOM     23  C   UNL     1      35.864 -22.133 -16.844  0.00  0.00    -0.002 C 
ATOM     24  C   UNL     1      34.721 -23.153 -16.943  0.00  0.00    -0.000 C 
ATOM     25  C   UNL     1      36.475 -21.861 -18.226  0.00  0.00    -0.000 C 
ATOM     26  C   UNL     1      33.664 -22.719 -17.957  0.00  0.00    -0.000 C 
ATOM     27  C   UNL     1      35.415 -21.430 -19.237  0.00  0.00    -0.000 C 
ATOM     28  C   UNL     1      34.277 -22.441 -19.326  0.00  0.00    -0.000 C 
ENDBRANCH  22  23
ENDBRANCH  17  22
ENDBRANCH   1  17
TORSDOF 8
ENDMDL
MODEL 7
REMARK VINA RESULT:      -9.2      6.359     11.326
REMARK  Name = 448288
REMARK  8 active torsions:
REMARK  status: ('A' for Active; 'I' for Inactive)
REMARK    1  A    between atoms: C_1  and  C_4
REMARK    2  A    between atoms: C_1  and  O_15
REMARK    3  A    between atoms: C_1  and  C_17
REMARK    4  A    between atoms: N_3  and  N_6
REMARK    5  A    between atoms: N_6  and  C_8
REMARK    6  A    between atoms: C_17  and  N_18
REMARK    7  A    between atoms: C_17  and  C_22
REMARK    8  A    between atoms: C_22  and  C_23
REMARK                            x       y       z     vdW  Elec       q    Type
REMARK                         _______ _______ _______ _____ _____    ______ ____
ROOT
ATOM      1  C   UNL     1      33.337 -23.226 -15.157  0.00  0.00    +0.168 C 
ENDROOT
BRANCH   1   4
ATOM      2  O   UNL     1      35.172 -23.633 -16.681  0.00  0.00    -0.271 OA
ATOM      3  N   UNL     1      33.102 -23.051 -17.556  0.00  0.00    -0.234 N 
ATOM      4  C   UNL     1      33.990 -23.326 -16.533  0.00  0.00    +0.263 C 
ATOM      5  H   UNL     1      32.167 -22.811 -17.362  0.00  0.00    +0.173 HD
BRANCH   3   6
ATOM      6  N   UNL     1      33.554 -23.124 -18.841  0.00  0.00    -0.263 N 
ATOM      7  H   UNL     1      33.561 -23.986 -19.317  0.00  0.00    +0.170 HD
BRANCH   6   8
ATOM      8  C   UNL     1      34.007 -21.963 -19.478  0.00  0.00    +0.061 C 
ATOM      9  C   UNL     1      33.094 -21.038 -19.997  0.00  0.00    +0.015 C 
ATOM     10  C   UNL     1      35.379 -21.714 -19.603  0.00  0.00    +0.015 C 
ATOM     11  C   UNL     1      34.914 -19.640 -20.753  0.00  0.00    -0.022 C 
ATOM     12  C   UNL     1      33.545 -19.880 -20.632  0.00  0.00    -0.003 C 
ATOM     13  C   UNL     1      35.832 -20.557 -20.239  0.00  0.00    -0.003 C 
ATOM     14  C   UNL     1      35.397 -18.403 -21.431  0.00  0.00    +0.031 C 
ENDBRANCH   6   8
ENDBRANCH   3   6
ENDBRANCH   1   4
BRANCH   1  15
ATOM     15  O   UNL     1      31.930 -23.123 -15.316  0.00  0.00    -0.377 OA
ATOM     16  H   UNL     1      31.580 -23.968 -15.641  0.00  0.00    +0.211 HD
ENDBRANCH   1  15
BRANCH   1  17
ATOM     17  C   UNL     1      33.681 -24.423 -14.247  0.00  0.00    -0.029 C 
BRANCH  17  18
ATOM     18  N   UNL     1      32.446 -25.084 -13.799  0.00  0.00    +0.384 N 
ATOM     19  H   UNL     1      32.005 -25.554 -14.589  0.00  0.00    -0.089 HD
ATOM     20  H   UNL     1      31.807 -24.387 -13.418  0.00  0.00    -0.089 HD
ATOM     21  H   UNL     1      32.671 -25.770 -13.077  0.00  0.00    -0.089 HD
ENDBRANCH  17  18
BRANCH  17  22
ATOM     22  C   UNL     1      34.507 -24.034 -13.004  0.00  0.00    -0.019 C 
BRANCH  22  23
ATOM     23  C   UNL     1      36.015 -24.100 -13.236  0.00  0.00    -0.002 C 
ATOM     24  C   UNL     1      36.383 -25.336 -14.067  0.00  0.00    -0.000 C 
ATOM     25  C   UNL     1      36.769 -24.097 -11.899  0.00  0.00    -0.000 C 
ATOM     26  C   UNL     1      37.893 -25.453 -14.266  0.00  0.00    -0.000 C 
ATOM     27  C   UNL     1      38.278 -24.216 -12.102  0.00  0.00    -0.000 C 
ATOM     28  C   UNL     1      38.639 -25.440 -12.936  0.00  0.00    -0.000 C 
ENDBRANCH  22  23
ENDBRANCH  17  22
ENDBRANCH   1  17
TORSDOF 8
ENDMDL
MODEL 8
REMARK VINA RESULT:      -9.1      1.285      8.494
REMARK  Name = 448288
REMARK  8 active torsions:
REMARK  status: ('A' for Active; 'I' for Inactive)
REMARK    1  A    between atoms: C_1  and  C_4
REMARK    2  A    between atoms: C_1  and  O_15
REMARK    3  A    between atoms: C_1  and  C_17
REMARK    4  A    between atoms: N_3  and  N_6
REMARK    5  A    between atoms: N_6  and  C_8
REMARK    6  A    between atoms: C_17  and  N_18
REMARK    7  A    between atoms: C_17  and  C_22
REMARK    8  A    between atoms: C_22  and  C_23
REMARK                            x       y       z     vdW  Elec       q    Type
REMARK                         _______ _______ _______ _____ _____    ______ ____
ROOT
ATOM      1  C   UNL     1      35.057 -15.956 -21.687  0.00  0.00    +0.168 C 
ENDROOT
BRANCH   1   4
ATOM      2  O   UNL     1      33.686 -15.332 -23.581  0.00  0.00    -0.271 OA
ATOM      3  N   UNL     1      33.128 -14.515 -21.481  0.00  0.00    -0.234 N 
ATOM      4  C   UNL     1      33.896 -15.240 -22.372  0.00  0.00    +0.263 C 
ATOM      5  H   UNL     1      33.357 -14.487 -20.524  0.00  0.00    +0.173 HD
BRANCH   3   6
ATOM      6  N   UNL     1      32.044 -13.841 -21.962  0.00  0.00    -0.263 N 
ATOM      7  H   UNL     1      31.290 -14.333 -22.361  0.00  0.00    +0.170 HD
BRANCH   6   8
ATOM      8  C   UNL     1      32.011 -12.444 -21.881  0.00  0.00    +0.061 C 
ATOM      9  C   UNL     1      32.480 -11.662 -22.943  0.00  0.00    +0.015 C 
ATOM     10  C   UNL     1      31.507 -11.812 -20.737  0.00  0.00    +0.015 C 
ATOM     11  C   UNL     1      31.945  -9.649 -21.719  0.00  0.00    -0.022 C 
ATOM     12  C   UNL     1      32.447 -10.270 -22.863  0.00  0.00    -0.003 C 
ATOM     13  C   UNL     1      31.475 -10.420 -20.656  0.00  0.00    -0.003 C 
ATOM     14  C   UNL     1      31.910  -8.160 -21.633  0.00  0.00    +0.031 C 
ENDBRANCH   6   8
ENDBRANCH   3   6
ENDBRANCH   1   4
BRANCH   1  15
ATOM     15  O   UNL     1      34.910 -15.840 -20.280  0.00  0.00    -0.377 OA
ATOM     16  H   UNL     1      34.060 -15.418 -20.079  0.00  0.00    +0.211 HD
ENDBRANCH   1  15
BRANCH   1  17
ATOM     17  C   UNL     1      35.160 -17.442 -22.088  0.00  0.00    -0.029 C 
BRANCH  17  18
ATOM     18  N   UNL     1      35.380 -17.556 -23.537  0.00  0.00    +0.384 N 
ATOM     19  H   UNL     1      35.078 -16.697 -23.996  0.00  0.00    -0.089 HD
ATOM     20  H   UNL     1      34.843 -18.343 -23.901  0.00  0.00    -0.089 HD
ATOM     21  H   UNL     1      36.372 -17.709 -23.719  0.00  0.00    -0.089 HD
ENDBRANCH  17  18
BRANCH  17  22
ATOM     22  C   UNL     1      33.912 -18.268 -21.716  0.00  0.00    -0.019 C 
BRANCH  22  23
ATOM     23  C   UNL     1      34.239 -19.692 -21.271  0.00  0.00    -0.002 C 
ATOM     24  C   UNL     1      33.194 -20.201 -20.271  0.00  0.00    -0.000 C 
ATOM     25  C   UNL     1      35.650 -19.761 -20.671  0.00  0.00    -0.000 C 
ATOM     26  C   UNL     1      33.529 -21.605 -19.771  0.00  0.00    -0.000 C 
ATOM     27  C   UNL     1      35.981 -21.166 -20.170  0.00  0.00    -0.000 C 
ATOM     28  C   UNL     1      34.935 -21.672 -19.182  0.00  0.00    -0.000 C 
ENDBRANCH  22  23
ENDBRANCH  17  22
ENDBRANCH   1  17
TORSDOF 8
ENDMDL
MODEL 9
REMARK VINA RESULT:      -9.1      5.977     11.432
REMARK  Name = 448288
REMARK  8 active torsions:
REMARK  status: ('A' for Active; 'I' for Inactive)
REMARK    1  A    between atoms: C_1  and  C_4
REMARK    2  A    between atoms: C_1  and  O_15
REMARK    3  A    between atoms: C_1  and  C_17
REMARK    4  A    between atoms: N_3  and  N_6
REMARK    5  A    between atoms: N_6  and  C_8
REMARK    6  A    between atoms: C_17  and  N_18
REMARK    7  A    between atoms: C_17  and  C_22
REMARK    8  A    between atoms: C_22  and  C_23
REMARK                            x       y       z     vdW  Elec       q    Type
REMARK                         _______ _______ _______ _____ _____    ______ ____
ROOT
ATOM      1  C   UNL     1      33.445 -23.223 -15.345  0.00  0.00    +0.168 C 
ENDROOT
BRANCH   1   4
ATOM      2  O   UNL     1      35.369 -23.180 -16.812  0.00  0.00    -0.271 OA
ATOM      3  N   UNL     1      33.247 -23.106 -17.751  0.00  0.00    -0.234 N 
ATOM      4  C   UNL     1      34.144 -23.162 -16.701  0.00  0.00    +0.263 C 
ATOM      5  H   UNL     1      32.277 -23.094 -17.586  0.00  0.00    +0.173 HD
BRANCH   3   6
ATOM      6  N   UNL     1      33.742 -23.067 -19.022  0.00  0.00    -0.263 N 
ATOM      7  H   UNL     1      33.941 -23.903 -19.503  0.00  0.00    +0.170 HD
BRANCH   6   8
ATOM      8  C   UNL     1      33.963 -21.829 -19.637  0.00  0.00    +0.061 C 
ATOM      9  C   UNL     1      35.267 -21.382 -19.879  0.00  0.00    +0.015 C 
ATOM     10  C   UNL     1      32.882 -21.025 -20.017  0.00  0.00    +0.015 C 
ATOM     11  C   UNL     1      34.404 -19.352 -20.867  0.00  0.00    -0.022 C 
ATOM     12  C   UNL     1      35.487 -20.148 -20.493  0.00  0.00    -0.003 C 
ATOM     13  C   UNL     1      33.101 -19.791 -20.630  0.00  0.00    -0.003 C 
ATOM     14  C   UNL     1      34.640 -18.034 -21.523  0.00  0.00    +0.031 C 
ENDBRANCH   6   8
ENDBRANCH   3   6
ENDBRANCH   1   4
BRANCH   1  15
ATOM     15  O   UNL     1      32.045 -23.345 -15.549  0.00  0.00    -0.377 OA
ATOM     16  H   UNL     1      31.598 -22.563 -15.188  0.00  0.00    +0.211 HD
ENDBRANCH   1  15
BRANCH   1  17
ATOM     17  C   UNL     1      33.955 -24.382 -14.464  0.00  0.00    -0.029 C 
BRANCH  17  18
ATOM     18  N   UNL     1      32.840 -24.958 -13.697  0.00  0.00    +0.384 N 
ATOM     19  H   UNL     1      33.057 -25.925 -13.454  0.00  0.00    -0.089 HD
ATOM     20  H   UNL     1      31.991 -24.931 -14.261  0.00  0.00    -0.089 HD
ATOM     21  H   UNL     1      32.699 -24.416 -12.844  0.00  0.00    -0.089 HD
ENDBRANCH  17  18
BRANCH  17  22
ATOM     22  C   UNL     1      35.063 -23.963 -13.477  0.00  0.00    -0.019 C 
BRANCH  22  23
ATOM     23  C   UNL     1      36.240 -24.935 -13.441  0.00  0.00    -0.002 C 
ATOM     24  C   UNL     1      37.551 -24.189 -13.162  0.00  0.00    -0.000 C 
ATOM     25  C   UNL     1      36.330 -25.726 -14.753  0.00  0.00    -0.000 C 
ATOM     26  C   UNL     1      38.752 -25.134 -13.175  0.00  0.00    -0.000 C 
ATOM     27  C   UNL     1      37.532 -26.668 -14.763  0.00  0.00    -0.000 C 
ATOM     28  C   UNL     1      38.833 -25.924 -14.477  0.00  0.00    -0.000 C 
ENDBRANCH  22  23
ENDBRANCH  17  22
ENDBRANCH   1  17
TORSDOF 8
ENDMDL
