MODEL 1
REMARK VINA RESULT:     -11.5      0.000      0.000
REMARK  Name = 3055168
REMARK  6 active torsions:
REMARK  status: ('A' for Active; 'I' for Inactive)
REMARK    1  A    between atoms: C_1  and  C_21
REMARK    2  A    between atoms: C_4  and  O_7
REMARK    3  A    between atoms: O_7  and  C_8
REMARK    4  A    between atoms: C_8  and  C_12
REMARK    5  A    between atoms: C_17  and  O_19
REMARK    6  A    between atoms: C_21  and  C_26
REMARK                            x       y       z     vdW  Elec       q    Type
REMARK                         _______ _______ _______ _____ _____    ______ ____
ROOT
ATOM      1  C   UNL     1      35.038 -19.951 -20.589  0.00  0.00    -0.021 C 
ATOM      2  C   UNL     1      33.654 -20.093 -20.491  0.00  0.00    -0.001 C 
ATOM      3  C   UNL     1      35.879 -20.895 -20.001  0.00  0.00    -0.001 C 
ATOM      4  C   UNL     1      33.956 -22.119 -19.221  0.00  0.00    +0.139 C 
ATOM      5  C   UNL     1      33.111 -21.180 -19.805  0.00  0.00    +0.037 C 
ATOM      6  C   UNL     1      35.337 -21.982 -19.316  0.00  0.00    +0.037 C 
ENDROOT
BRANCH   4   7
ATOM      7  O   UNL     1      33.423 -23.186 -18.550  0.00  0.00    -0.466 OA
BRANCH   7   8
ATOM      8  C   UNL     1      32.838 -22.914 -17.278  0.00  0.00    +0.279 C 
BRANCH   8  12
ATOM      9  N   UNL     1      33.376 -23.519 -14.923  0.00  0.00    -0.274 N 
ATOM     10  N   UNL     1      34.942 -23.943 -16.442  0.00  0.00    -0.390 NA
ATOM     11  C   UNL     1      34.420 -24.074 -14.228  0.00  0.00    +0.153 C 
ATOM     12  C   UNL     1      33.736 -23.462 -16.241  0.00  0.00    +0.205 C 
ATOM     13  C   UNL     1      35.385 -24.330 -15.199  0.00  0.00    +0.133 C 
ATOM     14  C   UNL     1      34.598 -24.365 -12.876  0.00  0.00    +0.037 C 
ATOM     15  C   UNL     1      32.121 -23.077 -14.360  0.00  0.00    +0.115 C 
ATOM     16  C   UNL     1      36.607 -24.909 -14.815  0.00  0.00    +0.033 C 
ATOM     17  C   UNL     1      35.819 -24.942 -12.511  0.00  0.00    +0.137 C 
ATOM     18  C   UNL     1      36.807 -25.210 -13.462  0.00  0.00    +0.039 C 
BRANCH  17  19
ATOM     19  O   UNL     1      36.049 -25.247 -11.202  0.00  0.00    -0.472 OA
ATOM     20  C   UNL     1      35.729 -24.245 -10.239  0.00  0.00    +0.252 C 
ENDBRANCH  17  19
ENDBRANCH   8  12
ENDBRANCH   7   8
ENDBRANCH   4   7
BRANCH   1  21
ATOM     21  C   UNL     1      35.618 -18.789 -21.321  0.00  0.00    +0.047 C 
BRANCH  21  26
ATOM     22  S   UNL     1      34.433 -16.303 -21.491  0.00  0.00    -0.048 S 
ATOM     23  O   UNL     1      35.145 -18.863 -24.290  0.00  0.00    -0.274 OA
ATOM     24  O   UNL     1      34.796 -14.378 -23.246  0.00  0.00    -0.263 OA
ATOM     25  N   UNL     1      35.000 -16.578 -23.967  0.00  0.00    -0.246 N 
ATOM     26  C   UNL     1      34.564 -18.010 -22.105  0.00  0.00    +0.137 C 
ATOM     27  C   UNL     1      34.935 -17.896 -23.566  0.00  0.00    +0.239 C 
ATOM     28  C   UNL     1      34.773 -15.584 -23.052  0.00  0.00    +0.279 C 
ATOM     29  H   UNL     1      35.209 -16.352 -24.903  0.00  0.00    +0.158 HD
ENDBRANCH  21  26
ENDBRANCH   1  21
TORSDOF 6
ENDMDL
MODEL 2
REMARK VINA RESULT:     -11.3      2.975     10.718
REMARK  Name = 3055168
REMARK  6 active torsions:
REMARK  status: ('A' for Active; 'I' for Inactive)
REMARK    1  A    between atoms: C_1  and  C_21
REMARK    2  A    between atoms: C_4  and  O_7
REMARK    3  A    between atoms: O_7  and  C_8
REMARK    4  A    between atoms: C_8  and  C_12
REMARK    5  A    between atoms: C_17  and  O_19
REMARK    6  A    between atoms: C_21  and  C_26
REMARK                            x       y       z     vdW  Elec       q    Type
REMARK                         _______ _______ _______ _____ _____    ______ ____
ROOT
ATOM      1  C   UNL     1      35.343 -22.810 -16.893  0.00  0.00    -0.021 C 
ATOM      2  C   UNL     1      36.558 -22.126 -16.926  0.00  0.00    -0.001 C 
ATOM      3  C   UNL     1      34.440 -22.681 -17.948  0.00  0.00    -0.001 C 
ATOM      4  C   UNL     1      35.966 -21.187 -19.066  0.00  0.00    +0.139 C 
ATOM      5  C   UNL     1      36.870 -21.312 -18.016  0.00  0.00    +0.037 C 
ATOM      6  C   UNL     1      34.753 -21.868 -19.038  0.00  0.00    +0.037 C 
ENDROOT
BRANCH   4   7
ATOM      7  O   UNL     1      36.274 -20.390 -20.134  0.00  0.00    -0.466 OA
BRANCH   7   8
ATOM      8  C   UNL     1      35.302 -20.313 -21.175  0.00  0.00    +0.279 C 
BRANCH   8  12
ATOM      9  N   UNL     1      34.886 -18.422 -22.741  0.00  0.00    -0.274 N 
ATOM     10  N   UNL     1      34.998 -17.917 -20.580  0.00  0.00    -0.390 NA
ATOM     11  C   UNL     1      34.692 -17.066 -22.671  0.00  0.00    +0.153 C 
ATOM     12  C   UNL     1      35.065 -18.884 -21.467  0.00  0.00    +0.205 C 
ATOM     13  C   UNL     1      34.766 -16.776 -21.311  0.00  0.00    +0.133 C 
ATOM     14  C   UNL     1      34.465 -16.098 -23.650  0.00  0.00    +0.037 C 
ATOM     15  C   UNL     1      34.898 -19.216 -23.948  0.00  0.00    +0.115 C 
ATOM     16  C   UNL     1      34.607 -15.446 -20.884  0.00  0.00    +0.033 C 
ATOM     17  C   UNL     1      34.308 -14.780 -23.208  0.00  0.00    +0.137 C 
ATOM     18  C   UNL     1      34.377 -14.458 -21.850  0.00  0.00    +0.039 C 
BRANCH  17  19
ATOM     19  O   UNL     1      34.085 -13.792 -24.120  0.00  0.00    -0.472 OA
ATOM     20  C   UNL     1      33.063 -14.023 -25.087  0.00  0.00    +0.252 C 
ENDBRANCH  17  19
ENDBRANCH   8  12
ENDBRANCH   7   8
ENDBRANCH   4   7
BRANCH   1  21
ATOM     21  C   UNL     1      35.009 -23.680 -15.729  0.00  0.00    +0.047 C 
BRANCH  21  26
ATOM     22  S   UNL     1      36.337 -23.611 -13.312  0.00  0.00    -0.048 S 
ATOM     23  O   UNL     1      36.134 -26.463 -15.904  0.00  0.00    -0.274 OA
ATOM     24  O   UNL     1      36.488 -25.428 -11.417  0.00  0.00    -0.263 OA
ATOM     25  N   UNL     1      36.329 -26.146 -13.621  0.00  0.00    -0.246 N 
ATOM     26  C   UNL     1      36.254 -24.215 -15.026  0.00  0.00    +0.137 C 
ATOM     27  C   UNL     1      36.229 -25.723 -14.931  0.00  0.00    +0.239 C 
ATOM     28  C   UNL     1      36.399 -25.217 -12.617  0.00  0.00    +0.279 C 
ATOM     29  H   UNL     1      36.351 -27.108 -13.410  0.00  0.00    +0.158 HD
ENDBRANCH  21  26
ENDBRANCH   1  21
TORSDOF 6
ENDMDL
MODEL 3
REMARK VINA RESULT:     -11.3      2.804     10.918
REMARK  Name = 3055168
REMARK  6 active torsions:
REMARK  status: ('A' for Active; 'I' for Inactive)
REMARK    1  A    between atoms: C_1  and  C_21
REMARK    2  A    between atoms: C_4  and  O_7
REMARK    3  A    between atoms: O_7  and  C_8
REMARK    4  A    between atoms: C_8  and  C_12
REMARK    5  A    between atoms: C_17  and  O_19
REMARK    6  A    between atoms: C_21  and  C_26
REMARK                            x       y       z     vdW  Elec       q    Type
REMARK                         _______ _______ _______ _____ _____    ______ ____
ROOT
ATOM      1  C   UNL     1      34.151 -22.424 -18.481  0.00  0.00    -0.021 C 
ATOM      2  C   UNL     1      35.530 -22.214 -18.460  0.00  0.00    -0.001 C 
ATOM      3  C   UNL     1      33.348 -21.698 -19.360  0.00  0.00    -0.001 C 
ATOM      4  C   UNL     1      35.299 -20.554 -20.193  0.00  0.00    +0.139 C 
ATOM      5  C   UNL     1      36.105 -21.276 -19.318  0.00  0.00    +0.037 C 
ATOM      6  C   UNL     1      33.923 -20.761 -20.218  0.00  0.00    +0.037 C 
ENDROOT
BRANCH   4   7
ATOM      7  O   UNL     1      35.864 -19.635 -21.035  0.00  0.00    -0.466 OA
BRANCH   7   8
ATOM      8  C   UNL     1      35.686 -18.262 -20.695  0.00  0.00    +0.279 C 
BRANCH   8  12
ATOM      9  N   UNL     1      34.674 -16.293 -21.837  0.00  0.00    -0.274 N 
ATOM     10  N   UNL     1      35.148 -18.049 -23.114  0.00  0.00    -0.390 NA
ATOM     11  C   UNL     1      34.292 -15.937 -23.105  0.00  0.00    +0.153 C 
ATOM     12  C   UNL     1      35.178 -17.563 -21.894  0.00  0.00    +0.205 C 
ATOM     13  C   UNL     1      34.599 -17.050 -23.884  0.00  0.00    +0.133 C 
ATOM     14  C   UNL     1      33.723 -14.774 -23.622  0.00  0.00    +0.037 C 
ATOM     15  C   UNL     1      34.562 -15.470 -20.655  0.00  0.00    +0.115 C 
ATOM     16  C   UNL     1      34.326 -17.018 -25.262  0.00  0.00    +0.033 C 
ATOM     17  C   UNL     1      33.459 -14.758 -24.996  0.00  0.00    +0.137 C 
ATOM     18  C   UNL     1      33.755 -15.859 -25.803  0.00  0.00    +0.039 C 
BRANCH  17  19
ATOM     19  O   UNL     1      32.902 -13.647 -25.556  0.00  0.00    -0.472 OA
ATOM     20  C   UNL     1      33.170 -13.415 -26.937  0.00  0.00    +0.252 C 
ENDBRANCH  17  19
ENDBRANCH   8  12
ENDBRANCH   7   8
ENDBRANCH   4   7
BRANCH   1  21
ATOM     21  C   UNL     1      33.536 -23.426 -17.564  0.00  0.00    +0.047 C 
BRANCH  21  26
ATOM     22  S   UNL     1      32.276 -23.170 -15.123  0.00  0.00    -0.048 S 
ATOM     23  O   UNL     1      35.844 -24.414 -15.910  0.00  0.00    -0.274 OA
ATOM     24  O   UNL     1      32.223 -24.814 -13.071  0.00  0.00    -0.263 OA
ATOM     25  N   UNL     1      34.145 -24.744 -14.377  0.00  0.00    -0.246 N 
ATOM     26  C   UNL     1      33.813 -23.117 -16.095  0.00  0.00    +0.137 C 
ATOM     27  C   UNL     1      34.728 -24.150 -15.477  0.00  0.00    +0.239 C 
ATOM     28  C   UNL     1      32.875 -24.384 -14.011  0.00  0.00    +0.279 C 
ATOM     29  H   UNL     1      34.637 -25.422 -13.858  0.00  0.00    +0.158 HD
ENDBRANCH  21  26
ENDBRANCH   1  21
TORSDOF 6
ENDMDL
MODEL 4
REMARK VINA RESULT:     -11.2      4.871     12.776
REMARK  Name = 3055168
REMARK  6 active torsions:
REMARK  status: ('A' for Active; 'I' for Inactive)
REMARK    1  A    between atoms: C_1  and  C_21
REMARK    2  A    between atoms: C_4  and  O_7
REMARK    3  A    between atoms: O_7  and  C_8
REMARK    4  A    between atoms: C_8  and  C_12
REMARK    5  A    between atoms: C_17  and  O_19
REMARK    6  A    between atoms: C_21  and  C_26
REMARK                            x       y       z     vdW  Elec       q    Type
REMARK                         _______ _______ _______ _____ _____    ______ ____
ROOT
ATOM      1  C   UNL     1      34.766 -17.913 -22.732  0.00  0.00    -0.021 C 
ATOM      2  C   UNL     1      34.723 -17.615 -24.093  0.00  0.00    -0.001 C 
ATOM      3  C   UNL     1      34.614 -16.896 -21.789  0.00  0.00    -0.001 C 
ATOM      4  C   UNL     1      34.377 -15.288 -23.569  0.00  0.00    +0.139 C 
ATOM      5  C   UNL     1      34.528 -16.298 -24.513  0.00  0.00    +0.037 C 
ATOM      6  C   UNL     1      34.418 -15.580 -22.208  0.00  0.00    +0.037 C 
ENDROOT
BRANCH   4   7
ATOM      7  O   UNL     1      34.184 -13.997 -23.980  0.00  0.00    -0.466 OA
BRANCH   7   8
ATOM      8  C   UNL     1      32.949 -13.386 -23.613  0.00  0.00    +0.279 C 
BRANCH   8  12
ATOM      9  N   UNL     1      32.381 -11.111 -22.776  0.00  0.00    -0.274 N 
ATOM     10  N   UNL     1      34.118 -11.259 -24.155  0.00  0.00    -0.390 NA
ATOM     11  C   UNL     1      32.847  -9.828 -22.918  0.00  0.00    +0.153 C 
ATOM     12  C   UNL     1      33.172 -11.928 -23.534  0.00  0.00    +0.205 C 
ATOM     13  C   UNL     1      33.931  -9.948 -23.784  0.00  0.00    +0.133 C 
ATOM     14  C   UNL     1      32.426  -8.612 -22.381  0.00  0.00    +0.037 C 
ATOM     15  C   UNL     1      31.256 -11.520 -21.968  0.00  0.00    +0.115 C 
ATOM     16  C   UNL     1      34.650  -8.795 -24.146  0.00  0.00    +0.033 C 
ATOM     17  C   UNL     1      33.152  -7.475 -22.751  0.00  0.00    +0.137 C 
ATOM     18  C   UNL     1      34.245  -7.563 -23.617  0.00  0.00    +0.039 C 
BRANCH  17  19
ATOM     19  O   UNL     1      32.786  -6.259 -22.257  0.00  0.00    -0.472 OA
ATOM     20  C   UNL     1      31.684  -6.233 -21.351  0.00  0.00    +0.252 C 
ENDBRANCH  17  19
ENDBRANCH   8  12
ENDBRANCH   7   8
ENDBRANCH   4   7
BRANCH   1  21
ATOM     21  C   UNL     1      34.974 -19.320 -22.283  0.00  0.00    +0.047 C 
BRANCH  21  26
ATOM     22  S   UNL     1      33.032 -20.156 -20.511  0.00  0.00    -0.048 S 
ATOM     23  O   UNL     1      36.873 -20.405 -20.219  0.00  0.00    -0.274 OA
ATOM     24  O   UNL     1      32.846 -22.396 -19.146  0.00  0.00    -0.263 OA
ATOM     25  N   UNL     1      34.964 -21.541 -19.575  0.00  0.00    -0.246 N 
ATOM     26  C   UNL     1      34.706 -19.501 -20.791  0.00  0.00    +0.137 C 
ATOM     27  C   UNL     1      35.652 -20.508 -20.179  0.00  0.00    +0.239 C 
ATOM     28  C   UNL     1      33.595 -21.558 -19.625  0.00  0.00    +0.279 C 
ATOM     29  H   UNL     1      35.453 -22.260 -19.113  0.00  0.00    +0.158 HD
ENDBRANCH  21  26
ENDBRANCH   1  21
TORSDOF 6
ENDMDL
MODEL 5
REMARK VINA RESULT:     -11.2      2.790     10.882
REMARK  Name = 3055168
REMARK  6 active torsions:
REMARK  status: ('A' for Active; 'I' for Inactive)
REMARK    1  A    between atoms: C_1  and  C_21
REMARK    2  A    between atoms: C_4  and  O_7
REMARK    3  A    between atoms: O_7  and  C_8
REMARK    4  A    between atoms: C_8  and  C_12
REMARK    5  A    between atoms: C_17  and  O_19
REMARK    6  A    between atoms: C_21  and  C_26
REMARK                            x       y       z     vdW  Elec       q    Type
REMARK                         _______ _______ _______ _____ _____    ______ ____
ROOT
ATOM      1  C   UNL     1      34.152 -22.459 -18.445  0.00  0.00    -0.021 C 
ATOM      2  C   UNL     1      35.518 -22.179 -18.416  0.00  0.00    -0.001 C 
ATOM      3  C   UNL     1      33.317 -21.770 -19.323  0.00  0.00    -0.001 C 
ATOM      4  C   UNL     1      35.210 -20.524 -20.142  0.00  0.00    +0.139 C 
ATOM      5  C   UNL     1      36.048 -21.208 -19.267  0.00  0.00    +0.037 C 
ATOM      6  C   UNL     1      33.846 -20.801 -20.175  0.00  0.00    +0.037 C 
ENDROOT
BRANCH   4   7
ATOM      7  O   UNL     1      35.731 -19.573 -20.977  0.00  0.00    -0.466 OA
BRANCH   7   8
ATOM      8  C   UNL     1      35.125 -19.451 -22.262  0.00  0.00    +0.279 C 
BRANCH   8  12
ATOM      9  N   UNL     1      34.529 -17.522 -23.720  0.00  0.00    -0.274 N 
ATOM     10  N   UNL     1      34.775 -17.093 -21.554  0.00  0.00    -0.390 NA
ATOM     11  C   UNL     1      34.289 -16.179 -23.583  0.00  0.00    +0.153 C 
ATOM     12  C   UNL     1      34.815 -18.023 -22.481  0.00  0.00    +0.205 C 
ATOM     13  C   UNL     1      34.449 -15.936 -22.221  0.00  0.00    +0.133 C 
ATOM     14  C   UNL     1      33.957 -15.186 -24.505  0.00  0.00    +0.037 C 
ATOM     15  C   UNL     1      34.485 -18.270 -24.955  0.00  0.00    +0.115 C 
ATOM     16  C   UNL     1      34.271 -14.630 -21.733  0.00  0.00    +0.033 C 
ATOM     17  C   UNL     1      33.783 -13.892 -24.002  0.00  0.00    +0.137 C 
ATOM     18  C   UNL     1      33.937 -13.617 -22.641  0.00  0.00    +0.039 C 
BRANCH  17  19
ATOM     19  O   UNL     1      33.459 -12.881 -24.857  0.00  0.00    -0.472 OA
ATOM     20  C   UNL     1      33.847 -11.563 -24.477  0.00  0.00    +0.252 C 
ENDBRANCH  17  19
ENDBRANCH   8  12
ENDBRANCH   7   8
ENDBRANCH   4   7
BRANCH   1  21
ATOM     21  C   UNL     1      33.585 -23.496 -17.535  0.00  0.00    +0.047 C 
BRANCH  21  26
ATOM     22  S   UNL     1      32.300 -23.243 -15.107  0.00  0.00    -0.048 S 
ATOM     23  O   UNL     1      35.881 -24.471 -15.856  0.00  0.00    -0.274 OA
ATOM     24  O   UNL     1      32.232 -24.885 -13.054  0.00  0.00    -0.263 OA
ATOM     25  N   UNL     1      34.167 -24.808 -14.340  0.00  0.00    -0.246 N 
ATOM     26  C   UNL     1      33.846 -23.184 -16.064  0.00  0.00    +0.137 C 
ATOM     27  C   UNL     1      34.759 -24.213 -15.435  0.00  0.00    +0.239 C 
ATOM     28  C   UNL     1      32.892 -24.453 -13.988  0.00  0.00    +0.279 C 
ATOM     29  H   UNL     1      34.657 -25.483 -13.816  0.00  0.00    +0.158 HD
ENDBRANCH  21  26
ENDBRANCH   1  21
TORSDOF 6
ENDMDL
MODEL 6
REMARK VINA RESULT:     -11.0      4.331     11.800
REMARK  Name = 3055168
REMARK  6 active torsions:
REMARK  status: ('A' for Active; 'I' for Inactive)
REMARK    1  A    between atoms: C_1  and  C_21
REMARK    2  A    between atoms: C_4  and  O_7
REMARK    3  A    between atoms: O_7  and  C_8
REMARK    4  A    between atoms: C_8  and  C_12
REMARK    5  A    between atoms: C_17  and  O_19
REMARK    6  A    between atoms: C_21  and  C_26
REMARK                            x       y       z     vdW  Elec       q    Type
REMARK                         _______ _______ _______ _____ _____    ______ ____
ROOT
ATOM      1  C   UNL     1      34.931 -18.763 -22.356  0.00  0.00    -0.021 C 
ATOM      2  C   UNL     1      34.924 -18.542 -23.733  0.00  0.00    -0.001 C 
ATOM      3  C   UNL     1      34.889 -17.681 -21.476  0.00  0.00    -0.001 C 
ATOM      4  C   UNL     1      34.834 -16.165 -23.349  0.00  0.00    +0.139 C 
ATOM      5  C   UNL     1      34.876 -17.240 -24.231  0.00  0.00    +0.037 C 
ATOM      6  C   UNL     1      34.839 -16.379 -21.974  0.00  0.00    +0.037 C 
ENDROOT
BRANCH   4   7
ATOM      7  O   UNL     1      34.784 -14.888 -23.837  0.00  0.00    -0.466 OA
BRANCH   7   8
ATOM      8  C   UNL     1      33.540 -14.462 -24.390  0.00  0.00    +0.279 C 
BRANCH   8  12
ATOM      9  N   UNL     1      33.254 -12.048 -23.853  0.00  0.00    -0.274 N 
ATOM     10  N   UNL     1      32.314 -13.497 -22.454  0.00  0.00    -0.390 NA
ATOM     11  C   UNL     1      32.649 -11.285 -22.886  0.00  0.00    +0.153 C 
ATOM     12  C   UNL     1      33.026 -13.361 -23.551  0.00  0.00    +0.205 C 
ATOM     13  C   UNL     1      32.069 -12.213 -22.025  0.00  0.00    +0.133 C 
ATOM     14  C   UNL     1      32.563  -9.906 -22.697  0.00  0.00    +0.037 C 
ATOM     15  C   UNL     1      33.998 -11.548 -24.986  0.00  0.00    +0.115 C 
ATOM     16  C   UNL     1      31.357 -11.755 -20.903  0.00  0.00    +0.033 C 
ATOM     17  C   UNL     1      31.851  -9.467 -21.576  0.00  0.00    +0.137 C 
ATOM     18  C   UNL     1      31.258 -10.374 -20.694  0.00  0.00    +0.039 C 
BRANCH  17  19
ATOM     19  O   UNL     1      31.734  -8.130 -21.340  0.00  0.00    -0.472 OA
ATOM     20  C   UNL     1      32.664  -7.551 -20.426  0.00  0.00    +0.252 C 
ENDBRANCH  17  19
ENDBRANCH   8  12
ENDBRANCH   7   8
ENDBRANCH   4   7
BRANCH   1  21
ATOM     21  C   UNL     1      34.984 -20.155 -21.824  0.00  0.00    +0.047 C 
BRANCH  21  26
ATOM     22  S   UNL     1      33.048 -20.671 -19.927  0.00  0.00    -0.048 S 
ATOM     23  O   UNL     1      36.853 -21.291 -19.761  0.00  0.00    -0.274 OA
ATOM     24  O   UNL     1      32.700 -22.786 -18.404  0.00  0.00    -0.263 OA
ATOM     25  N   UNL     1      34.872 -22.181 -18.970  0.00  0.00    -0.246 N 
ATOM     26  C   UNL     1      34.764 -20.209 -20.314  0.00  0.00    +0.137 C 
ATOM     27  C   UNL     1      35.631 -21.266 -19.669  0.00  0.00    +0.239 C 
ATOM     28  C   UNL     1      33.507 -22.062 -18.967  0.00  0.00    +0.279 C 
ATOM     29  H   UNL     1      35.306 -22.915 -18.477  0.00  0.00    +0.158 HD
ENDBRANCH  21  26
ENDBRANCH   1  21
TORSDOF 6
ENDMDL
MODEL 7
REMARK VINA RESULT:     -10.9      2.922     10.755
REMARK  Name = 3055168
REMARK  6 active torsions:
REMARK  status: ('A' for Active; 'I' for Inactive)
REMARK    1  A    between atoms: C_1  and  C_21
REMARK    2  A    between atoms: C_4  and  O_7
REMARK    3  A    between atoms: O_7  and  C_8
REMARK    4  A    between atoms: C_8  and  C_12
REMARK    5  A    between atoms: C_17  and  O_19
REMARK    6  A    between atoms: C_21  and  C_26
REMARK                            x       y       z     vdW  Elec       q    Type
REMARK                         _______ _______ _______ _____ _____    ______ ____
ROOT
ATOM      1  C   UNL     1      34.941 -22.926 -16.958  0.00  0.00    -0.021 C 
ATOM      2  C   UNL     1      33.835 -22.889 -17.807  0.00  0.00    -0.001 C 
ATOM      3  C   UNL     1      36.121 -22.277 -17.320  0.00  0.00    -0.001 C 
ATOM      4  C   UNL     1      35.090 -21.558 -19.377  0.00  0.00    +0.139 C 
ATOM      5  C   UNL     1      33.911 -22.204 -19.020  0.00  0.00    +0.037 C 
ATOM      6  C   UNL     1      36.196 -21.590 -18.532  0.00  0.00    +0.037 C 
ENDROOT
BRANCH   4   7
ATOM      7  O   UNL     1      35.163 -20.884 -20.565  0.00  0.00    -0.466 OA
BRANCH   7   8
ATOM      8  C   UNL     1      35.742 -19.581 -20.527  0.00  0.00    +0.279 C 
BRANCH   8  12
ATOM      9  N   UNL     1      34.989 -17.524 -21.712  0.00  0.00    -0.274 N 
ATOM     10  N   UNL     1      35.155 -19.373 -22.935  0.00  0.00    -0.390 NA
ATOM     11  C   UNL     1      34.618 -17.159 -22.981  0.00  0.00    +0.153 C 
ATOM     12  C   UNL     1      35.299 -18.855 -21.736  0.00  0.00    +0.205 C 
ATOM     13  C   UNL     1      34.731 -18.330 -23.726  0.00  0.00    +0.133 C 
ATOM     14  C   UNL     1      34.206 -15.942 -23.525  0.00  0.00    +0.037 C 
ATOM     15  C   UNL     1      35.040 -16.655 -20.560  0.00  0.00    +0.115 C 
ATOM     16  C   UNL     1      34.417 -18.304 -25.096  0.00  0.00    +0.033 C 
ATOM     17  C   UNL     1      33.900 -15.933 -24.889  0.00  0.00    +0.137 C 
ATOM     18  C   UNL     1      34.003 -17.092 -25.663  0.00  0.00    +0.039 C 
BRANCH  17  19
ATOM     19  O   UNL     1      33.491 -14.772 -25.475  0.00  0.00    -0.472 OA
ATOM     20  C   UNL     1      33.157 -13.691 -24.605  0.00  0.00    +0.252 C 
ENDBRANCH  17  19
ENDBRANCH   8  12
ENDBRANCH   7   8
ENDBRANCH   4   7
BRANCH   1  21
ATOM     21  C   UNL     1      34.861 -23.659 -15.662  0.00  0.00    +0.047 C 
BRANCH  21  26
ATOM     22  S   UNL     1      36.634 -23.420 -13.561  0.00  0.00    -0.048 S 
ATOM     23  O   UNL     1      35.974 -26.445 -15.865  0.00  0.00    -0.274 OA
ATOM     24  O   UNL     1      37.179 -25.101 -11.614  0.00  0.00    -0.263 OA
ATOM     25  N   UNL     1      36.605 -25.971 -13.692  0.00  0.00    -0.246 N 
ATOM     26  C   UNL     1      36.228 -24.141 -15.181  0.00  0.00    +0.137 C 
ATOM     27  C   UNL     1      36.246 -25.639 -14.982  0.00  0.00    +0.239 C 
ATOM     28  C   UNL     1      36.855 -24.974 -12.785  0.00  0.00    +0.279 C 
ATOM     29  H   UNL     1      36.682 -26.916 -13.424  0.00  0.00    +0.158 HD
ENDBRANCH  21  26
ENDBRANCH   1  21
TORSDOF 6
ENDMDL
MODEL 8
REMARK VINA RESULT:     -10.9      1.480      2.028
REMARK  Name = 3055168
REMARK  6 active torsions:
REMARK  status: ('A' for Active; 'I' for Inactive)
REMARK    1  A    between atoms: C_1  and  C_21
REMARK    2  A    between atoms: C_4  and  O_7
REMARK    3  A    between atoms: O_7  and  C_8
REMARK    4  A    between atoms: C_8  and  C_12
REMARK    5  A    between atoms: C_17  and  O_19
REMARK    6  A    between atoms: C_21  and  C_26
REMARK                            x       y       z     vdW  Elec       q    Type
REMARK                         _______ _______ _______ _____ _____    ______ ____
ROOT
ATOM      1  C   UNL     1      35.211 -18.298 -21.267  0.00  0.00    -0.021 C 
ATOM      2  C   UNL     1      36.364 -18.983 -20.882  0.00  0.00    -0.001 C 
ATOM      3  C   UNL     1      33.960 -18.893 -21.104  0.00  0.00    -0.001 C 
ATOM      4  C   UNL     1      35.014 -20.850 -20.174  0.00  0.00    +0.139 C 
ATOM      5  C   UNL     1      36.265 -20.262 -20.335  0.00  0.00    +0.037 C 
ATOM      6  C   UNL     1      33.861 -20.171 -20.556  0.00  0.00    +0.037 C 
ENDROOT
BRANCH   4   7
ATOM      7  O   UNL     1      34.918 -22.105 -19.636  0.00  0.00    -0.466 OA
BRANCH   7   8
ATOM      8  C   UNL     1      33.783 -22.361 -18.812  0.00  0.00    +0.279 C 
BRANCH   8  12
ATOM      9  N   UNL     1      33.437 -23.194 -16.491  0.00  0.00    -0.274 N 
ATOM     10  N   UNL     1      35.525 -22.703 -17.070  0.00  0.00    -0.390 NA
ATOM     11  C   UNL     1      34.198 -23.461 -15.381  0.00  0.00    +0.153 C 
ATOM     12  C   UNL     1      34.275 -22.744 -17.472  0.00  0.00    +0.205 C 
ATOM     13  C   UNL     1      35.497 -23.146 -15.769  0.00  0.00    +0.133 C 
ATOM     14  C   UNL     1      33.870 -23.935 -14.111  0.00  0.00    +0.037 C 
ATOM     15  C   UNL     1      32.006 -23.361 -16.598  0.00  0.00    +0.115 C 
ATOM     16  C   UNL     1      36.546 -23.308 -14.846  0.00  0.00    +0.033 C 
ATOM     17  C   UNL     1      34.925 -24.091 -13.205  0.00  0.00    +0.137 C 
ATOM     18  C   UNL     1      36.240 -23.783 -13.565  0.00  0.00    +0.039 C 
BRANCH  17  19
ATOM     19  O   UNL     1      34.665 -24.550 -11.949  0.00  0.00    -0.472 OA
ATOM     20  C   UNL     1      35.730 -24.487 -11.003  0.00  0.00    +0.252 C 
ENDBRANCH  17  19
ENDBRANCH   8  12
ENDBRANCH   7   8
ENDBRANCH   4   7
BRANCH   1  21
ATOM     21  C   UNL     1      35.316 -16.931 -21.852  0.00  0.00    +0.047 C 
BRANCH  21  26
ATOM     22  S   UNL     1      33.213 -15.161 -21.616  0.00  0.00    -0.048 S 
ATOM     23  O   UNL     1      34.888 -16.548 -24.804  0.00  0.00    -0.274 OA
ATOM     24  O   UNL     1      32.736 -12.924 -22.914  0.00  0.00    -0.263 OA
ATOM     25  N   UNL     1      33.820 -14.643 -24.042  0.00  0.00    -0.246 N 
ATOM     26  C   UNL     1      34.028 -16.495 -22.546  0.00  0.00    +0.137 C 
ATOM     27  C   UNL     1      34.306 -15.929 -23.920  0.00  0.00    +0.239 C 
ATOM     28  C   UNL     1      33.213 -14.048 -22.968  0.00  0.00    +0.279 C 
ATOM     29  H   UNL     1      33.909 -14.157 -24.895  0.00  0.00    +0.158 HD
ENDBRANCH  21  26
ENDBRANCH   1  21
TORSDOF 6
ENDMDL
MODEL 9
REMARK VINA RESULT:     -10.9      1.803      2.317
REMARK  Name = 3055168
REMARK  6 active torsions:
REMARK  status: ('A' for Active; 'I' for Inactive)
REMARK    1  A    between atoms: C_1  and  C_21
REMARK    2  A    between atoms: C_4  and  O_7
REMARK    3  A    between atoms: O_7  and  C_8
REMARK    4  A    between atoms: C_8  and  C_12
REMARK    5  A    between atoms: C_17  and  O_19
REMARK    6  A    between atoms: C_21  and  C_26
REMARK                            x       y       z     vdW  Elec       q    Type
REMARK                         _______ _______ _______ _____ _____    ______ ____
ROOT
ATOM      1  C   UNL     1      35.422 -19.925 -20.693  0.00  0.00    -0.021 C 
ATOM      2  C   UNL     1      34.064 -20.197 -20.523  0.00  0.00    -0.001 C 
ATOM      3  C   UNL     1      36.376 -20.701 -20.035  0.00  0.00    -0.001 C 
ATOM      4  C   UNL     1      34.617 -22.015 -19.040  0.00  0.00    +0.139 C 
ATOM      5  C   UNL     1      33.661 -21.244 -19.694  0.00  0.00    +0.037 C 
ATOM      6  C   UNL     1      35.973 -21.749 -19.207  0.00  0.00    +0.037 C 
ENDROOT
BRANCH   4   7
ATOM      7  O   UNL     1      34.221 -23.044 -18.229  0.00  0.00    -0.466 OA
BRANCH   7   8
ATOM      8  C   UNL     1      34.148 -22.765 -16.833  0.00  0.00    +0.279 C 
BRANCH   8  12
ATOM      9  N   UNL     1      36.332 -23.311 -15.766  0.00  0.00    -0.274 N 
ATOM     10  N   UNL     1      34.811 -24.931 -15.806  0.00  0.00    -0.390 NA
ATOM     11  C   UNL     1      36.924 -24.385 -15.152  0.00  0.00    +0.153 C 
ATOM     12  C   UNL     1      35.071 -23.687 -16.139  0.00  0.00    +0.205 C 
ATOM     13  C   UNL     1      35.954 -25.383 -15.190  0.00  0.00    +0.133 C 
ATOM     14  C   UNL     1      38.186 -24.563 -14.586  0.00  0.00    +0.037 C 
ATOM     15  C   UNL     1      36.935 -22.016 -15.979  0.00  0.00    +0.115 C 
ATOM     16  C   UNL     1      36.244 -26.641 -14.633  0.00  0.00    +0.033 C 
ATOM     17  C   UNL     1      38.457 -25.821 -14.036  0.00  0.00    +0.137 C 
ATOM     18  C   UNL     1      37.505 -26.842 -14.058  0.00  0.00    +0.039 C 
BRANCH  17  19
ATOM     19  O   UNL     1      39.675 -26.053 -13.469  0.00  0.00    -0.472 OA
ATOM     20  C   UNL     1      40.813 -25.975 -14.325  0.00  0.00    +0.252 C 
ENDBRANCH  17  19
ENDBRANCH   8  12
ENDBRANCH   7   8
ENDBRANCH   4   7
BRANCH   1  21
ATOM     21  C   UNL     1      35.853 -18.805 -21.578  0.00  0.00    +0.047 C 
BRANCH  21  26
ATOM     22  S   UNL     1      34.674 -16.315 -21.444  0.00  0.00    -0.048 S 
ATOM     23  O   UNL     1      34.813 -18.794 -24.399  0.00  0.00    -0.274 OA
ATOM     24  O   UNL     1      34.700 -14.340 -23.181  0.00  0.00    -0.263 OA
ATOM     25  N   UNL     1      34.747 -16.519 -23.989  0.00  0.00    -0.246 N 
ATOM     26  C   UNL     1      34.672 -18.004 -22.119  0.00  0.00    +0.137 C 
ATOM     27  C   UNL     1      34.753 -17.848 -23.621  0.00  0.00    +0.239 C 
ATOM     28  C   UNL     1      34.708 -15.552 -23.020  0.00  0.00    +0.279 C 
ATOM     29  H   UNL     1      34.771 -16.267 -24.941  0.00  0.00    +0.158 HD
ENDBRANCH  21  26
ENDBRANCH   1  21
TORSDOF 6
ENDMDL
