MODEL 1
REMARK VINA RESULT:      -8.3      0.000      0.000
REMARK  Name = 219078
REMARK  6 active torsions:
REMARK  status: ('A' for Active; 'I' for Inactive)
REMARK    1  A    between atoms: N_2  and  C_14
REMARK    2  A    between atoms: C_3  and  C_5
REMARK    3  A    between atoms: C_5  and  N_7
REMARK    4  A    between atoms: C_5  and  C_11
REMARK    5  A    between atoms: C_11  and  O_12
REMARK    6  A    between atoms: C_14  and  C_15
REMARK                            x       y       z     vdW  Elec       q    Type
REMARK                         _______ _______ _______ _____ _____    ______ ____
ROOT
ATOM      1  O   UNL     1      35.628 -18.745 -24.122  0.00  0.00    -0.273 OA
ATOM      2  N   UNL     1      35.598 -17.706 -22.048  0.00  0.00    -0.299 N 
ATOM      3  C   UNL     1      35.338 -17.788 -23.408  0.00  0.00    +0.243 C 
ATOM      4  H   UNL     1      35.326 -16.893 -21.563  0.00  0.00    +0.150 HD
ENDROOT
BRANCH   3   5
ATOM      5  C   UNL     1      34.683 -16.519 -23.945  0.00  0.00    +0.178 C 
BRANCH   5   7
ATOM      6  O   UNL     1      34.201 -13.730 -23.299  0.00  0.00    -0.275 OA
ATOM      7  N   UNL     1      33.815 -15.995 -22.923  0.00  0.00    -0.296 N 
ATOM      8  C   UNL     1      33.646 -14.638 -22.687  0.00  0.00    +0.223 C 
ATOM      9  C   UNL     1      32.663 -14.366 -21.580  0.00  0.00    +0.095 C 
ATOM     10  H   UNL     1      33.313 -16.633 -22.364  0.00  0.00    +0.150 HD
ENDBRANCH   5   7
BRANCH   5  11
ATOM     11  C   UNL     1      33.936 -16.771 -25.250  0.00  0.00    +0.171 C 
BRANCH  11  12
ATOM     12  O   UNL     1      34.129 -15.683 -26.147  0.00  0.00    -0.349 OA
ATOM     13  C   UNL     1      32.925 -14.958 -26.352  0.00  0.00    +0.174 C 
ENDBRANCH  11  12
ENDBRANCH   5  11
ENDBRANCH   3   5
BRANCH   2  14
ATOM     14  C   UNL     1      36.253 -18.762 -21.311  0.00  0.00    +0.116 C 
BRANCH  14  15
ATOM     15  C   UNL     1      35.268 -19.720 -20.706  0.00  0.00    -0.003 C 
ATOM     16  C   UNL     1      33.906 -19.469 -20.818  0.00  0.00    -0.003 C 
ATOM     17  C   UNL     1      35.729 -20.850 -20.039  0.00  0.00    -0.003 C 
ATOM     18  C   UNL     1      32.992 -20.358 -20.255  0.00  0.00    -0.000 C 
ATOM     19  C   UNL     1      34.815 -21.740 -19.476  0.00  0.00    -0.000 C 
ATOM     20  C   UNL     1      33.445 -21.494 -19.584  0.00  0.00    -0.000 C 
ENDBRANCH  14  15
ENDBRANCH   2  14
TORSDOF 6
ENDMDL
MODEL 2
REMARK VINA RESULT:      -8.3      0.058      1.140
REMARK  Name = 219078
REMARK  6 active torsions:
REMARK  status: ('A' for Active; 'I' for Inactive)
REMARK    1  A    between atoms: N_2  and  C_14
REMARK    2  A    between atoms: C_3  and  C_5
REMARK    3  A    between atoms: C_5  and  N_7
REMARK    4  A    between atoms: C_5  and  C_11
REMARK    5  A    between atoms: C_11  and  O_12
REMARK    6  A    between atoms: C_14  and  C_15
REMARK                            x       y       z     vdW  Elec       q    Type
REMARK                         _______ _______ _______ _____ _____    ______ ____
ROOT
ATOM      1  O   UNL     1      35.616 -18.774 -24.103  0.00  0.00    -0.273 OA
ATOM      2  N   UNL     1      35.624 -17.744 -22.024  0.00  0.00    -0.299 N 
ATOM      3  C   UNL     1      35.344 -17.818 -23.381  0.00  0.00    +0.243 C 
ATOM      4  H   UNL     1      35.366 -16.931 -21.532  0.00  0.00    +0.150 HD
ENDROOT
BRANCH   3   5
ATOM      5  C   UNL     1      34.693 -16.541 -23.902  0.00  0.00    +0.178 C 
BRANCH   5   7
ATOM      6  O   UNL     1      34.225 -13.747 -23.268  0.00  0.00    -0.275 OA
ATOM      7  N   UNL     1      33.851 -16.009 -22.862  0.00  0.00    -0.296 N 
ATOM      8  C   UNL     1      33.688 -14.651 -22.633  0.00  0.00    +0.223 C 
ATOM      9  C   UNL     1      32.733 -14.370 -21.504  0.00  0.00    +0.095 C 
ATOM     10  H   UNL     1      33.365 -16.643 -22.285  0.00  0.00    +0.150 HD
ENDBRANCH   5   7
BRANCH   5  11
ATOM     11  C   UNL     1      33.917 -16.782 -25.193  0.00  0.00    +0.171 C 
BRANCH  11  12
ATOM     12  O   UNL     1      34.148 -15.721 -26.113  0.00  0.00    -0.349 OA
ATOM     13  C   UNL     1      32.969 -14.960 -26.334  0.00  0.00    +0.174 C 
ENDBRANCH  11  12
ENDBRANCH   5  11
ENDBRANCH   3   5
BRANCH   2  14
ATOM     14  C   UNL     1      36.281 -18.810 -21.301  0.00  0.00    +0.116 C 
BRANCH  14  15
ATOM     15  C   UNL     1      35.297 -19.763 -20.689  0.00  0.00    -0.003 C 
ATOM     16  C   UNL     1      35.755 -20.878 -19.999  0.00  0.00    -0.003 C 
ATOM     17  C   UNL     1      33.933 -19.521 -20.818  0.00  0.00    -0.003 C 
ATOM     18  C   UNL     1      34.841 -21.764 -19.431  0.00  0.00    -0.000 C 
ATOM     19  C   UNL     1      33.018 -20.406 -20.250  0.00  0.00    -0.000 C 
ATOM     20  C   UNL     1      33.472 -21.529 -19.556  0.00  0.00    -0.000 C 
ENDBRANCH  14  15
ENDBRANCH   2  14
TORSDOF 6
ENDMDL
MODEL 3
REMARK VINA RESULT:      -8.0      1.240      2.502
REMARK  Name = 219078
REMARK  6 active torsions:
REMARK  status: ('A' for Active; 'I' for Inactive)
REMARK    1  A    between atoms: N_2  and  C_14
REMARK    2  A    between atoms: C_3  and  C_5
REMARK    3  A    between atoms: C_5  and  N_7
REMARK    4  A    between atoms: C_5  and  C_11
REMARK    5  A    between atoms: C_11  and  O_12
REMARK    6  A    between atoms: C_14  and  C_15
REMARK                            x       y       z     vdW  Elec       q    Type
REMARK                         _______ _______ _______ _____ _____    ______ ____
ROOT
ATOM      1  O   UNL     1      35.092 -17.779 -24.256  0.00  0.00    -0.273 OA
ATOM      2  N   UNL     1      35.170 -17.508 -21.953  0.00  0.00    -0.299 N 
ATOM      3  C   UNL     1      34.795 -17.153 -23.241  0.00  0.00    +0.243 C 
ATOM      4  H   UNL     1      34.881 -16.938 -21.203  0.00  0.00    +0.150 HD
ENDROOT
BRANCH   3   5
ATOM      5  C   UNL     1      33.999 -15.852 -23.269  0.00  0.00    +0.178 C 
BRANCH   5   7
ATOM      6  O   UNL     1      32.357 -13.696 -24.310  0.00  0.00    -0.275 OA
ATOM      7  N   UNL     1      33.875 -15.431 -24.640  0.00  0.00    -0.296 N 
ATOM      8  C   UNL     1      33.061 -14.383 -25.046  0.00  0.00    +0.223 C 
ATOM      9  C   UNL     1      33.137 -14.137 -26.529  0.00  0.00    +0.095 C 
ATOM     10  H   UNL     1      34.396 -15.911 -25.325  0.00  0.00    +0.150 HD
ENDBRANCH   5   7
BRANCH   5  11
ATOM     11  C   UNL     1      34.639 -14.773 -22.401  0.00  0.00    +0.171 C 
BRANCH  11  12
ATOM     12  O   UNL     1      34.201 -14.903 -21.052  0.00  0.00    -0.349 OA
ATOM     13  C   UNL     1      32.946 -14.269 -20.851  0.00  0.00    +0.174 C 
ENDBRANCH  11  12
ENDBRANCH   5  11
ENDBRANCH   3   5
BRANCH   2  14
ATOM     14  C   UNL     1      35.968 -18.677 -21.664  0.00  0.00    +0.116 C 
BRANCH  14  15
ATOM     15  C   UNL     1      35.200 -19.702 -20.880  0.00  0.00    -0.003 C 
ATOM     16  C   UNL     1      33.813 -19.638 -20.836  0.00  0.00    -0.003 C 
ATOM     17  C   UNL     1      35.886 -20.705 -20.203  0.00  0.00    -0.003 C 
ATOM     18  C   UNL     1      33.101 -20.589 -20.107  0.00  0.00    -0.000 C 
ATOM     19  C   UNL     1      35.174 -21.657 -19.474  0.00  0.00    -0.000 C 
ATOM     20  C   UNL     1      33.780 -21.599 -19.426  0.00  0.00    -0.000 C 
ENDBRANCH  14  15
ENDBRANCH   2  14
TORSDOF 6
ENDMDL
MODEL 4
REMARK VINA RESULT:      -7.9      1.428      3.259
REMARK  Name = 219078
REMARK  6 active torsions:
REMARK  status: ('A' for Active; 'I' for Inactive)
REMARK    1  A    between atoms: N_2  and  C_14
REMARK    2  A    between atoms: C_3  and  C_5
REMARK    3  A    between atoms: C_5  and  N_7
REMARK    4  A    between atoms: C_5  and  C_11
REMARK    5  A    between atoms: C_11  and  O_12
REMARK    6  A    between atoms: C_14  and  C_15
REMARK                            x       y       z     vdW  Elec       q    Type
REMARK                         _______ _______ _______ _____ _____    ______ ____
ROOT
ATOM      1  O   UNL     1      35.460 -16.026 -24.413  0.00  0.00    -0.273 OA
ATOM      2  N   UNL     1      34.425 -16.874 -22.517  0.00  0.00    -0.299 N 
ATOM      3  C   UNL     1      34.509 -16.057 -23.636  0.00  0.00    +0.243 C 
ATOM      4  H   UNL     1      33.618 -16.824 -21.956  0.00  0.00    +0.150 HD
ENDROOT
BRANCH   3   5
ATOM      5  C   UNL     1      33.290 -15.150 -23.776  0.00  0.00    +0.178 C 
BRANCH   5   7
ATOM      6  O   UNL     1      32.650 -15.599 -26.571  0.00  0.00    -0.275 OA
ATOM      7  N   UNL     1      33.521 -14.256 -24.881  0.00  0.00    -0.296 N 
ATOM      8  C   UNL     1      33.178 -14.558 -26.191  0.00  0.00    +0.223 C 
ATOM      9  C   UNL     1      33.505 -13.439 -27.143  0.00  0.00    +0.095 C 
ATOM     10  H   UNL     1      33.942 -13.384 -24.697  0.00  0.00    +0.150 HD
ENDBRANCH   5   7
BRANCH   5  11
ATOM     11  C   UNL     1      32.992 -14.393 -22.486  0.00  0.00    +0.171 C 
BRANCH  11  12
ATOM     12  O   UNL     1      32.270 -15.222 -21.583  0.00  0.00    -0.349 OA
ATOM     13  C   UNL     1      32.589 -14.922 -20.232  0.00  0.00    +0.174 C 
ENDBRANCH  11  12
ENDBRANCH   5  11
ENDBRANCH   3   5
BRANCH   2  14
ATOM     14  C   UNL     1      35.474 -17.794 -22.140  0.00  0.00    +0.116 C 
BRANCH  14  15
ATOM     15  C   UNL     1      34.949 -18.941 -21.327  0.00  0.00    -0.003 C 
ATOM     16  C   UNL     1      35.838 -19.831 -20.736  0.00  0.00    -0.003 C 
ATOM     17  C   UNL     1      33.576 -19.104 -21.173  0.00  0.00    -0.003 C 
ATOM     18  C   UNL     1      35.350 -20.897 -19.982  0.00  0.00    -0.000 C 
ATOM     19  C   UNL     1      33.088 -20.170 -20.419  0.00  0.00    -0.000 C 
ATOM     20  C   UNL     1      33.975 -21.068 -19.823  0.00  0.00    -0.000 C 
ENDBRANCH  14  15
ENDBRANCH   2  14
TORSDOF 6
ENDMDL
MODEL 5
REMARK VINA RESULT:      -7.8      5.259      8.380
REMARK  Name = 219078
REMARK  6 active torsions:
REMARK  status: ('A' for Active; 'I' for Inactive)
REMARK    1  A    between atoms: N_2  and  C_14
REMARK    2  A    between atoms: C_3  and  C_5
REMARK    3  A    between atoms: C_5  and  N_7
REMARK    4  A    between atoms: C_5  and  C_11
REMARK    5  A    between atoms: C_11  and  O_12
REMARK    6  A    between atoms: C_14  and  C_15
REMARK                            x       y       z     vdW  Elec       q    Type
REMARK                         _______ _______ _______ _____ _____    ______ ____
ROOT
ATOM      1  O   UNL     1      33.896 -24.023 -19.264  0.00  0.00    -0.273 OA
ATOM      2  N   UNL     1      33.219 -21.889 -18.655  0.00  0.00    -0.299 N 
ATOM      3  C   UNL     1      33.626 -23.191 -18.402  0.00  0.00    +0.243 C 
ATOM      4  H   UNL     1      33.024 -21.298 -17.893  0.00  0.00    +0.150 HD
ENDROOT
BRANCH   3   5
ATOM      5  C   UNL     1      33.656 -23.501 -16.908  0.00  0.00    +0.178 C 
BRANCH   5   7
ATOM      6  O   UNL     1      32.317 -24.506 -14.536  0.00  0.00    -0.275 OA
ATOM      7  N   UNL     1      32.431 -23.019 -16.325  0.00  0.00    -0.296 N 
ATOM      8  C   UNL     1      31.863 -23.565 -15.182  0.00  0.00    +0.223 C 
ATOM      9  C   UNL     1      30.600 -22.856 -14.773  0.00  0.00    +0.095 C 
ATOM     10  H   UNL     1      31.973 -22.262 -16.758  0.00  0.00    +0.150 HD
ENDBRANCH   5   7
BRANCH   5  11
ATOM     11  C   UNL     1      34.882 -22.904 -16.226  0.00  0.00    +0.171 C 
BRANCH  11  12
ATOM     12  O   UNL     1      35.875 -22.581 -17.193  0.00  0.00    -0.349 OA
ATOM     13  C   UNL     1      36.985 -21.923 -16.599  0.00  0.00    +0.174 C 
ENDBRANCH  11  12
ENDBRANCH   5  11
ENDBRANCH   3   5
BRANCH   2  14
ATOM     14  C   UNL     1      33.067 -21.364 -19.993  0.00  0.00    +0.116 C 
BRANCH  14  15
ATOM     15  C   UNL     1      34.207 -20.465 -20.376  0.00  0.00    -0.003 C 
ATOM     16  C   UNL     1      33.948 -19.261 -21.021  0.00  0.00    -0.003 C 
ATOM     17  C   UNL     1      35.512 -20.846 -20.083  0.00  0.00    -0.003 C 
ATOM     18  C   UNL     1      35.007 -18.427 -21.377  0.00  0.00    -0.000 C 
ATOM     19  C   UNL     1      36.571 -20.013 -20.439  0.00  0.00    -0.000 C 
ATOM     20  C   UNL     1      36.319 -18.802 -21.087  0.00  0.00    -0.000 C 
ENDBRANCH  14  15
ENDBRANCH   2  14
TORSDOF 6
ENDMDL
MODEL 6
REMARK VINA RESULT:      -7.8      3.943      8.248
REMARK  Name = 219078
REMARK  6 active torsions:
REMARK  status: ('A' for Active; 'I' for Inactive)
REMARK    1  A    between atoms: N_2  and  C_14
REMARK    2  A    between atoms: C_3  and  C_5
REMARK    3  A    between atoms: C_5  and  N_7
REMARK    4  A    between atoms: C_5  and  C_11
REMARK    5  A    between atoms: C_11  and  O_12
REMARK    6  A    between atoms: C_14  and  C_15
REMARK                            x       y       z     vdW  Elec       q    Type
REMARK                         _______ _______ _______ _____ _____    ______ ____
ROOT
ATOM      1  O   UNL     1      33.055 -13.700 -25.484  0.00  0.00    -0.273 OA
ATOM      2  N   UNL     1      34.189 -12.278 -24.043  0.00  0.00    -0.299 N 
ATOM      3  C   UNL     1      33.656 -13.499 -24.432  0.00  0.00    +0.243 C 
ATOM      4  H   UNL     1      34.654 -12.220 -23.177  0.00  0.00    +0.150 HD
ENDROOT
BRANCH   3   5
ATOM      5  C   UNL     1      33.860 -14.577 -23.372  0.00  0.00    +0.178 C 
BRANCH   5   7
ATOM      6  O   UNL     1      35.569 -16.822 -22.686  0.00  0.00    -0.275 OA
ATOM      7  N   UNL     1      33.938 -15.852 -24.036  0.00  0.00    -0.296 N 
ATOM      8  C   UNL     1      34.790 -16.871 -23.635  0.00  0.00    +0.223 C 
ATOM      9  C   UNL     1      34.652 -18.104 -24.486  0.00  0.00    +0.095 C 
ATOM     10  H   UNL     1      33.356 -16.009 -24.816  0.00  0.00    +0.150 HD
ENDBRANCH   5   7
BRANCH   5  11
ATOM     11  C   UNL     1      32.759 -14.554 -22.317  0.00  0.00    +0.171 C 
BRANCH  11  12
ATOM     12  O   UNL     1      32.076 -13.305 -22.344  0.00  0.00    -0.349 OA
ATOM     13  C   UNL     1      31.989 -12.733 -21.047  0.00  0.00    +0.174 C 
ENDBRANCH  11  12
ENDBRANCH   5  11
ENDBRANCH   3   5
BRANCH   2  14
ATOM     14  C   UNL     1      34.088 -11.087 -24.855  0.00  0.00    +0.116 C 
BRANCH  14  15
ATOM     15  C   UNL     1      33.925  -9.850 -24.019  0.00  0.00    -0.003 C 
ATOM     16  C   UNL     1      32.863  -9.756 -23.128  0.00  0.00    -0.003 C 
ATOM     17  C   UNL     1      34.839  -8.810 -24.146  0.00  0.00    -0.003 C 
ATOM     18  C   UNL     1      32.712  -8.606 -22.353  0.00  0.00    -0.000 C 
ATOM     19  C   UNL     1      34.689  -7.660 -23.371  0.00  0.00    -0.000 C 
ATOM     20  C   UNL     1      33.624  -7.558 -22.474  0.00  0.00    -0.000 C 
ENDBRANCH  14  15
ENDBRANCH   2  14
TORSDOF 6
ENDMDL
MODEL 7
REMARK VINA RESULT:      -7.8      5.806      9.242
REMARK  Name = 219078
REMARK  6 active torsions:
REMARK  status: ('A' for Active; 'I' for Inactive)
REMARK    1  A    between atoms: N_2  and  C_14
REMARK    2  A    between atoms: C_3  and  C_5
REMARK    3  A    between atoms: C_5  and  N_7
REMARK    4  A    between atoms: C_5  and  C_11
REMARK    5  A    between atoms: C_11  and  O_12
REMARK    6  A    between atoms: C_14  and  C_15
REMARK                            x       y       z     vdW  Elec       q    Type
REMARK                         _______ _______ _______ _____ _____    ______ ____
ROOT
ATOM      1  O   UNL     1      37.954 -21.742 -16.422  0.00  0.00    -0.273 OA
ATOM      2  N   UNL     1      36.055 -22.183 -17.681  0.00  0.00    -0.299 N 
ATOM      3  C   UNL     1      36.823 -22.211 -16.525  0.00  0.00    +0.243 C 
ATOM      4  H   UNL     1      35.158 -22.588 -17.661  0.00  0.00    +0.150 HD
ENDROOT
BRANCH   3   5
ATOM      5  C   UNL     1      36.119 -22.942 -15.386  0.00  0.00    +0.178 C 
BRANCH   5   7
ATOM      6  O   UNL     1      38.311 -24.077 -13.858  0.00  0.00    -0.275 OA
ATOM      7  N   UNL     1      36.568 -24.310 -15.386  0.00  0.00    -0.296 N 
ATOM      8  C   UNL     1      37.631 -24.763 -14.617  0.00  0.00    +0.223 C 
ATOM      9  C   UNL     1      37.873 -26.239 -14.785  0.00  0.00    +0.095 C 
ATOM     10  H   UNL     1      36.096 -24.957 -15.959  0.00  0.00    +0.150 HD
ENDBRANCH   5   7
BRANCH   5  11
ATOM     11  C   UNL     1      34.601 -22.844 -15.498  0.00  0.00    +0.171 C 
BRANCH  11  12
ATOM     12  O   UNL     1      34.115 -23.784 -16.450  0.00  0.00    -0.349 OA
ATOM     13  C   UNL     1      32.767 -23.513 -16.806  0.00  0.00    +0.174 C 
ENDBRANCH  11  12
ENDBRANCH   5  11
ENDBRANCH   3   5
BRANCH   2  14
ATOM     14  C   UNL     1      36.518 -21.586 -18.913  0.00  0.00    +0.116 C 
BRANCH  14  15
ATOM     15  C   UNL     1      35.397 -20.951 -19.684  0.00  0.00    -0.003 C 
ATOM     16  C   UNL     1      35.680 -19.976 -20.634  0.00  0.00    -0.003 C 
ATOM     17  C   UNL     1      34.086 -21.344 -19.441  0.00  0.00    -0.003 C 
ATOM     18  C   UNL     1      34.639 -19.386 -21.349  0.00  0.00    -0.000 C 
ATOM     19  C   UNL     1      33.044 -20.754 -20.156  0.00  0.00    -0.000 C 
ATOM     20  C   UNL     1      33.321 -19.774 -21.111  0.00  0.00    -0.000 C 
ENDBRANCH  14  15
ENDBRANCH   2  14
TORSDOF 6
ENDMDL
MODEL 8
REMARK VINA RESULT:      -7.7      2.177      6.061
REMARK  Name = 219078
REMARK  6 active torsions:
REMARK  status: ('A' for Active; 'I' for Inactive)
REMARK    1  A    between atoms: N_2  and  C_14
REMARK    2  A    between atoms: C_3  and  C_5
REMARK    3  A    between atoms: C_5  and  N_7
REMARK    4  A    between atoms: C_5  and  C_11
REMARK    5  A    between atoms: C_11  and  O_12
REMARK    6  A    between atoms: C_14  and  C_15
REMARK                            x       y       z     vdW  Elec       q    Type
REMARK                         _______ _______ _______ _____ _____    ______ ____
ROOT
ATOM      1  O   UNL     1      35.766 -17.759 -20.550  0.00  0.00    -0.273 OA
ATOM      2  N   UNL     1      33.723 -16.882 -21.216  0.00  0.00    -0.299 N 
ATOM      3  C   UNL     1      34.683 -17.880 -21.118  0.00  0.00    +0.243 C 
ATOM      4  H   UNL     1      32.885 -17.079 -21.694  0.00  0.00    +0.150 HD
ENDROOT
BRANCH   3   5
ATOM      5  C   UNL     1      34.263 -19.153 -21.846  0.00  0.00    +0.178 C 
BRANCH   5   7
ATOM      6  O   UNL     1      32.495 -20.335 -19.870  0.00  0.00    -0.275 OA
ATOM      7  N   UNL     1      34.538 -20.274 -20.985  0.00  0.00    -0.296 N 
ATOM      8  C   UNL     1      33.625 -20.772 -20.067  0.00  0.00    +0.223 C 
ATOM      9  C   UNL     1      34.158 -21.963 -19.316  0.00  0.00    +0.095 C 
ATOM     10  H   UNL     1      35.418 -20.710 -21.054  0.00  0.00    +0.150 HD
ENDBRANCH   5   7
BRANCH   5  11
ATOM     11  C   UNL     1      34.956 -19.292 -23.198  0.00  0.00    +0.171 C 
BRANCH  11  12
ATOM     12  O   UNL     1      35.196 -18.008 -23.763  0.00  0.00    -0.349 OA
ATOM     13  C   UNL     1      34.452 -17.819 -24.958  0.00  0.00    +0.174 C 
ENDBRANCH  11  12
ENDBRANCH   5  11
ENDBRANCH   3   5
BRANCH   2  14
ATOM     14  C   UNL     1      33.902 -15.566 -20.647  0.00  0.00    +0.116 C 
BRANCH  14  15
ATOM     15  C   UNL     1      33.538 -14.480 -21.617  0.00  0.00    -0.003 C 
ATOM     16  C   UNL     1      34.238 -14.360 -22.811  0.00  0.00    -0.003 C 
ATOM     17  C   UNL     1      32.503 -13.603 -21.311  0.00  0.00    -0.003 C 
ATOM     18  C   UNL     1      33.901 -13.351 -23.712  0.00  0.00    -0.000 C 
ATOM     19  C   UNL     1      32.164 -12.594 -22.211  0.00  0.00    -0.000 C 
ATOM     20  C   UNL     1      32.864 -12.467 -23.413  0.00  0.00    -0.000 C 
ENDBRANCH  14  15
ENDBRANCH   2  14
TORSDOF 6
ENDMDL
MODEL 9
REMARK VINA RESULT:      -7.7      6.567     10.031
REMARK  Name = 219078
REMARK  6 active torsions:
REMARK  status: ('A' for Active; 'I' for Inactive)
REMARK    1  A    between atoms: N_2  and  C_14
REMARK    2  A    between atoms: C_3  and  C_5
REMARK    3  A    between atoms: C_5  and  N_7
REMARK    4  A    between atoms: C_5  and  C_11
REMARK    5  A    between atoms: C_11  and  O_12
REMARK    6  A    between atoms: C_14  and  C_15
REMARK                            x       y       z     vdW  Elec       q    Type
REMARK                         _______ _______ _______ _____ _____    ______ ____
ROOT
ATOM      1  O   UNL     1      37.676 -22.277 -15.671  0.00  0.00    -0.273 OA
ATOM      2  N   UNL     1      35.840 -22.479 -17.076  0.00  0.00    -0.299 N 
ATOM      3  C   UNL     1      36.507 -22.601 -15.865  0.00  0.00    +0.243 C 
ATOM      4  H   UNL     1      34.901 -22.769 -17.129  0.00  0.00    +0.150 HD
ENDROOT
BRANCH   3   5
ATOM      5  C   UNL     1      35.632 -23.238 -14.790  0.00  0.00    +0.178 C 
BRANCH   5   7
ATOM      6  O   UNL     1      34.640 -23.929 -12.151  0.00  0.00    -0.275 OA
ATOM      7  N   UNL     1      36.364 -23.227 -13.550  0.00  0.00    -0.296 N 
ATOM      8  C   UNL     1      35.803 -23.576 -12.330  0.00  0.00    +0.223 C 
ATOM      9  C   UNL     1      36.794 -23.504 -11.200  0.00  0.00    +0.095 C 
ATOM     10  H   UNL     1      37.312 -22.960 -13.570  0.00  0.00    +0.150 HD
ENDBRANCH   5   7
BRANCH   5  11
ATOM     11  C   UNL     1      35.189 -24.646 -15.175  0.00  0.00    +0.171 C 
BRANCH  11  12
ATOM     12  O   UNL     1      36.269 -25.356 -15.772  0.00  0.00    -0.349 OA
ATOM     13  C   UNL     1      36.612 -26.508 -15.017  0.00  0.00    +0.174 C 
ENDBRANCH  11  12
ENDBRANCH   5  11
ENDBRANCH   3   5
BRANCH   2  14
ATOM     14  C   UNL     1      36.467 -21.945 -18.264  0.00  0.00    +0.116 C 
BRANCH  14  15
ATOM     15  C   UNL     1      35.469 -21.308 -19.187  0.00  0.00    -0.003 C 
ATOM     16  C   UNL     1      34.121 -21.622 -19.067  0.00  0.00    -0.003 C 
ATOM     17  C   UNL     1      35.905 -20.410 -20.156  0.00  0.00    -0.003 C 
ATOM     18  C   UNL     1      33.195 -21.032 -19.926  0.00  0.00    -0.000 C 
ATOM     19  C   UNL     1      34.979 -19.819 -21.015  0.00  0.00    -0.000 C 
ATOM     20  C   UNL     1      33.623 -20.130 -20.900  0.00  0.00    -0.000 C 
ENDBRANCH  14  15
ENDBRANCH   2  14
TORSDOF 6
ENDMDL
