MODEL 1
REMARK VINA RESULT:      -5.7      0.000      0.000
REMARK  Name = 379
REMARK  7 active torsions:
REMARK  status: ('A' for Active; 'I' for Inactive)
REMARK    1  A    between atoms: C_1  and  C_2
REMARK    2  A    between atoms: C_1  and  C_7
REMARK    3  A    between atoms: C_2  and  C_3
REMARK    4  A    between atoms: C_3  and  C_4
REMARK    5  A    between atoms: C_4  and  C_5
REMARK    6  A    between atoms: C_7  and  C_9
REMARK    7  A    between atoms: C_9  and  O_10
REMARK                            x       y       z     vdW  Elec       q    Type
REMARK                         _______ _______ _______ _____ _____    ______ ____
ROOT
ATOM      1  C   UNL     1      35.388 -18.584 -22.856  0.00  0.00    +0.012 C 
ENDROOT
BRANCH   1   2
ATOM      2  C   UNL     1      34.346 -18.673 -21.737  0.00  0.00    +0.001 C 
BRANCH   2   3
ATOM      3  C   UNL     1      34.518 -19.836 -20.756  0.00  0.00    +0.000 C 
BRANCH   3   4
ATOM      4  C   UNL     1      33.193 -20.466 -20.320  0.00  0.00    +0.000 C 
BRANCH   4   5
ATOM      5  C   UNL     1      33.424 -21.606 -19.326  0.00  0.00    +0.000 C 
ATOM      6  C   UNL     1      34.876 -22.056 -19.324  0.00  0.00    +0.000 C 
ENDBRANCH   4   5
ENDBRANCH   3   4
ENDBRANCH   2   3
ENDBRANCH   1   2
BRANCH   1   7
ATOM      7  C   UNL     1      34.776 -18.404 -24.244  0.00  0.00    +0.109 C 
BRANCH   7   9
ATOM      8  O   UNL     1      34.587 -16.584 -25.851  0.00  0.00    -0.250 OA
ATOM      9  C   UNL     1      34.960 -16.995 -24.761  0.00  0.00    +0.314 C 
BRANCH   9  10
ATOM     10  O   UNL     1      35.600 -16.213 -23.853  0.00  0.00    -0.480 OA
ATOM     11  H   UNL     1      35.164 -15.960 -23.063  0.00  0.00    +0.295 HD
ENDBRANCH   9  10
ENDBRANCH   7   9
ENDBRANCH   1   7
TORSDOF 7
ENDMDL
MODEL 2
REMARK VINA RESULT:      -5.6      4.140      6.062
REMARK  Name = 379
REMARK  7 active torsions:
REMARK  status: ('A' for Active; 'I' for Inactive)
REMARK    1  A    between atoms: C_1  and  C_2
REMARK    2  A    between atoms: C_1  and  C_7
REMARK    3  A    between atoms: C_2  and  C_3
REMARK    4  A    between atoms: C_3  and  C_4
REMARK    5  A    between atoms: C_4  and  C_5
REMARK    6  A    between atoms: C_7  and  C_9
REMARK    7  A    between atoms: C_9  and  O_10
REMARK                            x       y       z     vdW  Elec       q    Type
REMARK                         _______ _______ _______ _____ _____    ______ ____
ROOT
ATOM      1  C   UNL     1      33.070 -20.277 -20.367  0.00  0.00    +0.012 C 
ENDROOT
BRANCH   1   2
ATOM      2  C   UNL     1      33.672 -19.099 -21.139  0.00  0.00    +0.001 C 
BRANCH   2   3
ATOM      3  C   UNL     1      35.200 -19.084 -21.249  0.00  0.00    +0.000 C 
BRANCH   3   4
ATOM      4  C   UNL     1      35.709 -18.557 -22.592  0.00  0.00    +0.000 C 
BRANCH   4   5
ATOM      5  C   UNL     1      34.908 -19.144 -23.755  0.00  0.00    +0.000 C 
ATOM      6  C   UNL     1      34.563 -18.081 -24.786  0.00  0.00    +0.000 C 
ENDBRANCH   4   5
ENDBRANCH   3   4
ENDBRANCH   2   3
ENDBRANCH   1   2
BRANCH   1   7
ATOM      7  C   UNL     1      34.120 -21.194 -19.740  0.00  0.00    +0.109 C 
BRANCH   7   9
ATOM      8  O   UNL     1      32.540 -22.382 -18.319  0.00  0.00    -0.250 OA
ATOM      9  C   UNL     1      33.493 -22.403 -19.085  0.00  0.00    +0.314 C 
BRANCH   9  10
ATOM     10  O   UNL     1      34.119 -23.550 -19.458  0.00  0.00    -0.480 OA
ATOM     11  H   UNL     1      34.832 -23.881 -18.949  0.00  0.00    +0.295 HD
ENDBRANCH   9  10
ENDBRANCH   7   9
ENDBRANCH   1   7
TORSDOF 7
ENDMDL
MODEL 3
REMARK VINA RESULT:      -5.6      1.484      2.352
REMARK  Name = 379
REMARK  7 active torsions:
REMARK  status: ('A' for Active; 'I' for Inactive)
REMARK    1  A    between atoms: C_1  and  C_2
REMARK    2  A    between atoms: C_1  and  C_7
REMARK    3  A    between atoms: C_2  and  C_3
REMARK    4  A    between atoms: C_3  and  C_4
REMARK    5  A    between atoms: C_4  and  C_5
REMARK    6  A    between atoms: C_7  and  C_9
REMARK    7  A    between atoms: C_9  and  O_10
REMARK                            x       y       z     vdW  Elec       q    Type
REMARK                         _______ _______ _______ _____ _____    ______ ____
ROOT
ATOM      1  C   UNL     1      34.293 -18.353 -25.001  0.00  0.00    +0.012 C 
ENDROOT
BRANCH   1   2
ATOM      2  C   UNL     1      34.909 -19.187 -23.874  0.00  0.00    +0.001 C 
BRANCH   2   3
ATOM      3  C   UNL     1      35.450 -18.396 -22.679  0.00  0.00    +0.000 C 
BRANCH   3   4
ATOM      4  C   UNL     1      34.495 -18.369 -21.484  0.00  0.00    +0.000 C 
BRANCH   4   5
ATOM      5  C   UNL     1      34.354 -19.757 -20.856  0.00  0.00    +0.000 C 
ATOM      6  C   UNL     1      32.903 -20.081 -20.540  0.00  0.00    +0.000 C 
ENDBRANCH   4   5
ENDBRANCH   3   4
ENDBRANCH   2   3
ENDBRANCH   1   2
BRANCH   1   7
ATOM      7  C   UNL     1      34.896 -16.955 -25.123  0.00  0.00    +0.109 C 
BRANCH   7   9
ATOM      8  O   UNL     1      33.419 -15.640 -26.544  0.00  0.00    -0.250 OA
ATOM      9  C   UNL     1      33.844 -15.913 -25.431  0.00  0.00    +0.314 C 
BRANCH   9  10
ATOM     10  O   UNL     1      33.408 -15.300 -24.299  0.00  0.00    -0.480 OA
ATOM     11  H   UNL     1      32.745 -14.641 -24.350  0.00  0.00    +0.295 HD
ENDBRANCH   9  10
ENDBRANCH   7   9
ENDBRANCH   1   7
TORSDOF 7
ENDMDL
MODEL 4
REMARK VINA RESULT:      -5.4      4.320      6.034
REMARK  Name = 379
REMARK  7 active torsions:
REMARK  status: ('A' for Active; 'I' for Inactive)
REMARK    1  A    between atoms: C_1  and  C_2
REMARK    2  A    between atoms: C_1  and  C_7
REMARK    3  A    between atoms: C_2  and  C_3
REMARK    4  A    between atoms: C_3  and  C_4
REMARK    5  A    between atoms: C_4  and  C_5
REMARK    6  A    between atoms: C_7  and  C_9
REMARK    7  A    between atoms: C_9  and  O_10
REMARK                            x       y       z     vdW  Elec       q    Type
REMARK                         _______ _______ _______ _____ _____    ______ ____
ROOT
ATOM      1  C   UNL     1      33.092 -20.724 -19.877  0.00  0.00    +0.012 C 
ENDROOT
BRANCH   1   2
ATOM      2  C   UNL     1      33.020 -19.623 -20.939  0.00  0.00    +0.001 C 
BRANCH   2   3
ATOM      3  C   UNL     1      34.237 -19.504 -21.861  0.00  0.00    +0.000 C 
BRANCH   3   4
ATOM      4  C   UNL     1      34.580 -18.061 -22.236  0.00  0.00    +0.000 C 
BRANCH   4   5
ATOM      5  C   UNL     1      35.170 -17.306 -21.043  0.00  0.00    +0.000 C 
ATOM      6  C   UNL     1      34.662 -15.874 -20.985  0.00  0.00    +0.000 C 
ENDBRANCH   4   5
ENDBRANCH   3   4
ENDBRANCH   2   3
ENDBRANCH   1   2
BRANCH   1   7
ATOM      7  C   UNL     1      34.496 -21.297 -19.690  0.00  0.00    +0.109 C 
BRANCH   7   9
ATOM      8  O   UNL     1      33.921 -23.647 -19.411  0.00  0.00    -0.250 OA
ATOM      9  C   UNL     1      34.468 -22.637 -18.990  0.00  0.00    +0.314 C 
BRANCH   9  10
ATOM     10  O   UNL     1      35.143 -22.596 -17.811  0.00  0.00    -0.480 OA
ATOM     11  H   UNL     1      35.004 -23.262 -17.168  0.00  0.00    +0.295 HD
ENDBRANCH   9  10
ENDBRANCH   7   9
ENDBRANCH   1   7
TORSDOF 7
ENDMDL
MODEL 5
REMARK VINA RESULT:      -5.3      6.615      8.909
REMARK  Name = 379
REMARK  7 active torsions:
REMARK  status: ('A' for Active; 'I' for Inactive)
REMARK    1  A    between atoms: C_1  and  C_2
REMARK    2  A    between atoms: C_1  and  C_7
REMARK    3  A    between atoms: C_2  and  C_3
REMARK    4  A    between atoms: C_3  and  C_4
REMARK    5  A    between atoms: C_4  and  C_5
REMARK    6  A    between atoms: C_7  and  C_9
REMARK    7  A    between atoms: C_9  and  O_10
REMARK                            x       y       z     vdW  Elec       q    Type
REMARK                         _______ _______ _______ _____ _____    ______ ____
ROOT
ATOM      1  C   UNL     1      30.209 -23.046 -15.298  0.00  0.00    +0.012 C 
ENDROOT
BRANCH   1   2
ATOM      2  C   UNL     1      31.628 -23.372 -15.771  0.00  0.00    +0.001 C 
BRANCH   2   3
ATOM      3  C   UNL     1      32.031 -22.784 -17.127  0.00  0.00    +0.000 C 
BRANCH   3   4
ATOM      4  C   UNL     1      33.496 -23.037 -17.489  0.00  0.00    +0.000 C 
BRANCH   4   5
ATOM      5  C   UNL     1      33.816 -22.518 -18.892  0.00  0.00    +0.000 C 
ATOM      6  C   UNL     1      35.233 -21.972 -18.974  0.00  0.00    +0.000 C 
ENDBRANCH   4   5
ENDBRANCH   3   4
ENDBRANCH   2   3
ENDBRANCH   1   2
BRANCH   1   7
ATOM      7  C   UNL     1      29.152 -24.007 -15.840  0.00  0.00    +0.109 C 
BRANCH   7   9
ATOM      8  O   UNL     1      27.592 -23.979 -17.709  0.00  0.00    -0.250 OA
ATOM      9  C   UNL     1      28.332 -23.378 -16.944  0.00  0.00    +0.314 C 
BRANCH   9  10
ATOM     10  O   UNL     1      28.512 -22.032 -16.990  0.00  0.00    -0.480 OA
ATOM     11  H   UNL     1      28.010 -21.512 -17.586  0.00  0.00    +0.295 HD
ENDBRANCH   9  10
ENDBRANCH   7   9
ENDBRANCH   1   7
TORSDOF 7
ENDMDL
MODEL 6
REMARK VINA RESULT:      -5.2      5.972      7.987
REMARK  Name = 379
REMARK  7 active torsions:
REMARK  status: ('A' for Active; 'I' for Inactive)
REMARK    1  A    between atoms: C_1  and  C_2
REMARK    2  A    between atoms: C_1  and  C_7
REMARK    3  A    between atoms: C_2  and  C_3
REMARK    4  A    between atoms: C_3  and  C_4
REMARK    5  A    between atoms: C_4  and  C_5
REMARK    6  A    between atoms: C_7  and  C_9
REMARK    7  A    between atoms: C_9  and  O_10
REMARK                            x       y       z     vdW  Elec       q    Type
REMARK                         _______ _______ _______ _____ _____    ______ ____
ROOT
ATOM      1  C   UNL     1      36.130 -22.244 -17.226  0.00  0.00    +0.012 C 
ENDROOT
BRANCH   1   2
ATOM      2  C   UNL     1      36.501 -21.516 -18.521  0.00  0.00    +0.001 C 
BRANCH   2   3
ATOM      3  C   UNL     1      35.386 -21.401 -19.565  0.00  0.00    +0.000 C 
BRANCH   3   4
ATOM      4  C   UNL     1      35.586 -20.244 -20.546  0.00  0.00    +0.000 C 
BRANCH   4   5
ATOM      5  C   UNL     1      34.247 -19.625 -20.950  0.00  0.00    +0.000 C 
ATOM      6  C   UNL     1      33.078 -20.367 -20.321  0.00  0.00    +0.000 C 
ENDBRANCH   4   5
ENDBRANCH   3   4
ENDBRANCH   2   3
ENDBRANCH   1   2
BRANCH   1   7
ATOM      7  C   UNL     1      37.264 -22.282 -16.203  0.00  0.00    +0.109 C 
BRANCH   7   9
ATOM      8  O   UNL     1      36.469 -24.482 -15.529  0.00  0.00    -0.250 OA
ATOM      9  C   UNL     1      37.206 -23.524 -15.343  0.00  0.00    +0.314 C 
BRANCH   9  10
ATOM     10  O   UNL     1      38.092 -23.458 -14.316  0.00  0.00    -0.480 OA
ATOM     11  H   UNL     1      38.391 -24.244 -13.903  0.00  0.00    +0.295 HD
ENDBRANCH   9  10
ENDBRANCH   7   9
ENDBRANCH   1   7
TORSDOF 7
ENDMDL
MODEL 7
REMARK VINA RESULT:      -5.2      1.930      2.661
REMARK  Name = 379
REMARK  7 active torsions:
REMARK  status: ('A' for Active; 'I' for Inactive)
REMARK    1  A    between atoms: C_1  and  C_2
REMARK    2  A    between atoms: C_1  and  C_7
REMARK    3  A    between atoms: C_2  and  C_3
REMARK    4  A    between atoms: C_3  and  C_4
REMARK    5  A    between atoms: C_4  and  C_5
REMARK    6  A    between atoms: C_7  and  C_9
REMARK    7  A    between atoms: C_9  and  O_10
REMARK                            x       y       z     vdW  Elec       q    Type
REMARK                         _______ _______ _______ _____ _____    ______ ____
ROOT
ATOM      1  C   UNL     1      34.487 -19.366 -21.907  0.00  0.00    +0.012 C 
ENDROOT
BRANCH   1   2
ATOM      2  C   UNL     1      33.520 -19.500 -20.727  0.00  0.00    +0.001 C 
BRANCH   2   3
ATOM      3  C   UNL     1      33.062 -20.924 -20.398  0.00  0.00    +0.000 C 
BRANCH   3   4
ATOM      4  C   UNL     1      33.826 -21.556 -19.232  0.00  0.00    +0.000 C 
BRANCH   4   5
ATOM      5  C   UNL     1      35.231 -21.983 -19.658  0.00  0.00    +0.000 C 
ATOM      6  C   UNL     1      36.274 -21.566 -18.632  0.00  0.00    +0.000 C 
ENDBRANCH   4   5
ENDBRANCH   3   4
ENDBRANCH   2   3
ENDBRANCH   1   2
BRANCH   1   7
ATOM      7  C   UNL     1      35.590 -18.335 -21.675  0.00  0.00    +0.109 C 
BRANCH   7   9
ATOM      8  O   UNL     1      35.139 -16.382 -20.292  0.00  0.00    -0.250 OA
ATOM      9  C   UNL     1      35.026 -16.968 -21.359  0.00  0.00    +0.314 C 
BRANCH   9  10
ATOM     10  O   UNL     1      34.366 -16.446 -22.426  0.00  0.00    -0.480 OA
ATOM     11  H   UNL     1      34.846 -16.129 -23.165  0.00  0.00    +0.295 HD
ENDBRANCH   9  10
ENDBRANCH   7   9
ENDBRANCH   1   7
TORSDOF 7
ENDMDL
MODEL 8
REMARK VINA RESULT:      -5.2      3.867      5.662
REMARK  Name = 379
REMARK  7 active torsions:
REMARK  status: ('A' for Active; 'I' for Inactive)
REMARK    1  A    between atoms: C_1  and  C_2
REMARK    2  A    between atoms: C_1  and  C_7
REMARK    3  A    between atoms: C_2  and  C_3
REMARK    4  A    between atoms: C_3  and  C_4
REMARK    5  A    between atoms: C_4  and  C_5
REMARK    6  A    between atoms: C_7  and  C_9
REMARK    7  A    between atoms: C_9  and  O_10
REMARK                            x       y       z     vdW  Elec       q    Type
REMARK                         _______ _______ _______ _____ _____    ______ ____
ROOT
ATOM      1  C   UNL     1      34.465 -19.132 -21.493  0.00  0.00    +0.012 C 
ENDROOT
BRANCH   1   2
ATOM      2  C   UNL     1      35.294 -17.890 -21.153  0.00  0.00    +0.001 C 
BRANCH   2   3
ATOM      3  C   UNL     1      34.693 -16.548 -21.582  0.00  0.00    +0.000 C 
BRANCH   3   4
ATOM      4  C   UNL     1      34.531 -15.556 -20.428  0.00  0.00    +0.000 C 
BRANCH   4   5
ATOM      5  C   UNL     1      33.276 -14.700 -20.607  0.00  0.00    +0.000 C 
ATOM      6  C   UNL     1      32.698 -14.846 -22.005  0.00  0.00    +0.000 C 
ENDBRANCH   4   5
ENDBRANCH   3   4
ENDBRANCH   2   3
ENDBRANCH   1   2
BRANCH   1   7
ATOM      7  C   UNL     1      34.628 -20.267 -20.483  0.00  0.00    +0.109 C 
BRANCH   7   9
ATOM      8  O   UNL     1      33.118 -21.997 -19.674  0.00  0.00    -0.250 OA
ATOM      9  C   UNL     1      33.296 -20.858 -20.081  0.00  0.00    +0.314 C 
BRANCH   9  10
ATOM     10  O   UNL     1      32.290 -19.955 -20.222  0.00  0.00    -0.480 OA
ATOM     11  H   UNL     1      31.407 -20.250 -20.323  0.00  0.00    +0.295 HD
ENDBRANCH   9  10
ENDBRANCH   7   9
ENDBRANCH   1   7
TORSDOF 7
ENDMDL
MODEL 9
REMARK VINA RESULT:      -5.1      7.931      9.949
REMARK  Name = 379
REMARK  7 active torsions:
REMARK  status: ('A' for Active; 'I' for Inactive)
REMARK    1  A    between atoms: C_1  and  C_2
REMARK    2  A    between atoms: C_1  and  C_7
REMARK    3  A    between atoms: C_2  and  C_3
REMARK    4  A    between atoms: C_3  and  C_4
REMARK    5  A    between atoms: C_4  and  C_5
REMARK    6  A    between atoms: C_7  and  C_9
REMARK    7  A    between atoms: C_9  and  O_10
REMARK                            x       y       z     vdW  Elec       q    Type
REMARK                         _______ _______ _______ _____ _____    ______ ____
ROOT
ATOM      1  C   UNL     1      29.052 -25.062 -15.026  0.00  0.00    +0.012 C 
ENDROOT
BRANCH   1   2
ATOM      2  C   UNL     1      30.511 -24.989 -14.567  0.00  0.00    +0.001 C 
BRANCH   2   3
ATOM      3  C   UNL     1      30.903 -23.731 -13.786  0.00  0.00    +0.000 C 
BRANCH   3   4
ATOM      4  C   UNL     1      31.795 -22.775 -14.579  0.00  0.00    +0.000 C 
BRANCH   4   5
ATOM      5  C   UNL     1      32.842 -23.540 -15.390  0.00  0.00    +0.000 C 
ATOM      6  C   UNL     1      32.733 -23.226 -16.874  0.00  0.00    +0.000 C 
ENDBRANCH   4   5
ENDBRANCH   3   4
ENDBRANCH   2   3
ENDBRANCH   1   2
BRANCH   1   7
ATOM      7  C   UNL     1      28.432 -23.693 -15.304  0.00  0.00    +0.109 C 
BRANCH   7   9
ATOM      8  O   UNL     1      29.324 -22.426 -17.182  0.00  0.00    -0.250 OA
ATOM      9  C   UNL     1      28.577 -23.295 -16.755  0.00  0.00    +0.314 C 
BRANCH   9  10
ATOM     10  O   UNL     1      27.764 -24.033 -17.556  0.00  0.00    -0.480 OA
ATOM     11  H   UNL     1      27.131 -23.609 -18.100  0.00  0.00    +0.295 HD
ENDBRANCH   9  10
ENDBRANCH   7   9
ENDBRANCH   1   7
TORSDOF 7
ENDMDL
