MODEL 1
REMARK VINA RESULT:      -7.0      0.000      0.000
REMARK  Name = 1433
REMARK  5 active torsions:
REMARK  status: ('A' for Active; 'I' for Inactive)
REMARK    1  A    between atoms: C_1  and  C_7
REMARK    2  A    between atoms: C_2  and  C_14
REMARK    3  A    between atoms: C_7  and  N_8
REMARK    4  A    between atoms: N_8  and  C_10
REMARK    5  A    between atoms: C_14  and  N_15
REMARK                            x       y       z     vdW  Elec       q    Type
REMARK                         _______ _______ _______ _____ _____    ______ ____
ROOT
ATOM      1  C   UNL     1      34.510 -21.246 -19.731  0.00  0.00    -0.001 C 
ATOM      2  C   UNL     1      35.237 -19.364 -21.042  0.00  0.00    -0.045 C 
ATOM      3  C   UNL     1      35.541 -20.486 -20.271  0.00  0.00    -0.009 C 
ATOM      4  C   UNL     1      33.183 -20.902 -19.947  0.00  0.00    -0.003 C 
ATOM      5  C   UNL     1      33.905 -19.010 -21.265  0.00  0.00    -0.006 C 
ATOM      6  C   UNL     1      32.879 -19.779 -20.718  0.00  0.00    -0.001 C 
ENDROOT
BRANCH   1   7
ATOM      7  C   UNL     1      34.838 -22.456 -18.901  0.00  0.00    +0.140 C 
BRANCH   7   8
ATOM      8  N   UNL     1      33.636 -23.163 -18.477  0.00  0.00    -0.221 NA
BRANCH   8  10
ATOM      9  N   UNL     1      34.367 -23.474 -16.205  0.00  0.00    -0.389 N 
ATOM     10  C   UNL     1      33.442 -23.271 -17.203  0.00  0.00    +0.095 C 
ATOM     11  C   UNL     1      32.006 -23.176 -16.738  0.00  0.00    +0.068 C 
ATOM     12  H   UNL     1      35.323 -23.548 -16.427  0.00  0.00    +0.157 HD
ATOM     13  H   UNL     1      34.072 -23.547 -15.269  0.00  0.00    +0.157 HD
ENDBRANCH   8  10
ENDBRANCH   7   8
ENDBRANCH   1   7
BRANCH   2  14
ATOM     14  C   UNL     1      36.334 -18.542 -21.628  0.00  0.00    -0.059 C 
BRANCH  14  15
ATOM     15  N   UNL     1      36.060 -18.150 -23.011  0.00  0.00    +0.383 N 
ATOM     16  H   UNL     1      36.766 -17.482 -23.322  0.00  0.00    -0.089 HD
ATOM     17  H   UNL     1      35.137 -17.719 -23.065  0.00  0.00    -0.089 HD
ATOM     18  H   UNL     1      36.085 -18.976 -23.609  0.00  0.00    -0.089 HD
ENDBRANCH  14  15
ENDBRANCH   2  14
TORSDOF 5
ENDMDL
MODEL 2
REMARK VINA RESULT:      -7.0      2.047      2.384
REMARK  Name = 1433
REMARK  5 active torsions:
REMARK  status: ('A' for Active; 'I' for Inactive)
REMARK    1  A    between atoms: C_1  and  C_7
REMARK    2  A    between atoms: C_2  and  C_14
REMARK    3  A    between atoms: C_7  and  N_8
REMARK    4  A    between atoms: N_8  and  C_10
REMARK    5  A    between atoms: C_14  and  N_15
REMARK                            x       y       z     vdW  Elec       q    Type
REMARK                         _______ _______ _______ _____ _____    ______ ____
ROOT
ATOM      1  C   UNL     1      35.285 -20.875 -19.960  0.00  0.00    -0.001 C 
ATOM      2  C   UNL     1      34.601 -19.023 -21.336  0.00  0.00    -0.045 C 
ATOM      3  C   UNL     1      35.616 -19.801 -20.778  0.00  0.00    -0.009 C 
ATOM      4  C   UNL     1      33.959 -21.182 -19.691  0.00  0.00    -0.003 C 
ATOM      5  C   UNL     1      33.265 -19.324 -21.071  0.00  0.00    -0.006 C 
ATOM      6  C   UNL     1      32.944 -20.404 -20.249  0.00  0.00    -0.001 C 
ENDROOT
BRANCH   1   7
ATOM      7  C   UNL     1      36.379 -21.713 -19.360  0.00  0.00    +0.140 C 
BRANCH   7   8
ATOM      8  N   UNL     1      36.028 -22.188 -18.027  0.00  0.00    -0.221 NA
BRANCH   8  10
ATOM      9  N   UNL     1      37.489 -20.638 -16.907  0.00  0.00    -0.389 N 
ATOM     10  C   UNL     1      36.795 -21.817 -17.055  0.00  0.00    +0.095 C 
ATOM     11  C   UNL     1      36.972 -22.811 -15.929  0.00  0.00    +0.068 C 
ATOM     12  H   UNL     1      37.426 -19.940 -17.598  0.00  0.00    +0.157 HD
ATOM     13  H   UNL     1      38.048 -20.493 -16.111  0.00  0.00    +0.157 HD
ENDBRANCH   8  10
ENDBRANCH   7   8
ENDBRANCH   1   7
BRANCH   2  14
ATOM     14  C   UNL     1      34.944 -17.869 -22.216  0.00  0.00    -0.059 C 
BRANCH  14  15
ATOM     15  N   UNL     1      36.132 -18.125 -23.033  0.00  0.00    +0.383 N 
ATOM     16  H   UNL     1      35.874 -18.695 -23.838  0.00  0.00    -0.089 HD
ATOM     17  H   UNL     1      36.828 -18.618 -22.475  0.00  0.00    -0.089 HD
ATOM     18  H   UNL     1      36.519 -17.238 -23.355  0.00  0.00    -0.089 HD
ENDBRANCH  14  15
ENDBRANCH   2  14
TORSDOF 5
ENDMDL
MODEL 3
REMARK VINA RESULT:      -6.9      1.573      6.069
REMARK  Name = 1433
REMARK  5 active torsions:
REMARK  status: ('A' for Active; 'I' for Inactive)
REMARK    1  A    between atoms: C_1  and  C_7
REMARK    2  A    between atoms: C_2  and  C_14
REMARK    3  A    between atoms: C_7  and  N_8
REMARK    4  A    between atoms: N_8  and  C_10
REMARK    5  A    between atoms: C_14  and  N_15
REMARK                            x       y       z     vdW  Elec       q    Type
REMARK                         _______ _______ _______ _____ _____    ______ ____
ROOT
ATOM      1  C   UNL     1      34.793 -19.834 -20.780  0.00  0.00    -0.001 C 
ATOM      2  C   UNL     1      34.615 -21.709 -19.282  0.00  0.00    -0.045 C 
ATOM      3  C   UNL     1      34.008 -20.767 -20.113  0.00  0.00    -0.009 C 
ATOM      4  C   UNL     1      36.173 -19.827 -20.630  0.00  0.00    -0.003 C 
ATOM      5  C   UNL     1      36.002 -21.709 -19.124  0.00  0.00    -0.006 C 
ATOM      6  C   UNL     1      36.780 -20.769 -19.798  0.00  0.00    -0.001 C 
ENDROOT
BRANCH   1   7
ATOM      7  C   UNL     1      34.138 -18.821 -21.677  0.00  0.00    +0.140 C 
BRANCH   7   8
ATOM      8  N   UNL     1      35.109 -17.897 -22.250  0.00  0.00    -0.221 NA
BRANCH   8  10
ATOM      9  N   UNL     1      35.350 -16.589 -24.255  0.00  0.00    -0.389 N 
ATOM     10  C   UNL     1      35.061 -17.721 -23.530  0.00  0.00    +0.095 C 
ATOM     11  C   UNL     1      34.614 -18.912 -24.350  0.00  0.00    +0.068 C 
ATOM     12  H   UNL     1      35.647 -15.771 -23.794  0.00  0.00    +0.157 HD
ATOM     13  H   UNL     1      35.259 -16.595 -25.235  0.00  0.00    +0.157 HD
ENDBRANCH   8  10
ENDBRANCH   7   8
ENDBRANCH   1   7
BRANCH   2  14
ATOM     14  C   UNL     1      33.783 -22.715 -18.562  0.00  0.00    -0.059 C 
BRANCH  14  15
ATOM     15  N   UNL     1      32.415 -22.247 -18.332  0.00  0.00    +0.383 N 
ATOM     16  H   UNL     1      32.126 -22.495 -17.386  0.00  0.00    -0.089 HD
ATOM     17  H   UNL     1      31.789 -22.685 -19.006  0.00  0.00    -0.089 HD
ATOM     18  H   UNL     1      32.380 -21.234 -18.444  0.00  0.00    -0.089 HD
ENDBRANCH  14  15
ENDBRANCH   2  14
TORSDOF 5
ENDMDL
MODEL 4
REMARK VINA RESULT:      -6.9      2.134      6.089
REMARK  Name = 1433
REMARK  5 active torsions:
REMARK  status: ('A' for Active; 'I' for Inactive)
REMARK    1  A    between atoms: C_1  and  C_7
REMARK    2  A    between atoms: C_2  and  C_14
REMARK    3  A    between atoms: C_7  and  N_8
REMARK    4  A    between atoms: N_8  and  C_10
REMARK    5  A    between atoms: C_14  and  N_15
REMARK                            x       y       z     vdW  Elec       q    Type
REMARK                         _______ _______ _______ _____ _____    ______ ____
ROOT
ATOM      1  C   UNL     1      35.019 -19.209 -21.355  0.00  0.00    -0.001 C 
ATOM      2  C   UNL     1      34.980 -20.994 -19.742  0.00  0.00    -0.045 C 
ATOM      3  C   UNL     1      35.700 -20.086 -20.520  0.00  0.00    -0.009 C 
ATOM      4  C   UNL     1      33.632 -19.225 -21.426  0.00  0.00    -0.003 C 
ATOM      5  C   UNL     1      33.586 -21.018 -19.807  0.00  0.00    -0.006 C 
ATOM      6  C   UNL     1      32.913 -20.133 -20.649  0.00  0.00    -0.001 C 
ENDROOT
BRANCH   1   7
ATOM      7  C   UNL     1      35.794 -18.231 -22.192  0.00  0.00    +0.140 C 
BRANCH   7   8
ATOM      8  N   UNL     1      35.224 -16.891 -22.127  0.00  0.00    -0.221 NA
BRANCH   8  10
ATOM      9  N   UNL     1      35.251 -16.746 -24.529  0.00  0.00    -0.389 N 
ATOM     10  C   UNL     1      35.018 -16.289 -23.253  0.00  0.00    +0.095 C 
ATOM     11  C   UNL     1      34.460 -14.885 -23.166  0.00  0.00    +0.068 C 
ATOM     12  H   UNL     1      35.614 -17.651 -24.670  0.00  0.00    +0.157 HD
ATOM     13  H   UNL     1      35.054 -16.170 -25.302  0.00  0.00    +0.157 HD
ENDBRANCH   8  10
ENDBRANCH   7   8
ENDBRANCH   1   7
BRANCH   2  14
ATOM     14  C   UNL     1      35.700 -21.939 -18.841  0.00  0.00    -0.059 C 
BRANCH  14  15
ATOM     15  N   UNL     1      36.726 -21.272 -18.038  0.00  0.00    +0.383 N 
ATOM     16  H   UNL     1      37.493 -21.921 -17.861  0.00  0.00    -0.089 HD
ATOM     17  H   UNL     1      36.322 -20.973 -17.152  0.00  0.00    -0.089 HD
ATOM     18  H   UNL     1      37.077 -20.459 -18.544  0.00  0.00    -0.089 HD
ENDBRANCH  14  15
ENDBRANCH   2  14
TORSDOF 5
ENDMDL
MODEL 5
REMARK VINA RESULT:      -6.8      2.323      5.762
REMARK  Name = 1433
REMARK  5 active torsions:
REMARK  status: ('A' for Active; 'I' for Inactive)
REMARK    1  A    between atoms: C_1  and  C_7
REMARK    2  A    between atoms: C_2  and  C_14
REMARK    3  A    between atoms: C_7  and  N_8
REMARK    4  A    between atoms: N_8  and  C_10
REMARK    5  A    between atoms: C_14  and  N_15
REMARK                            x       y       z     vdW  Elec       q    Type
REMARK                         _______ _______ _______ _____ _____    ______ ____
ROOT
ATOM      1  C   UNL     1      34.487 -19.002 -21.231  0.00  0.00    -0.001 C 
ATOM      2  C   UNL     1      35.353 -20.826 -19.923  0.00  0.00    -0.045 C 
ATOM      3  C   UNL     1      35.573 -19.695 -20.709  0.00  0.00    -0.009 C 
ATOM      4  C   UNL     1      33.188 -19.422 -20.981  0.00  0.00    -0.003 C 
ATOM      5  C   UNL     1      34.051 -21.256 -19.666  0.00  0.00    -0.006 C 
ATOM      6  C   UNL     1      32.968 -20.553 -20.195  0.00  0.00    -0.001 C 
ENDROOT
BRANCH   1   7
ATOM      7  C   UNL     1      34.724 -17.783 -22.077  0.00  0.00    +0.140 C 
BRANCH   7   8
ATOM      8  N   UNL     1      34.939 -16.592 -21.265  0.00  0.00    -0.221 NA
BRANCH   8  10
ATOM      9  N   UNL     1      34.450 -14.540 -22.421  0.00  0.00    -0.389 N 
ATOM     10  C   UNL     1      34.206 -15.562 -21.534  0.00  0.00    +0.095 C 
ATOM     11  C   UNL     1      32.908 -15.448 -20.764  0.00  0.00    +0.068 C 
ATOM     12  H   UNL     1      35.274 -14.541 -22.959  0.00  0.00    +0.157 HD
ATOM     13  H   UNL     1      33.800 -13.806 -22.516  0.00  0.00    +0.157 HD
ENDBRANCH   8  10
ENDBRANCH   7   8
ENDBRANCH   1   7
BRANCH   2  14
ATOM     14  C   UNL     1      36.510 -21.577 -19.356  0.00  0.00    -0.059 C 
BRANCH  14  15
ATOM     15  N   UNL     1      36.784 -21.213 -17.965  0.00  0.00    +0.383 N 
ATOM     16  H   UNL     1      37.268 -21.982 -17.501  0.00  0.00    -0.089 HD
ATOM     17  H   UNL     1      35.905 -21.024 -17.484  0.00  0.00    -0.089 HD
ATOM     18  H   UNL     1      37.370 -20.378 -17.941  0.00  0.00    -0.089 HD
ENDBRANCH  14  15
ENDBRANCH   2  14
TORSDOF 5
ENDMDL
MODEL 6
REMARK VINA RESULT:      -6.7      2.398      6.571
REMARK  Name = 1433
REMARK  5 active torsions:
REMARK  status: ('A' for Active; 'I' for Inactive)
REMARK    1  A    between atoms: C_1  and  C_7
REMARK    2  A    between atoms: C_2  and  C_14
REMARK    3  A    between atoms: C_7  and  N_8
REMARK    4  A    between atoms: N_8  and  C_10
REMARK    5  A    between atoms: C_14  and  N_15
REMARK                            x       y       z     vdW  Elec       q    Type
REMARK                         _______ _______ _______ _____ _____    ______ ____
ROOT
ATOM      1  C   UNL     1      32.460 -23.160 -16.415  0.00  0.00    -0.001 C 
ATOM      2  C   UNL     1      30.230 -22.967 -15.534  0.00  0.00    -0.045 C 
ATOM      3  C   UNL     1      31.101 -22.964 -16.624  0.00  0.00    -0.009 C 
ATOM      4  C   UNL     1      32.963 -23.360 -15.136  0.00  0.00    -0.003 C 
ATOM      5  C   UNL     1      30.725 -23.166 -14.245  0.00  0.00    -0.006 C 
ATOM      6  C   UNL     1      32.092 -23.363 -14.046  0.00  0.00    -0.001 C 
ENDROOT
BRANCH   1   7
ATOM      7  C   UNL     1      33.399 -23.157 -17.589  0.00  0.00    +0.140 C 
BRANCH   7   8
ATOM      8  N   UNL     1      32.872 -22.379 -18.702  0.00  0.00    -0.221 NA
BRANCH   8  10
ATOM      9  N   UNL     1      35.086 -21.817 -19.458  0.00  0.00    -0.389 N 
ATOM     10  C   UNL     1      33.721 -21.671 -19.372  0.00  0.00    +0.095 C 
ATOM     11  C   UNL     1      33.149 -20.513 -20.160  0.00  0.00    +0.068 C 
ATOM     12  H   UNL     1      35.535 -22.547 -18.973  0.00  0.00    +0.157 HD
ATOM     13  H   UNL     1      35.614 -21.191 -20.004  0.00  0.00    +0.157 HD
ENDBRANCH   8  10
ENDBRANCH   7   8
ENDBRANCH   1   7
BRANCH   2  14
ATOM     14  C   UNL     1      28.769 -22.758 -15.746  0.00  0.00    -0.059 C 
BRANCH  14  15
ATOM     15  N   UNL     1      28.399 -22.799 -17.162  0.00  0.00    +0.383 N 
ATOM     16  H   UNL     1      29.037 -23.418 -17.662  0.00  0.00    -0.089 HD
ATOM     17  H   UNL     1      28.457 -21.860 -17.555  0.00  0.00    -0.089 HD
ATOM     18  H   UNL     1      27.445 -23.147 -17.254  0.00  0.00    -0.089 HD
ENDBRANCH  14  15
ENDBRANCH   2  14
TORSDOF 5
ENDMDL
MODEL 7
REMARK VINA RESULT:      -6.7      3.997      7.249
REMARK  Name = 1433
REMARK  5 active torsions:
REMARK  status: ('A' for Active; 'I' for Inactive)
REMARK    1  A    between atoms: C_1  and  C_7
REMARK    2  A    between atoms: C_2  and  C_14
REMARK    3  A    between atoms: C_7  and  N_8
REMARK    4  A    between atoms: N_8  and  C_10
REMARK    5  A    between atoms: C_14  and  N_15
REMARK                            x       y       z     vdW  Elec       q    Type
REMARK                         _______ _______ _______ _____ _____    ______ ____
ROOT
ATOM      1  C   UNL     1      34.568 -16.362 -23.411  0.00  0.00    -0.001 C 
ATOM      2  C   UNL     1      34.932 -18.613 -22.642  0.00  0.00    -0.045 C 
ATOM      3  C   UNL     1      34.802 -17.251 -22.369  0.00  0.00    -0.009 C 
ATOM      4  C   UNL     1      34.462 -16.812 -24.721  0.00  0.00    -0.003 C 
ATOM      5  C   UNL     1      34.828 -19.075 -23.955  0.00  0.00    -0.006 C 
ATOM      6  C   UNL     1      34.592 -18.174 -24.994  0.00  0.00    -0.001 C 
ENDROOT
BRANCH   1   7
ATOM      7  C   UNL     1      34.427 -14.895 -23.117  0.00  0.00    +0.140 C 
BRANCH   7   8
ATOM      8  N   UNL     1      33.050 -14.443 -23.264  0.00  0.00    -0.221 NA
BRANCH   8  10
ATOM      9  N   UNL     1      31.744 -12.692 -22.253  0.00  0.00    -0.389 N 
ATOM     10  C   UNL     1      32.530 -13.821 -22.256  0.00  0.00    +0.095 C 
ATOM     11  C   UNL     1      32.831 -14.398 -20.890  0.00  0.00    +0.068 C 
ATOM     12  H   UNL     1      31.504 -12.257 -23.102  0.00  0.00    +0.157 HD
ATOM     13  H   UNL     1      31.423 -12.319 -21.401  0.00  0.00    +0.157 HD
ENDBRANCH   8  10
ENDBRANCH   7   8
ENDBRANCH   1   7
BRANCH   2  14
ATOM     14  C   UNL     1      35.183 -19.576 -21.532  0.00  0.00    -0.059 C 
BRANCH  14  15
ATOM     15  N   UNL     1      36.151 -19.067 -20.560  0.00  0.00    +0.383 N 
ATOM     16  H   UNL     1      36.417 -18.115 -20.811  0.00  0.00    -0.089 HD
ATOM     17  H   UNL     1      36.979 -19.662 -20.561  0.00  0.00    -0.089 HD
ATOM     18  H   UNL     1      35.732 -19.069 -19.630  0.00  0.00    -0.089 HD
ENDBRANCH  14  15
ENDBRANCH   2  14
TORSDOF 5
ENDMDL
MODEL 8
REMARK VINA RESULT:      -6.7      2.317      6.330
REMARK  Name = 1433
REMARK  5 active torsions:
REMARK  status: ('A' for Active; 'I' for Inactive)
REMARK    1  A    between atoms: C_1  and  C_7
REMARK    2  A    between atoms: C_2  and  C_14
REMARK    3  A    between atoms: C_7  and  N_8
REMARK    4  A    between atoms: N_8  and  C_10
REMARK    5  A    between atoms: C_14  and  N_15
REMARK                            x       y       z     vdW  Elec       q    Type
REMARK                         _______ _______ _______ _____ _____    ______ ____
ROOT
ATOM      1  C   UNL     1      35.146 -18.414 -22.223  0.00  0.00    -0.001 C 
ATOM      2  C   UNL     1      34.119 -20.011 -20.746  0.00  0.00    -0.045 C 
ATOM      3  C   UNL     1      34.006 -19.058 -21.758  0.00  0.00    -0.009 C 
ATOM      4  C   UNL     1      36.396 -18.707 -21.694  0.00  0.00    -0.003 C 
ATOM      5  C   UNL     1      35.370 -20.312 -20.207  0.00  0.00    -0.006 C 
ATOM      6  C   UNL     1      36.508 -19.660 -20.681  0.00  0.00    -0.001 C 
ENDROOT
BRANCH   1   7
ATOM      7  C   UNL     1      35.025 -17.387 -23.314  0.00  0.00    +0.140 C 
BRANCH   7   8
ATOM      8  N   UNL     1      35.296 -16.041 -22.825  0.00  0.00    -0.221 NA
BRANCH   8  10
ATOM      9  N   UNL     1      33.146 -14.962 -22.774  0.00  0.00    -0.389 N 
ATOM     10  C   UNL     1      34.323 -15.428 -22.236  0.00  0.00    +0.095 C 
ATOM     11  C   UNL     1      34.498 -15.170 -20.755  0.00  0.00    +0.068 C 
ATOM     12  H   UNL     1      32.958 -15.090 -23.732  0.00  0.00    +0.157 HD
ATOM     13  H   UNL     1      32.493 -14.499 -22.202  0.00  0.00    +0.157 HD
ENDBRANCH   8  10
ENDBRANCH   7   8
ENDBRANCH   1   7
BRANCH   2  14
ATOM     14  C   UNL     1      32.902 -20.709 -20.240  0.00  0.00    -0.059 C 
BRANCH  14  15
ATOM     15  N   UNL     1      33.220 -21.981 -19.589  0.00  0.00    +0.383 N 
ATOM     16  H   UNL     1      32.434 -22.623 -19.696  0.00  0.00    -0.089 HD
ATOM     17  H   UNL     1      33.395 -21.821 -18.598  0.00  0.00    -0.089 HD
ATOM     18  H   UNL     1      34.051 -22.385 -20.020  0.00  0.00    -0.089 HD
ENDBRANCH  14  15
ENDBRANCH   2  14
TORSDOF 5
ENDMDL
MODEL 9
REMARK VINA RESULT:      -6.6      2.801      4.053
REMARK  Name = 1433
REMARK  5 active torsions:
REMARK  status: ('A' for Active; 'I' for Inactive)
REMARK    1  A    between atoms: C_1  and  C_7
REMARK    2  A    between atoms: C_2  and  C_14
REMARK    3  A    between atoms: C_7  and  N_8
REMARK    4  A    between atoms: N_8  and  C_10
REMARK    5  A    between atoms: C_14  and  N_15
REMARK                            x       y       z     vdW  Elec       q    Type
REMARK                         _______ _______ _______ _____ _____    ______ ____
ROOT
ATOM      1  C   UNL     1      35.027 -18.401 -22.028  0.00  0.00    -0.001 C 
ATOM      2  C   UNL     1      34.728 -16.085 -22.610  0.00  0.00    -0.045 C 
ATOM      3  C   UNL     1      34.841 -17.080 -21.638  0.00  0.00    -0.009 C 
ATOM      4  C   UNL     1      35.103 -18.742 -23.372  0.00  0.00    -0.003 C 
ATOM      5  C   UNL     1      34.803 -16.419 -23.963  0.00  0.00    -0.006 C 
ATOM      6  C   UNL     1      34.991 -17.748 -24.343  0.00  0.00    -0.001 C 
ENDROOT
BRANCH   1   7
ATOM      7  C   UNL     1      35.150 -19.473 -20.982  0.00  0.00    +0.140 C 
BRANCH   7   8
ATOM      8  N   UNL     1      33.870 -20.115 -20.712  0.00  0.00    -0.221 NA
BRANCH   8  10
ATOM      9  N   UNL     1      32.808 -21.763 -19.316  0.00  0.00    -0.389 N 
ATOM     10  C   UNL     1      33.876 -21.097 -19.870  0.00  0.00    +0.095 C 
ATOM     11  C   UNL     1      35.238 -21.576 -19.416  0.00  0.00    +0.068 C 
ATOM     12  H   UNL     1      31.889 -21.509 -19.560  0.00  0.00    +0.157 HD
ATOM     13  H   UNL     1      32.963 -22.492 -18.674  0.00  0.00    +0.157 HD
ENDBRANCH   8  10
ENDBRANCH   7   8
ENDBRANCH   1   7
BRANCH   2  14
ATOM     14  C   UNL     1      34.529 -14.665 -22.203  0.00  0.00    -0.059 C 
BRANCH  14  15
ATOM     15  N   UNL     1      34.284 -13.786 -23.348  0.00  0.00    +0.383 N 
ATOM     16  H   UNL     1      34.278 -12.815 -23.036  0.00  0.00    -0.089 HD
ATOM     17  H   UNL     1      33.381 -14.014 -23.764  0.00  0.00    -0.089 HD
ATOM     18  H   UNL     1      35.021 -13.917 -24.041  0.00  0.00    -0.089 HD
ENDBRANCH  14  15
ENDBRANCH   2  14
TORSDOF 5
ENDMDL
