MODEL 1
REMARK VINA RESULT:     -11.1      0.000      0.000
REMARK  Name = 11256664
REMARK  7 active torsions:
REMARK  status: ('A' for Active; 'I' for Inactive)
REMARK    1  A    between atoms: C_5  and  O_21
REMARK    2  A    between atoms: CA_7  and  C_14
REMARK    3  A    between atoms: C_9  and  O_23
REMARK    4  A    between atoms: N_13  and  CA_16
REMARK    5  A    between atoms: CA_16  and  C_18
REMARK    6  A    between atoms: C_18  and  O_19
REMARK    7  A    between atoms: O_23  and  C_24
REMARK                            x       y       z     vdW  Elec       q    Type
REMARK                         _______ _______ _______ _____ _____    ______ ____
ROOT
ATOM      1  N   UNL     1      34.783 -23.583 -16.018  0.00  0.00    -0.403 NA
ATOM      2  C   UNL     1      34.655 -22.242 -18.043  0.00  0.00    +0.027 C 
ATOM      3  C   UNL     1      36.042 -21.996 -17.973  0.00  0.00    +0.014 C 
ATOM      4  C   UNL     1      34.090 -23.036 -17.043  0.00  0.00    +0.109 C 
ATOM      5  C   UNL     1      36.776 -22.552 -16.920  0.00  0.00    +0.190 C 
ATOM      6  C   UNL     1      33.900 -21.692 -19.092  0.00  0.00    +0.039 C 
ATOM      7  CA  UNL     1      36.108 -23.326 -15.984  0.00  0.00    +0.192 C 
ATOM      8  C   UNL     1      36.646 -21.200 -18.961  0.00  0.00    +0.002 C 
ATOM      9  C   UNL     1      34.516 -20.905 -20.065  0.00  0.00    +0.145 C 
ATOM     10  C   UNL     1      35.885 -20.659 -19.999  0.00  0.00    +0.037 C 
ATOM     11  C   UNL     1      32.628 -23.351 -17.035  0.00  0.00    +0.066 C 
ENDROOT
BRANCH   7  14
ATOM     12  O   UNL     1      36.377 -23.823 -13.709  0.00  0.00    -0.268 OA
ATOM     13  N   UNL     1      37.982 -24.647 -15.166  0.00  0.00    -0.290 N 
ATOM     14  C   ACE A   1      36.817 -23.931 -14.866  0.00  0.00    +0.275 C 
ATOM     15  H   UNL     1      38.272 -24.691 -16.106  0.00  0.00    +0.150 HD
BRANCH  13  16
ATOM     16  CA  UNL     1      38.781 -25.324 -14.170  0.00  0.00    +0.201 C 
BRANCH  16  18
ATOM     17  OXT UNL     1      40.936 -26.386 -14.025  0.00  0.00    -0.248 OA
ATOM     18  C   UNL     1      40.075 -25.862 -14.722  0.00  0.00    +0.334 C 
BRANCH  18  19
ATOM     19  O   UNL     1      40.196 -25.713 -16.061  0.00  0.00    -0.479 OA
ATOM     20  H   UNL     1      40.164 -26.463 -16.622  0.00  0.00    +0.295 HD
ENDBRANCH  18  19
ENDBRANCH  16  18
ENDBRANCH  13  16
ENDBRANCH   7  14
BRANCH   5  21
ATOM     21  O   UNL     1      38.118 -22.347 -16.803  0.00  0.00    -0.373 OA
ATOM     22  H   UNL     1      38.716 -22.851 -17.321  0.00  0.00    +0.211 HD
ENDBRANCH   5  21
BRANCH   9  23
ATOM     23  O   UNL     1      33.778 -20.374 -21.079  0.00  0.00    -0.453 OA
BRANCH  23  24
ATOM     24  C   UNL     1      34.275 -19.247 -21.714  0.00  0.00    +0.145 C 
ATOM     25  C   UNL     1      34.840 -19.377 -22.970  0.00  0.00    +0.037 C 
ATOM     26  C   UNL     1      34.195 -18.023 -21.075  0.00  0.00    +0.037 C 
ATOM     27  C   UNL     1      35.341 -18.243 -23.610  0.00  0.00    +0.003 C 
ATOM     28  C   UNL     1      34.697 -16.890 -21.714  0.00  0.00    +0.003 C 
ATOM     29  C   UNL     1      35.270 -17.000 -22.982  0.00  0.00    +0.000 C 
ENDBRANCH  23  24
ENDBRANCH   9  23
TORSDOF 7
ENDMDL
MODEL 2
REMARK VINA RESULT:     -11.0      1.618      2.482
REMARK  Name = 11256664
REMARK  7 active torsions:
REMARK  status: ('A' for Active; 'I' for Inactive)
REMARK    1  A    between atoms: C_5  and  O_21
REMARK    2  A    between atoms: CA_7  and  C_14
REMARK    3  A    between atoms: C_9  and  O_23
REMARK    4  A    between atoms: N_13  and  CA_16
REMARK    5  A    between atoms: CA_16  and  C_18
REMARK    6  A    between atoms: C_18  and  O_19
REMARK    7  A    between atoms: O_23  and  C_24
REMARK                            x       y       z     vdW  Elec       q    Type
REMARK                         _______ _______ _______ _____ _____    ______ ____
ROOT
ATOM      1  N   UNL     1      34.473 -23.455 -15.855  0.00  0.00    -0.403 NA
ATOM      2  C   UNL     1      34.517 -22.242 -17.963  0.00  0.00    +0.027 C 
ATOM      3  C   UNL     1      35.896 -21.999 -17.800  0.00  0.00    +0.014 C 
ATOM      4  C   UNL     1      33.868 -22.970 -16.963  0.00  0.00    +0.109 C 
ATOM      5  C   UNL     1      36.541 -22.493 -16.660  0.00  0.00    +0.190 C 
ATOM      6  C   UNL     1      33.851 -21.755 -19.100  0.00  0.00    +0.039 C 
ATOM      7  CA  UNL     1      35.794 -23.203 -15.733  0.00  0.00    +0.192 C 
ATOM      8  C   UNL     1      36.583 -21.270 -18.785  0.00  0.00    +0.002 C 
ATOM      9  C   UNL     1      34.548 -21.033 -20.068  0.00  0.00    +0.145 C 
ATOM     10  C   UNL     1      35.911 -20.790 -19.911  0.00  0.00    +0.037 C 
ATOM     11  C   UNL     1      32.406 -23.276 -17.050  0.00  0.00    +0.066 C 
ENDROOT
BRANCH   7  14
ATOM     12  O   UNL     1      37.286 -24.617 -14.607  0.00  0.00    -0.268 OA
ATOM     13  N   UNL     1      35.978 -23.211 -13.306  0.00  0.00    -0.290 N 
ATOM     14  C   ACE A   1      36.407 -23.741 -14.528  0.00  0.00    +0.275 C 
ATOM     15  H   UNL     1      35.277 -22.520 -13.319  0.00  0.00    +0.150 HD
BRANCH  13  16
ATOM     16  CA  UNL     1      36.509 -23.624 -12.027  0.00  0.00    +0.201 C 
BRANCH  16  18
ATOM     17  OXT UNL     1      35.545 -24.414  -9.968  0.00  0.00    -0.248 OA
ATOM     18  C   UNL     1      35.507 -24.378 -11.192  0.00  0.00    +0.334 C 
BRANCH  18  19
ATOM     19  O   UNL     1      34.562 -25.013 -11.923  0.00  0.00    -0.479 OA
ATOM     20  H   UNL     1      33.904 -25.525 -11.495  0.00  0.00    +0.295 HD
ENDBRANCH  18  19
ENDBRANCH  16  18
ENDBRANCH  13  16
ENDBRANCH   7  14
BRANCH   5  21
ATOM     21  O   UNL     1      37.871 -22.287 -16.451  0.00  0.00    -0.373 OA
ATOM     22  H   UNL     1      38.287 -21.522 -16.798  0.00  0.00    +0.211 HD
ENDBRANCH   5  21
BRANCH   9  23
ATOM     23  O   UNL     1      33.897 -20.563 -21.168  0.00  0.00    -0.453 OA
BRANCH  23  24
ATOM     24  C   UNL     1      34.348 -19.377 -21.724  0.00  0.00    +0.145 C 
ATOM     25  C   UNL     1      34.913 -19.397 -22.986  0.00  0.00    +0.037 C 
ATOM     26  C   UNL     1      34.223 -18.204 -21.002  0.00  0.00    +0.037 C 
ATOM     27  C   UNL     1      35.368 -18.204 -23.547  0.00  0.00    +0.003 C 
ATOM     28  C   UNL     1      34.680 -17.010 -21.561  0.00  0.00    +0.003 C 
ATOM     29  C   UNL     1      35.252 -17.010 -22.833  0.00  0.00    +0.000 C 
ENDBRANCH  23  24
ENDBRANCH   9  23
TORSDOF 7
ENDMDL
MODEL 3
REMARK VINA RESULT:     -10.9      5.609     11.098
REMARK  Name = 11256664
REMARK  7 active torsions:
REMARK  status: ('A' for Active; 'I' for Inactive)
REMARK    1  A    between atoms: C_5  and  O_21
REMARK    2  A    between atoms: CA_7  and  C_14
REMARK    3  A    between atoms: C_9  and  O_23
REMARK    4  A    between atoms: N_13  and  CA_16
REMARK    5  A    between atoms: CA_16  and  C_18
REMARK    6  A    between atoms: C_18  and  O_19
REMARK    7  A    between atoms: O_23  and  C_24
REMARK                            x       y       z     vdW  Elec       q    Type
REMARK                         _______ _______ _______ _____ _____    ______ ____
ROOT
ATOM      1  N   UNL     1      34.125 -14.565 -22.497  0.00  0.00    -0.403 NA
ATOM      2  C   UNL     1      34.879 -16.847 -22.122  0.00  0.00    +0.027 C 
ATOM      3  C   UNL     1      34.799 -17.106 -23.506  0.00  0.00    +0.014 C 
ATOM      4  C   UNL     1      34.531 -15.568 -21.685  0.00  0.00    +0.109 C 
ATOM      5  C   UNL     1      34.381 -16.082 -24.364  0.00  0.00    +0.190 C 
ATOM      6  C   UNL     1      35.297 -17.862 -21.245  0.00  0.00    +0.039 C 
ATOM      7  CA  UNL     1      34.060 -14.849 -23.816  0.00  0.00    +0.192 C 
ATOM      8  C   UNL     1      35.142 -18.382 -23.984  0.00  0.00    +0.002 C 
ATOM      9  C   UNL     1      35.633 -19.123 -21.737  0.00  0.00    +0.145 C 
ATOM     10  C   UNL     1      35.555 -19.382 -23.103  0.00  0.00    +0.037 C 
ATOM     11  C   UNL     1      34.585 -15.202 -20.235  0.00  0.00    +0.066 C 
ENDROOT
BRANCH   7  14
ATOM     12  O   UNL     1      32.729 -13.919 -25.505  0.00  0.00    -0.268 OA
ATOM     13  N   UNL     1      34.225 -12.502 -24.440  0.00  0.00    -0.290 N 
ATOM     14  C   ACE A   1      33.620 -13.746 -24.655  0.00  0.00    +0.275 C 
ATOM     15  H   UNL     1      34.925 -12.439 -23.750  0.00  0.00    +0.150 HD
BRANCH  13  16
ATOM     16  CA  UNL     1      33.878 -11.308 -25.175  0.00  0.00    +0.201 C 
BRANCH  16  18
ATOM     17  OXT UNL     1      35.614 -10.161 -26.385  0.00  0.00    -0.248 OA
ATOM     18  C   UNL     1      35.034 -10.354 -25.323  0.00  0.00    +0.334 C 
BRANCH  18  19
ATOM     19  O   UNL     1      35.371  -9.728 -24.172  0.00  0.00    -0.479 OA
ATOM     20  H   UNL     1      36.119 -10.014 -23.684  0.00  0.00    +0.295 HD
ENDBRANCH  18  19
ENDBRANCH  16  18
ENDBRANCH  13  16
ENDBRANCH   7  14
BRANCH   5  21
ATOM     21  O   UNL     1      34.285 -16.276 -25.709  0.00  0.00    -0.373 OA
ATOM     22  H   UNL     1      33.465 -16.143 -26.143  0.00  0.00    +0.211 HD
ENDBRANCH   5  21
BRANCH   9  23
ATOM     23  O   UNL     1      36.036 -20.102 -20.881  0.00  0.00    -0.453 OA
BRANCH  23  24
ATOM     24  C   UNL     1      35.059 -20.759 -20.150  0.00  0.00    +0.145 C 
ATOM     25  C   UNL     1      35.435 -21.759 -19.271  0.00  0.00    +0.037 C 
ATOM     26  C   UNL     1      33.735 -20.400 -20.320  0.00  0.00    +0.037 C 
ATOM     27  C   UNL     1      34.452 -22.422 -18.535  0.00  0.00    +0.003 C 
ATOM     28  C   UNL     1      32.751 -21.063 -19.585  0.00  0.00    +0.003 C 
ATOM     29  C   UNL     1      33.110 -22.074 -18.693  0.00  0.00    +0.000 C 
ENDBRANCH  23  24
ENDBRANCH   9  23
TORSDOF 7
ENDMDL
MODEL 4
REMARK VINA RESULT:     -10.6      4.580      8.231
REMARK  Name = 11256664
REMARK  7 active torsions:
REMARK  status: ('A' for Active; 'I' for Inactive)
REMARK    1  A    between atoms: C_5  and  O_21
REMARK    2  A    between atoms: CA_7  and  C_14
REMARK    3  A    between atoms: C_9  and  O_23
REMARK    4  A    between atoms: N_13  and  CA_16
REMARK    5  A    between atoms: CA_16  and  C_18
REMARK    6  A    between atoms: C_18  and  O_19
REMARK    7  A    between atoms: O_23  and  C_24
REMARK                            x       y       z     vdW  Elec       q    Type
REMARK                         _______ _______ _______ _____ _____    ______ ____
ROOT
ATOM      1  N   UNL     1      34.936 -16.803 -20.915  0.00  0.00    -0.403 NA
ATOM      2  C   UNL     1      34.229 -15.611 -22.915  0.00  0.00    +0.027 C 
ATOM      3  C   UNL     1      34.485 -16.758 -23.694  0.00  0.00    +0.014 C 
ATOM      4  C   UNL     1      34.474 -15.697 -21.542  0.00  0.00    +0.109 C 
ATOM      5  C   UNL     1      34.964 -17.912 -23.065  0.00  0.00    +0.190 C 
ATOM      6  C   UNL     1      33.748 -14.442 -23.527  0.00  0.00    +0.039 C 
ATOM      7  CA  UNL     1      35.169 -17.882 -21.694  0.00  0.00    +0.192 C 
ATOM      8  C   UNL     1      34.251 -16.709 -25.079  0.00  0.00    +0.002 C 
ATOM      9  C   UNL     1      33.521 -14.411 -24.903  0.00  0.00    +0.145 C 
ATOM     10  C   UNL     1      33.773 -15.542 -25.677  0.00  0.00    +0.037 C 
ATOM     11  C   UNL     1      34.233 -14.532 -20.636  0.00  0.00    +0.066 C 
ENDROOT
BRANCH   7  14
ATOM     12  O   UNL     1      36.875 -19.155 -20.712  0.00  0.00    -0.268 OA
ATOM     13  N   UNL     1      34.723 -20.014 -20.609  0.00  0.00    -0.290 N 
ATOM     14  C   ACE A   1      35.666 -19.050 -20.983  0.00  0.00    +0.275 C 
ATOM     15  H   UNL     1      33.782 -19.866 -20.858  0.00  0.00    +0.150 HD
BRANCH  13  16
ATOM     16  CA  UNL     1      35.057 -21.215 -19.879  0.00  0.00    +0.201 C 
BRANCH  16  18
ATOM     17  OXT UNL     1      32.791 -21.444 -19.097  0.00  0.00    -0.248 OA
ATOM     18  C   UNL     1      33.843 -21.983 -19.425  0.00  0.00    +0.334 C 
BRANCH  18  19
ATOM     19  O   UNL     1      34.023 -23.324 -19.413  0.00  0.00    -0.479 OA
ATOM     20  H   UNL     1      34.390 -23.741 -18.658  0.00  0.00    +0.295 HD
ENDBRANCH  18  19
ENDBRANCH  16  18
ENDBRANCH  13  16
ENDBRANCH   7  14
BRANCH   5  21
ATOM     21  O   UNL     1      35.228 -19.048 -23.769  0.00  0.00    -0.373 OA
ATOM     22  H   UNL     1      34.864 -19.163 -24.626  0.00  0.00    +0.211 HD
ENDBRANCH   5  21
BRANCH   9  23
ATOM     23  O   UNL     1      33.056 -13.275 -25.491  0.00  0.00    -0.453 OA
BRANCH  23  24
ATOM     24  C   UNL     1      33.746 -12.098 -25.251  0.00  0.00    +0.145 C 
ATOM     25  C   UNL     1      34.670 -11.657 -26.181  0.00  0.00    +0.037 C 
ATOM     26  C   UNL     1      33.495 -11.395 -24.087  0.00  0.00    +0.037 C 
ATOM     27  C   UNL     1      35.366 -10.473 -25.940  0.00  0.00    +0.003 C 
ATOM     28  C   UNL     1      34.191 -10.211 -23.845  0.00  0.00    +0.003 C 
ATOM     29  C   UNL     1      35.127  -9.750 -24.771  0.00  0.00    +0.000 C 
ENDBRANCH  23  24
ENDBRANCH   9  23
TORSDOF 7
ENDMDL
MODEL 5
REMARK VINA RESULT:     -10.6      4.768      8.390
REMARK  Name = 11256664
REMARK  7 active torsions:
REMARK  status: ('A' for Active; 'I' for Inactive)
REMARK    1  A    between atoms: C_5  and  O_21
REMARK    2  A    between atoms: CA_7  and  C_14
REMARK    3  A    between atoms: C_9  and  O_23
REMARK    4  A    between atoms: N_13  and  CA_16
REMARK    5  A    between atoms: CA_16  and  C_18
REMARK    6  A    between atoms: C_18  and  O_19
REMARK    7  A    between atoms: O_23  and  C_24
REMARK                            x       y       z     vdW  Elec       q    Type
REMARK                         _______ _______ _______ _____ _____    ______ ____
ROOT
ATOM      1  N   UNL     1      35.020 -18.335 -23.134  0.00  0.00    -0.403 NA
ATOM      2  C   UNL     1      34.326 -16.038 -23.532  0.00  0.00    +0.027 C 
ATOM      3  C   UNL     1      34.501 -15.744 -22.164  0.00  0.00    +0.014 C 
ATOM      4  C   UNL     1      34.600 -17.342 -23.950  0.00  0.00    +0.109 C 
ATOM      5  C   UNL     1      34.935 -16.757 -21.303  0.00  0.00    +0.190 C 
ATOM      6  C   UNL     1      33.891 -15.034 -24.413  0.00  0.00    +0.039 C 
ATOM      7  CA  UNL     1      35.177 -18.016 -21.831  0.00  0.00    +0.192 C 
ATOM      8  C   UNL     1      34.235 -14.443 -21.705  0.00  0.00    +0.002 C 
ATOM      9  C   UNL     1      33.632 -13.748 -23.940  0.00  0.00    +0.145 C 
ATOM     10  C   UNL     1      33.802 -13.453 -22.590  0.00  0.00    +0.037 C 
ATOM     11  C   UNL     1      34.443 -17.747 -25.382  0.00  0.00    +0.066 C 
ENDROOT
BRANCH   7  14
ATOM     12  O   UNL     1      36.802 -19.146 -20.576  0.00  0.00    -0.268 OA
ATOM     13  N   UNL     1      34.684 -20.088 -20.652  0.00  0.00    -0.290 N 
ATOM     14  C   ACE A   1      35.629 -19.111 -20.987  0.00  0.00    +0.275 C 
ATOM     15  H   UNL     1      33.773 -19.997 -21.014  0.00  0.00    +0.150 HD
BRANCH  13  16
ATOM     16  CA  UNL     1      34.974 -21.221 -19.804  0.00  0.00    +0.201 C 
BRANCH  16  18
ATOM     17  OXT UNL     1      32.686 -21.413 -19.081  0.00  0.00    -0.248 OA
ATOM     18  C   UNL     1      33.737 -21.969 -19.379  0.00  0.00    +0.334 C 
BRANCH  18  19
ATOM     19  O   UNL     1      33.897 -23.312 -19.359  0.00  0.00    -0.479 OA
ATOM     20  H   UNL     1      33.298 -23.862 -19.824  0.00  0.00    +0.295 HD
ENDBRANCH  18  19
ENDBRANCH  16  18
ENDBRANCH  13  16
ENDBRANCH   7  14
BRANCH   5  21
ATOM     21  O   UNL     1      35.120 -16.530 -19.973  0.00  0.00    -0.373 OA
ATOM     22  H   UNL     1      34.691 -15.807 -19.557  0.00  0.00    +0.211 HD
ENDBRANCH   5  21
BRANCH   9  23
ATOM     23  O   UNL     1      33.209 -12.780 -24.799  0.00  0.00    -0.453 OA
BRANCH  23  24
ATOM     24  C   UNL     1      33.736 -11.508 -24.645  0.00  0.00    +0.145 C 
ATOM     25  C   UNL     1      33.155 -10.645 -23.733  0.00  0.00    +0.037 C 
ATOM     26  C   UNL     1      34.828 -11.134 -25.407  0.00  0.00    +0.037 C 
ATOM     27  C   UNL     1      33.685  -9.363 -23.577  0.00  0.00    +0.003 C 
ATOM     28  C   UNL     1      35.357  -9.853 -25.252  0.00  0.00    +0.003 C 
ATOM     29  C   UNL     1      34.786  -8.968 -24.337  0.00  0.00    +0.000 C 
ENDBRANCH  23  24
ENDBRANCH   9  23
TORSDOF 7
ENDMDL
MODEL 6
REMARK VINA RESULT:     -10.1      2.314      3.724
REMARK  Name = 11256664
REMARK  7 active torsions:
REMARK  status: ('A' for Active; 'I' for Inactive)
REMARK    1  A    between atoms: C_5  and  O_21
REMARK    2  A    between atoms: CA_7  and  C_14
REMARK    3  A    between atoms: C_9  and  O_23
REMARK    4  A    between atoms: N_13  and  CA_16
REMARK    5  A    between atoms: CA_16  and  C_18
REMARK    6  A    between atoms: C_18  and  O_19
REMARK    7  A    between atoms: O_23  and  C_24
REMARK                            x       y       z     vdW  Elec       q    Type
REMARK                         _______ _______ _______ _____ _____    ______ ____
ROOT
ATOM      1  N   UNL     1      33.176 -21.491 -19.351  0.00  0.00    -0.403 NA
ATOM      2  C   UNL     1      34.560 -19.939 -20.614  0.00  0.00    +0.027 C 
ATOM      3  C   UNL     1      35.719 -20.495 -20.035  0.00  0.00    +0.014 C 
ATOM      4  C   UNL     1      33.328 -20.477 -20.234  0.00  0.00    +0.109 C 
ATOM      5  C   UNL     1      35.583 -21.544 -19.120  0.00  0.00    +0.190 C 
ATOM      6  C   UNL     1      34.675 -18.885 -21.535  0.00  0.00    +0.039 C 
ATOM      7  CA  UNL     1      34.308 -21.998 -18.817  0.00  0.00    +0.192 C 
ATOM      8  C   UNL     1      36.976 -19.980 -20.394  0.00  0.00    +0.002 C 
ATOM      9  C   UNL     1      35.931 -18.386 -21.880  0.00  0.00    +0.145 C 
ATOM     10  C   UNL     1      37.079 -18.931 -21.310  0.00  0.00    +0.037 C 
ATOM     11  C   UNL     1      32.045 -19.952 -20.795  0.00  0.00    +0.066 C 
ENDROOT
BRANCH   7  14
ATOM     12  O   UNL     1      33.498 -24.115 -18.221  0.00  0.00    -0.268 OA
ATOM     13  N   UNL     1      34.632 -22.920 -16.588  0.00  0.00    -0.290 N 
ATOM     14  C   ACE A   1      34.102 -23.085 -17.873  0.00  0.00    +0.275 C 
ATOM     15  H   UNL     1      35.099 -22.078 -16.382  0.00  0.00    +0.150 HD
BRANCH  13  16
ATOM     16  CA  UNL     1      34.531 -23.919 -15.549  0.00  0.00    +0.201 C 
BRANCH  16  18
ATOM     17  OXT UNL     1      36.015 -25.235 -14.184  0.00  0.00    -0.248 OA
ATOM     18  C   UNL     1      35.871 -24.460 -15.122  0.00  0.00    +0.334 C 
BRANCH  18  19
ATOM     19  O   UNL     1      36.902 -24.008 -15.874  0.00  0.00    -0.479 OA
ATOM     20  H   UNL     1      37.519 -23.405 -15.508  0.00  0.00    +0.295 HD
ENDBRANCH  18  19
ENDBRANCH  16  18
ENDBRANCH  13  16
ENDBRANCH   7  14
BRANCH   5  21
ATOM     21  O   UNL     1      36.669 -22.118 -18.530  0.00  0.00    -0.373 OA
ATOM     22  H   UNL     1      36.658 -23.031 -18.317  0.00  0.00    +0.211 HD
ENDBRANCH   5  21
BRANCH   9  23
ATOM     23  O   UNL     1      36.035 -17.363 -22.772  0.00  0.00    -0.453 OA
BRANCH  23  24
ATOM     24  C   UNL     1      35.076 -16.365 -22.722  0.00  0.00    +0.145 C 
ATOM     25  C   UNL     1      34.459 -15.964 -23.893  0.00  0.00    +0.037 C 
ATOM     26  C   UNL     1      34.763 -15.793 -21.502  0.00  0.00    +0.037 C 
ATOM     27  C   UNL     1      33.493 -14.958 -23.843  0.00  0.00    +0.003 C 
ATOM     28  C   UNL     1      33.799 -14.786 -21.452  0.00  0.00    +0.003 C 
ATOM     29  C   UNL     1      33.164 -14.369 -22.622  0.00  0.00    +0.000 C 
ENDBRANCH  23  24
ENDBRANCH   9  23
TORSDOF 7
ENDMDL
MODEL 7
REMARK VINA RESULT:     -10.0      3.017      4.630
REMARK  Name = 11256664
REMARK  7 active torsions:
REMARK  status: ('A' for Active; 'I' for Inactive)
REMARK    1  A    between atoms: C_5  and  O_21
REMARK    2  A    between atoms: CA_7  and  C_14
REMARK    3  A    between atoms: C_9  and  O_23
REMARK    4  A    between atoms: N_13  and  CA_16
REMARK    5  A    between atoms: CA_16  and  C_18
REMARK    6  A    between atoms: C_18  and  O_19
REMARK    7  A    between atoms: O_23  and  C_24
REMARK                            x       y       z     vdW  Elec       q    Type
REMARK                         _______ _______ _______ _____ _____    ______ ____
ROOT
ATOM      1  N   UNL     1      35.643 -22.503 -17.692  0.00  0.00    -0.403 NA
ATOM      2  C   UNL     1      34.976 -21.103 -19.567  0.00  0.00    +0.027 C 
ATOM      3  C   UNL     1      33.621 -21.389 -19.304  0.00  0.00    +0.014 C 
ATOM      4  C   UNL     1      35.932 -21.687 -18.732  0.00  0.00    +0.109 C 
ATOM      5  C   UNL     1      33.301 -22.231 -18.233  0.00  0.00    +0.190 C 
ATOM      6  C   UNL     1      35.317 -20.260 -20.638  0.00  0.00    +0.039 C 
ATOM      7  CA  UNL     1      34.335 -22.753 -17.470  0.00  0.00    +0.192 C 
ATOM      8  C   UNL     1      32.631 -20.821 -20.123  0.00  0.00    +0.002 C 
ATOM      9  C   UNL     1      34.322 -19.705 -21.440  0.00  0.00    +0.145 C 
ATOM     10  C   UNL     1      32.982 -19.984 -21.184  0.00  0.00    +0.037 C 
ATOM     11  C   UNL     1      37.393 -21.442 -18.935  0.00  0.00    +0.066 C 
ENDROOT
BRANCH   7  14
ATOM     12  O   UNL     1      34.715 -24.685 -16.199  0.00  0.00    -0.268 OA
ATOM     13  N   UNL     1      33.076 -23.229 -15.442  0.00  0.00    -0.290 N 
ATOM     14  C   ACE A   1      34.067 -23.635 -16.344  0.00  0.00    +0.275 C 
ATOM     15  H   UNL     1      32.602 -22.385 -15.621  0.00  0.00    +0.150 HD
BRANCH  13  16
ATOM     16  CA  UNL     1      32.713 -23.983 -14.264  0.00  0.00    +0.201 C 
BRANCH  16  18
ATOM     17  OXT UNL     1      30.617 -24.497 -15.332  0.00  0.00    -0.248 OA
ATOM     18  C   UNL     1      31.302 -24.508 -14.316  0.00  0.00    +0.334 C 
BRANCH  18  19
ATOM     19  O   UNL     1      30.862 -24.995 -13.132  0.00  0.00    -0.479 OA
ATOM     20  H   UNL     1      30.890 -25.916 -12.965  0.00  0.00    +0.295 HD
ENDBRANCH  18  19
ENDBRANCH  16  18
ENDBRANCH  13  16
ENDBRANCH   7  14
BRANCH   5  21
ATOM     21  O   UNL     1      32.009 -22.541 -17.933  0.00  0.00    -0.373 OA
ATOM     22  H   UNL     1      31.310 -22.020 -18.278  0.00  0.00    +0.211 HD
ENDBRANCH   5  21
BRANCH   9  23
ATOM     23  O   UNL     1      34.660 -18.889 -22.477  0.00  0.00    -0.453 OA
BRANCH  23  24
ATOM     24  C   UNL     1      34.619 -17.522 -22.259  0.00  0.00    +0.145 C 
ATOM     25  C   UNL     1      34.593 -16.667 -23.347  0.00  0.00    +0.037 C 
ATOM     26  C   UNL     1      34.608 -17.046 -20.961  0.00  0.00    +0.037 C 
ATOM     27  C   UNL     1      34.553 -15.290 -23.129  0.00  0.00    +0.003 C 
ATOM     28  C   UNL     1      34.570 -15.669 -20.742  0.00  0.00    +0.003 C 
ATOM     29  C   UNL     1      34.542 -14.791 -21.826  0.00  0.00    +0.000 C 
ENDBRANCH  23  24
ENDBRANCH   9  23
TORSDOF 7
ENDMDL
MODEL 8
REMARK VINA RESULT:     -10.0      5.440      9.076
REMARK  Name = 11256664
REMARK  7 active torsions:
REMARK  status: ('A' for Active; 'I' for Inactive)
REMARK    1  A    between atoms: C_5  and  O_21
REMARK    2  A    between atoms: CA_7  and  C_14
REMARK    3  A    between atoms: C_9  and  O_23
REMARK    4  A    between atoms: N_13  and  CA_16
REMARK    5  A    between atoms: CA_16  and  C_18
REMARK    6  A    between atoms: C_18  and  O_19
REMARK    7  A    between atoms: O_23  and  C_24
REMARK                            x       y       z     vdW  Elec       q    Type
REMARK                         _______ _______ _______ _____ _____    ______ ____
ROOT
ATOM      1  N   UNL     1      34.660 -16.799 -23.477  0.00  0.00    -0.403 NA
ATOM      2  C   UNL     1      33.446 -14.784 -22.854  0.00  0.00    +0.027 C 
ATOM      3  C   UNL     1      33.760 -15.009 -21.498  0.00  0.00    +0.014 C 
ATOM      4  C   UNL     1      33.922 -15.709 -23.787  0.00  0.00    +0.109 C 
ATOM      5  C   UNL     1      34.523 -16.131 -21.156  0.00  0.00    +0.190 C 
ATOM      6  C   UNL     1      32.681 -13.664 -23.217  0.00  0.00    +0.039 C 
ATOM      7  CA  UNL     1      34.941 -16.981 -22.168  0.00  0.00    +0.192 C 
ATOM      8  C   UNL     1      33.299 -14.101 -20.530  0.00  0.00    +0.002 C 
ATOM      9  C   UNL     1      32.232 -12.773 -22.244  0.00  0.00    +0.145 C 
ATOM     10  C   UNL     1      32.539 -12.991 -20.903  0.00  0.00    +0.037 C 
ATOM     11  C   UNL     1      33.638 -15.553 -25.247  0.00  0.00    +0.066 C 
ENDROOT
BRANCH   7  14
ATOM     12  O   UNL     1      36.809 -18.364 -22.472  0.00  0.00    -0.268 OA
ATOM     13  N   UNL     1      35.248 -19.030 -20.891  0.00  0.00    -0.290 N 
ATOM     14  C   ACE A   1      35.736 -18.164 -21.876  0.00  0.00    +0.275 C 
ATOM     15  H   UNL     1      34.391 -18.808 -20.460  0.00  0.00    +0.150 HD
BRANCH  13  16
ATOM     16  CA  UNL     1      35.935 -20.230 -20.472  0.00  0.00    +0.201 C 
BRANCH  16  18
ATOM     17  OXT UNL     1      35.440 -22.231 -19.229  0.00  0.00    -0.248 OA
ATOM     18  C   UNL     1      35.033 -21.205 -19.760  0.00  0.00    +0.334 C 
BRANCH  18  19
ATOM     19  O   UNL     1      33.731 -20.838 -19.763  0.00  0.00    -0.479 OA
ATOM     20  H   UNL     1      33.470 -20.029 -19.368  0.00  0.00    +0.295 HD
ENDBRANCH  18  19
ENDBRANCH  16  18
ENDBRANCH  13  16
ENDBRANCH   7  14
BRANCH   5  21
ATOM     21  O   UNL     1      34.855 -16.398 -19.862  0.00  0.00    -0.373 OA
ATOM     22  H   UNL     1      35.440 -15.827 -19.401  0.00  0.00    +0.211 HD
ENDBRANCH   5  21
BRANCH   9  23
ATOM     23  O   UNL     1      31.490 -11.689 -22.603  0.00  0.00    -0.453 OA
BRANCH  23  24
ATOM     24  C   UNL     1      32.103 -10.447 -22.560  0.00  0.00    +0.145 C 
ATOM     25  C   UNL     1      31.771  -9.567 -21.545  0.00  0.00    +0.037 C 
ATOM     26  C   UNL     1      33.029 -10.119 -23.534  0.00  0.00    +0.037 C 
ATOM     27  C   UNL     1      32.387  -8.316 -21.502  0.00  0.00    +0.003 C 
ATOM     28  C   UNL     1      33.644  -8.868 -23.491  0.00  0.00    +0.003 C 
ATOM     29  C   UNL     1      33.323  -7.967 -22.476  0.00  0.00    +0.000 C 
ENDBRANCH  23  24
ENDBRANCH   9  23
TORSDOF 7
ENDMDL
MODEL 9
REMARK VINA RESULT:      -9.9      3.797      5.432
REMARK  Name = 11256664
REMARK  7 active torsions:
REMARK  status: ('A' for Active; 'I' for Inactive)
REMARK    1  A    between atoms: C_5  and  O_21
REMARK    2  A    between atoms: CA_7  and  C_14
REMARK    3  A    between atoms: C_9  and  O_23
REMARK    4  A    between atoms: N_13  and  CA_16
REMARK    5  A    between atoms: CA_16  and  C_18
REMARK    6  A    between atoms: C_18  and  O_19
REMARK    7  A    between atoms: O_23  and  C_24
REMARK                            x       y       z     vdW  Elec       q    Type
REMARK                         _______ _______ _______ _____ _____    ______ ____
ROOT
ATOM      1  N   UNL     1      32.683 -21.181 -19.557  0.00  0.00    -0.403 NA
ATOM      2  C   UNL     1      34.418 -19.902 -20.686  0.00  0.00    +0.027 C 
ATOM      3  C   UNL     1      35.409 -20.618 -19.984  0.00  0.00    +0.014 C 
ATOM      4  C   UNL     1      33.084 -20.228 -20.429  0.00  0.00    +0.109 C 
ATOM      5  C   UNL     1      35.015 -21.608 -19.077  0.00  0.00    +0.190 C 
ATOM      6  C   UNL     1      34.793 -18.904 -21.600  0.00  0.00    +0.039 C 
ATOM      7  CA  UNL     1      33.660 -21.846 -18.903  0.00  0.00    +0.192 C 
ATOM      8  C   UNL     1      36.762 -20.318 -20.215  0.00  0.00    +0.002 C 
ATOM      9  C   UNL     1      36.140 -18.620 -21.818  0.00  0.00    +0.145 C 
ATOM     10  C   UNL     1      37.123 -19.324 -21.126  0.00  0.00    +0.037 C 
ATOM     11  C   UNL     1      31.965 -19.521 -21.126  0.00  0.00    +0.066 C 
ENDROOT
BRANCH   7  14
ATOM     12  O   UNL     1      33.845 -23.902 -17.793  0.00  0.00    -0.268 OA
ATOM     13  N   UNL     1      31.994 -22.596 -17.296  0.00  0.00    -0.290 N 
ATOM     14  C   ACE A   1      33.188 -22.862 -17.975  0.00  0.00    +0.275 C 
ATOM     15  H   UNL     1      31.526 -21.751 -17.490  0.00  0.00    +0.150 HD
BRANCH  13  16
ATOM     16  CA  UNL     1      31.411 -23.494 -16.326  0.00  0.00    +0.201 C 
BRANCH  16  18
ATOM     17  OXT UNL     1      29.271 -22.524 -16.851  0.00  0.00    -0.248 OA
ATOM     18  C   UNL     1      29.925 -23.301 -16.166  0.00  0.00    +0.334 C 
BRANCH  18  19
ATOM     19  O   UNL     1      29.382 -24.067 -15.192  0.00  0.00    -0.479 OA
ATOM     20  H   UNL     1      28.818 -23.681 -14.551  0.00  0.00    +0.295 HD
ENDBRANCH  18  19
ENDBRANCH  16  18
ENDBRANCH  13  16
ENDBRANCH   7  14
BRANCH   5  21
ATOM     21  O   UNL     1      35.930 -22.331 -18.371  0.00  0.00    -0.373 OA
ATOM     22  H   UNL     1      36.615 -21.892 -17.906  0.00  0.00    +0.211 HD
ENDBRANCH   5  21
BRANCH   9  23
ATOM     23  O   UNL     1      36.497 -17.650 -22.705  0.00  0.00    -0.453 OA
BRANCH  23  24
ATOM     24  C   UNL     1      35.493 -16.843 -23.214  0.00  0.00    +0.145 C 
ATOM     25  C   UNL     1      35.045 -17.058 -24.506  0.00  0.00    +0.037 C 
ATOM     26  C   UNL     1      34.964 -15.842 -22.419  0.00  0.00    +0.037 C 
ATOM     27  C   UNL     1      34.035 -16.245 -25.019  0.00  0.00    +0.003 C 
ATOM     28  C   UNL     1      33.955 -15.029 -22.932  0.00  0.00    +0.003 C 
ATOM     29  C   UNL     1      33.490 -15.230 -24.232  0.00  0.00    +0.000 C 
ENDBRANCH  23  24
ENDBRANCH   9  23
TORSDOF 7
ENDMDL
