MODEL 1
REMARK VINA RESULT:      -8.7      0.000      0.000
REMARK  Name = 15981397
REMARK  5 active torsions:
REMARK  status: ('A' for Active; 'I' for Inactive)
REMARK    1  A    between atoms: N_1  and  S_13
REMARK    2  A    between atoms: C_2  and  C_7
REMARK    3  A    between atoms: C_3  and  C_22
REMARK    4  A    between atoms: S_13  and  C_17
REMARK    5  A    between atoms: C_22  and  N_23
REMARK                            x       y       z     vdW  Elec       q    Type
REMARK                         _______ _______ _______ _____ _____    ______ ____
ROOT
ATOM      1  N   UNL     1      33.363 -23.630 -15.601  0.00  0.00    -0.168 N 
ATOM      2  C   UNL     1      34.733 -23.636 -15.523  0.00  0.00    +0.075 C 
ATOM      3  C   UNL     1      34.108 -22.841 -17.538  0.00  0.00    -0.026 C 
ATOM      4  C   UNL     1      32.972 -23.148 -16.823  0.00  0.00    +0.082 C 
ATOM      5  C   UNL     1      35.221 -23.149 -16.718  0.00  0.00    +0.012 C 
ENDROOT
BRANCH   2   7
ATOM      6  F   UNL     1      35.787 -26.232 -15.339  0.00  0.00    -0.204 F 
ATOM      7  C   UNL     1      35.467 -24.086 -14.364  0.00  0.00    +0.043 C 
ATOM      8  C   UNL     1      35.973 -25.385 -14.315  0.00  0.00    +0.141 C 
ATOM      9  C   UNL     1      35.670 -23.218 -13.292  0.00  0.00    +0.004 C 
ATOM     10  C   UNL     1      36.682 -25.815 -13.194  0.00  0.00    +0.030 C 
ATOM     11  C   UNL     1      36.379 -23.647 -12.171  0.00  0.00    +0.000 C 
ATOM     12  C   UNL     1      36.885 -24.946 -12.122  0.00  0.00    +0.002 C 
ENDBRANCH   2   7
BRANCH   1  13
ATOM     13  S   UNL     1      32.302 -24.124 -14.414  0.00  0.00    +0.082 S 
ATOM     14  O   UNL     1      32.530 -23.219 -13.287  0.00  0.00    -0.149 OA
ATOM     15  O   UNL     1      32.436 -25.573 -14.249  0.00  0.00    -0.149 OA
BRANCH  13  17
ATOM     16  N   UNL     1      28.748 -24.707 -16.170  0.00  0.00    -0.241 NA
ATOM     17  C   UNL     1      30.663 -23.846 -15.031  0.00  0.00    +0.145 C 
ATOM     18  C   UNL     1      30.067 -22.620 -14.860  0.00  0.00    +0.023 C 
ATOM     19  C   UNL     1      29.998 -24.853 -15.676  0.00  0.00    +0.119 C 
ATOM     20  C   UNL     1      28.781 -22.432 -15.354  0.00  0.00    +0.022 C 
ATOM     21  C   UNL     1      28.170 -23.497 -15.996  0.00  0.00    +0.099 C 
ENDBRANCH  13  17
ENDBRANCH   1  13
BRANCH   3  22
ATOM     22  C   UNL     1      34.157 -22.292 -18.907  0.00  0.00    -0.053 C 
BRANCH  22  23
ATOM     23  N   UNL     1      32.858 -21.717 -19.356  0.00  0.00    +0.385 N 
ATOM     24  C   UNL     1      33.097 -20.528 -20.142  0.00  0.00    -0.105 C 
ATOM     25  H   UNL     1      32.294 -21.476 -18.540  0.00  0.00    -0.084 HD
ATOM     26  H   UNL     1      32.363 -22.403 -19.924  0.00  0.00    -0.084 HD
ENDBRANCH  22  23
ENDBRANCH   3  22
TORSDOF 5
ENDMDL
MODEL 2
REMARK VINA RESULT:      -8.1      8.113     10.858
REMARK  Name = 15981397
REMARK  5 active torsions:
REMARK  status: ('A' for Active; 'I' for Inactive)
REMARK    1  A    between atoms: N_1  and  S_13
REMARK    2  A    between atoms: C_2  and  C_7
REMARK    3  A    between atoms: C_3  and  C_22
REMARK    4  A    between atoms: S_13  and  C_17
REMARK    5  A    between atoms: C_22  and  N_23
REMARK                            x       y       z     vdW  Elec       q    Type
REMARK                         _______ _______ _______ _____ _____    ______ ____
ROOT
ATOM      1  N   UNL     1      33.792 -16.010 -22.605  0.00  0.00    -0.168 N 
ATOM      2  C   UNL     1      34.300 -17.226 -22.990  0.00  0.00    +0.075 C 
ATOM      3  C   UNL     1      33.917 -15.967 -24.821  0.00  0.00    -0.026 C 
ATOM      4  C   UNL     1      33.555 -15.237 -23.711  0.00  0.00    +0.082 C 
ATOM      5  C   UNL     1      34.388 -17.223 -24.367  0.00  0.00    +0.012 C 
ENDROOT
BRANCH   2   7
ATOM      6  F   UNL     1      36.964 -17.725 -22.258  0.00  0.00    -0.204 F 
ATOM      7  C   UNL     1      34.658 -18.274 -22.064  0.00  0.00    +0.043 C 
ATOM      8  C   UNL     1      35.995 -18.487 -21.729  0.00  0.00    +0.141 C 
ATOM      9  C   UNL     1      33.662 -19.074 -21.505  0.00  0.00    +0.004 C 
ATOM     10  C   UNL     1      36.336 -19.500 -20.834  0.00  0.00    +0.030 C 
ATOM     11  C   UNL     1      34.003 -20.087 -20.610  0.00  0.00    +0.000 C 
ATOM     12  C   UNL     1      35.340 -20.301 -20.274  0.00  0.00    +0.002 C 
ENDBRANCH   2   7
BRANCH   1  13
ATOM     13  S   UNL     1      33.494 -15.514 -21.042  0.00  0.00    +0.082 S 
ATOM     14  O   UNL     1      34.811 -15.360 -20.424  0.00  0.00    -0.149 OA
ATOM     15  O   UNL     1      32.491 -16.407 -20.456  0.00  0.00    -0.149 OA
BRANCH  13  17
ATOM     16  N   UNL     1      31.930 -12.126 -22.505  0.00  0.00    -0.241 NA
ATOM     17  C   UNL     1      32.733 -13.915 -21.140  0.00  0.00    +0.145 C 
ATOM     18  C   UNL     1      32.374 -13.257 -19.988  0.00  0.00    +0.023 C 
ATOM     19  C   UNL     1      32.506 -13.341 -22.361  0.00  0.00    +0.119 C 
ATOM     20  C   UNL     1      31.779 -12.005 -20.095  0.00  0.00    +0.022 C 
ATOM     21  C   UNL     1      31.581 -11.488 -21.366  0.00  0.00    +0.099 C 
ENDBRANCH  13  17
ENDBRANCH   1  13
BRANCH   3  22
ATOM     22  C   UNL     1      33.831 -15.521 -26.225  0.00  0.00    -0.053 C 
BRANCH  22  23
ATOM     23  N   UNL     1      32.661 -14.639 -26.491  0.00  0.00    +0.385 N 
ATOM     24  C   UNL     1      33.117 -13.362 -26.991  0.00  0.00    -0.105 C 
ATOM     25  H   UNL     1      32.140 -14.498 -25.626  0.00  0.00    -0.084 HD
ATOM     26  H   UNL     1      32.058 -15.078 -27.186  0.00  0.00    -0.084 HD
ENDBRANCH  22  23
ENDBRANCH   3  22
TORSDOF 5
ENDMDL
MODEL 3
REMARK VINA RESULT:      -7.9      2.737      6.137
REMARK  Name = 15981397
REMARK  5 active torsions:
REMARK  status: ('A' for Active; 'I' for Inactive)
REMARK    1  A    between atoms: N_1  and  S_13
REMARK    2  A    between atoms: C_2  and  C_7
REMARK    3  A    between atoms: C_3  and  C_22
REMARK    4  A    between atoms: S_13  and  C_17
REMARK    5  A    between atoms: C_22  and  N_23
REMARK                            x       y       z     vdW  Elec       q    Type
REMARK                         _______ _______ _______ _____ _____    ______ ____
ROOT
ATOM      1  N   UNL     1      34.069 -23.158 -16.628  0.00  0.00    -0.168 N 
ATOM      2  C   UNL     1      33.415 -23.449 -15.456  0.00  0.00    +0.075 C 
ATOM      3  C   UNL     1      35.618 -23.210 -15.038  0.00  0.00    -0.026 C 
ATOM      4  C   UNL     1      35.409 -23.011 -16.385  0.00  0.00    +0.082 C 
ATOM      5  C   UNL     1      34.359 -23.487 -14.451  0.00  0.00    +0.012 C 
ENDROOT
BRANCH   2   7
ATOM      6  F   UNL     1      31.691 -21.558 -14.301  0.00  0.00    -0.204 F 
ATOM      7  C   UNL     1      31.990 -23.664 -15.366  0.00  0.00    +0.043 C 
ATOM      8  C   UNL     1      31.171 -22.697 -14.783  0.00  0.00    +0.141 C 
ATOM      9  C   UNL     1      31.435 -24.841 -15.864  0.00  0.00    +0.004 C 
ATOM     10  C   UNL     1      29.795 -22.908 -14.699  0.00  0.00    +0.030 C 
ATOM     11  C   UNL     1      30.059 -25.053 -15.779  0.00  0.00    +0.000 C 
ATOM     12  C   UNL     1      29.239 -24.087 -15.197  0.00  0.00    +0.002 C 
ENDBRANCH   2   7
BRANCH   1  13
ATOM     13  S   UNL     1      33.374 -23.000 -18.135  0.00  0.00    +0.082 S 
ATOM     14  O   UNL     1      32.052 -22.422 -17.895  0.00  0.00    -0.149 OA
ATOM     15  O   UNL     1      33.517 -24.273 -18.846  0.00  0.00    -0.149 OA
BRANCH  13  17
ATOM     16  N   UNL     1      36.500 -20.916 -19.529  0.00  0.00    -0.241 NA
ATOM     17  C   UNL     1      34.345 -21.819 -19.034  0.00  0.00    +0.145 C 
ATOM     18  C   UNL     1      33.729 -20.938 -19.889  0.00  0.00    +0.023 C 
ATOM     19  C   UNL     1      35.704 -21.790 -18.874  0.00  0.00    +0.119 C 
ATOM     20  C   UNL     1      34.515 -20.024 -20.581  0.00  0.00    +0.022 C 
ATOM     21  C   UNL     1      35.884 -20.053 -20.368  0.00  0.00    +0.099 C 
ENDBRANCH  13  17
ENDBRANCH   1  13
BRANCH   3  22
ATOM     22  C   UNL     1      36.915 -23.146 -14.337  0.00  0.00    -0.053 C 
BRANCH  22  23
ATOM     23  N   UNL     1      37.935 -24.074 -14.902  0.00  0.00    +0.385 N 
ATOM     24  C   UNL     1      37.573 -25.439 -14.598  0.00  0.00    -0.105 C 
ATOM     25  H   UNL     1      38.845 -23.865 -14.492  0.00  0.00    -0.084 HD
ATOM     26  H   UNL     1      37.979 -23.953 -15.913  0.00  0.00    -0.084 HD
ENDBRANCH  22  23
ENDBRANCH   3  22
TORSDOF 5
ENDMDL
MODEL 4
REMARK VINA RESULT:      -7.8      8.151     10.757
REMARK  Name = 15981397
REMARK  5 active torsions:
REMARK  status: ('A' for Active; 'I' for Inactive)
REMARK    1  A    between atoms: N_1  and  S_13
REMARK    2  A    between atoms: C_2  and  C_7
REMARK    3  A    between atoms: C_3  and  C_22
REMARK    4  A    between atoms: S_13  and  C_17
REMARK    5  A    between atoms: C_22  and  N_23
REMARK                            x       y       z     vdW  Elec       q    Type
REMARK                         _______ _______ _______ _____ _____    ______ ____
ROOT
ATOM      1  N   UNL     1      33.895 -16.120 -22.626  0.00  0.00    -0.168 N 
ATOM      2  C   UNL     1      34.520 -17.278 -23.015  0.00  0.00    +0.075 C 
ATOM      3  C   UNL     1      33.949 -16.091 -24.845  0.00  0.00    -0.026 C 
ATOM      4  C   UNL     1      33.544 -15.390 -23.731  0.00  0.00    +0.082 C 
ATOM      5  C   UNL     1      34.566 -17.284 -24.394  0.00  0.00    +0.012 C 
ENDROOT
BRANCH   2   7
ATOM      6  F   UNL     1      32.856 -19.248 -21.903  0.00  0.00    -0.204 F 
ATOM      7  C   UNL     1      35.017 -18.270 -22.091  0.00  0.00    +0.043 C 
ATOM      8  C   UNL     1      34.154 -19.230 -21.563  0.00  0.00    +0.141 C 
ATOM      9  C   UNL     1      36.362 -18.267 -21.728  0.00  0.00    +0.004 C 
ATOM     10  C   UNL     1      34.637 -20.188 -20.671  0.00  0.00    +0.030 C 
ATOM     11  C   UNL     1      36.847 -19.224 -20.836  0.00  0.00    +0.000 C 
ATOM     12  C   UNL     1      35.984 -20.184 -20.308  0.00  0.00    +0.002 C 
ENDBRANCH   2   7
BRANCH   1  13
ATOM     13  S   UNL     1      33.593 -15.639 -21.059  0.00  0.00    +0.082 S 
ATOM     14  O   UNL     1      34.907 -15.473 -20.441  0.00  0.00    -0.149 OA
ATOM     15  O   UNL     1      32.602 -16.549 -20.479  0.00  0.00    -0.149 OA
BRANCH  13  17
ATOM     16  N   UNL     1      31.832 -12.201 -19.989  0.00  0.00    -0.241 NA
ATOM     17  C   UNL     1      32.811 -14.049 -21.144  0.00  0.00    +0.145 C 
ATOM     18  C   UNL     1      32.590 -13.461 -22.366  0.00  0.00    +0.023 C 
ATOM     19  C   UNL     1      32.432 -13.413 -19.993  0.00  0.00    +0.119 C 
ATOM     20  C   UNL     1      31.976 -12.214 -22.402  0.00  0.00    +0.022 C 
ATOM     21  C   UNL     1      31.619 -11.631 -21.196  0.00  0.00    +0.099 C 
ENDBRANCH  13  17
ENDBRANCH   1  13
BRANCH   3  22
ATOM     22  C   UNL     1      33.773 -15.675 -26.250  0.00  0.00    -0.053 C 
BRANCH  22  23
ATOM     23  N   UNL     1      32.626 -14.746 -26.449  0.00  0.00    +0.385 N 
ATOM     24  C   UNL     1      33.102 -13.494 -26.993  0.00  0.00    -0.105 C 
ATOM     25  H   UNL     1      32.171 -14.574 -25.552  0.00  0.00    -0.084 HD
ATOM     26  H   UNL     1      31.960 -15.165 -27.097  0.00  0.00    -0.084 HD
ENDBRANCH  22  23
ENDBRANCH   3  22
TORSDOF 5
ENDMDL
MODEL 5
REMARK VINA RESULT:      -7.6      2.655      5.096
REMARK  Name = 15981397
REMARK  5 active torsions:
REMARK  status: ('A' for Active; 'I' for Inactive)
REMARK    1  A    between atoms: N_1  and  S_13
REMARK    2  A    between atoms: C_2  and  C_7
REMARK    3  A    between atoms: C_3  and  C_22
REMARK    4  A    between atoms: S_13  and  C_17
REMARK    5  A    between atoms: C_22  and  N_23
REMARK                            x       y       z     vdW  Elec       q    Type
REMARK                         _______ _______ _______ _____ _____    ______ ____
ROOT
ATOM      1  N   UNL     1      33.353 -22.981 -17.340  0.00  0.00    -0.168 N 
ATOM      2  C   UNL     1      33.615 -23.376 -16.052  0.00  0.00    +0.075 C 
ATOM      3  C   UNL     1      31.435 -22.827 -16.232  0.00  0.00    -0.026 C 
ATOM      4  C   UNL     1      32.030 -22.645 -17.461  0.00  0.00    +0.082 C 
ATOM      5  C   UNL     1      32.435 -23.288 -15.341  0.00  0.00    +0.012 C 
ENDROOT
BRANCH   2   7
ATOM      6  F   UNL     1      35.584 -21.536 -15.262  0.00  0.00    -0.204 F 
ATOM      7  C   UNL     1      34.917 -23.796 -15.591  0.00  0.00    +0.043 C 
ATOM      8  C   UNL     1      35.865 -22.847 -15.209  0.00  0.00    +0.141 C 
ATOM      9  C   UNL     1      35.225 -25.154 -15.529  0.00  0.00    +0.004 C 
ATOM     10  C   UNL     1      37.122 -23.257 -14.764  0.00  0.00    +0.030 C 
ATOM     11  C   UNL     1      36.482 -25.564 -15.085  0.00  0.00    +0.000 C 
ATOM     12  C   UNL     1      37.430 -24.616 -14.702  0.00  0.00    +0.002 C 
ENDBRANCH   2   7
BRANCH   1  13
ATOM     13  S   UNL     1      34.449 -22.910 -18.594  0.00  0.00    +0.082 S 
ATOM     14  O   UNL     1      34.140 -24.055 -19.448  0.00  0.00    -0.149 OA
ATOM     15  O   UNL     1      35.789 -22.738 -18.027  0.00  0.00    -0.149 OA
BRANCH  13  17
ATOM     16  N   UNL     1      34.942 -19.517 -20.670  0.00  0.00    -0.241 NA
ATOM     17  C   UNL     1      34.104 -21.426 -19.502  0.00  0.00    +0.145 C 
ATOM     18  C   UNL     1      32.803 -21.052 -19.732  0.00  0.00    +0.023 C 
ATOM     19  C   UNL     1      35.136 -20.659 -19.971  0.00  0.00    +0.119 C 
ATOM     20  C   UNL     1      32.563 -19.884 -20.447  0.00  0.00    +0.022 C 
ATOM     21  C   UNL     1      33.657 -19.159 -20.890  0.00  0.00    +0.099 C 
ENDBRANCH  13  17
ENDBRANCH   1  13
BRANCH   3  22
ATOM     22  C   UNL     1      30.017 -22.585 -15.904  0.00  0.00    -0.053 C 
BRANCH  22  23
ATOM     23  N   UNL     1      29.108 -22.745 -17.074  0.00  0.00    +0.385 N 
ATOM     24  C   UNL     1      28.222 -23.865 -16.853  0.00  0.00    -0.105 C 
ATOM     25  H   UNL     1      29.663 -22.913 -17.913  0.00  0.00    -0.084 HD
ATOM     26  H   UNL     1      28.557 -21.896 -17.191  0.00  0.00    -0.084 HD
ENDBRANCH  22  23
ENDBRANCH   3  22
TORSDOF 5
ENDMDL
MODEL 6
REMARK VINA RESULT:      -7.4     12.647     16.260
REMARK  Name = 15981397
REMARK  5 active torsions:
REMARK  status: ('A' for Active; 'I' for Inactive)
REMARK    1  A    between atoms: N_1  and  S_13
REMARK    2  A    between atoms: C_2  and  C_7
REMARK    3  A    between atoms: C_3  and  C_22
REMARK    4  A    between atoms: S_13  and  C_17
REMARK    5  A    between atoms: C_22  and  N_23
REMARK                            x       y       z     vdW  Elec       q    Type
REMARK                         _______ _______ _______ _____ _____    ______ ____
ROOT
ATOM      1  N   UNL     1      32.907 -10.029 -22.943  0.00  0.00    -0.168 N 
ATOM      2  C   UNL     1      33.109  -8.697 -23.204  0.00  0.00    +0.075 C 
ATOM      3  C   UNL     1      34.606  -9.917 -24.369  0.00  0.00    -0.026 C 
ATOM      4  C   UNL     1      33.812 -10.780 -23.647  0.00  0.00    +0.082 C 
ATOM      5  C   UNL     1      34.163  -8.601 -24.089  0.00  0.00    +0.012 C 
ENDROOT
BRANCH   2   7
ATOM      6  F   UNL     1      30.884  -7.595 -24.514  0.00  0.00    -0.204 F 
ATOM      7  C   UNL     1      32.321  -7.638 -22.619  0.00  0.00    +0.043 C 
ATOM      8  C   UNL     1      31.223  -7.120 -23.306  0.00  0.00    +0.141 C 
ATOM      9  C   UNL     1      32.660  -7.134 -21.364  0.00  0.00    +0.004 C 
ATOM     10  C   UNL     1      30.464  -6.098 -22.738  0.00  0.00    +0.030 C 
ATOM     11  C   UNL     1      31.901  -6.112 -20.796  0.00  0.00    +0.000 C 
ATOM     12  C   UNL     1      30.803  -5.594 -21.482  0.00  0.00    +0.002 C 
ENDBRANCH   2   7
BRANCH   1  13
ATOM     13  S   UNL     1      31.749 -10.675 -21.933  0.00  0.00    +0.082 S 
ATOM     14  O   UNL     1      30.481 -10.522 -22.645  0.00  0.00    -0.149 OA
ATOM     15  O   UNL     1      31.931 -10.103 -20.597  0.00  0.00    -0.149 OA
BRANCH  13  17
ATOM     16  N   UNL     1      32.449 -14.512 -22.855  0.00  0.00    -0.241 NA
ATOM     17  C   UNL     1      32.098 -12.407 -21.781  0.00  0.00    +0.145 C 
ATOM     18  C   UNL     1      32.278 -12.961 -20.536  0.00  0.00    +0.023 C 
ATOM     19  C   UNL     1      32.187 -13.186 -22.902  0.00  0.00    +0.119 C 
ATOM     20  C   UNL     1      32.551 -14.321 -20.447  0.00  0.00    +0.022 C 
ATOM     21  C   UNL     1      32.625 -15.047 -21.626  0.00  0.00    +0.099 C 
ENDBRANCH  13  17
ENDBRANCH   1  13
BRANCH   3  22
ATOM     22  C   UNL     1      35.713 -10.294 -25.268  0.00  0.00    -0.053 C 
BRANCH  22  23
ATOM     23  N   UNL     1      35.253 -10.738 -26.614  0.00  0.00    +0.385 N 
ATOM     24  C   UNL     1      34.339 -11.848 -26.474  0.00  0.00    -0.105 C 
ATOM     25  H   UNL     1      36.059 -11.030 -27.167  0.00  0.00    -0.084 HD
ATOM     26  H   UNL     1      34.779  -9.966 -27.080  0.00  0.00    -0.084 HD
ENDBRANCH  22  23
ENDBRANCH   3  22
TORSDOF 5
ENDMDL
MODEL 7
REMARK VINA RESULT:      -7.4      2.170      4.597
REMARK  Name = 15981397
REMARK  5 active torsions:
REMARK  status: ('A' for Active; 'I' for Inactive)
REMARK    1  A    between atoms: N_1  and  S_13
REMARK    2  A    between atoms: C_2  and  C_7
REMARK    3  A    between atoms: C_3  and  C_22
REMARK    4  A    between atoms: S_13  and  C_17
REMARK    5  A    between atoms: C_22  and  N_23
REMARK                            x       y       z     vdW  Elec       q    Type
REMARK                         _______ _______ _______ _____ _____    ______ ____
ROOT
ATOM      1  N   UNL     1      34.585 -23.352 -14.893  0.00  0.00    -0.168 N 
ATOM      2  C   UNL     1      34.764 -23.906 -13.650  0.00  0.00    +0.075 C 
ATOM      3  C   UNL     1      32.556 -23.684 -14.055  0.00  0.00    -0.026 C 
ATOM      4  C   UNL     1      33.247 -23.213 -15.150  0.00  0.00    +0.082 C 
ATOM      5  C   UNL     1      33.514 -24.121 -13.107  0.00  0.00    +0.012 C 
ENDROOT
BRANCH   2   7
ATOM      6  F   UNL     1      36.104 -26.332 -14.100  0.00  0.00    -0.204 F 
ATOM      7  C   UNL     1      36.058 -24.185 -13.076  0.00  0.00    +0.043 C 
ATOM      8  C   UNL     1      36.688 -25.405 -13.326  0.00  0.00    +0.141 C 
ATOM      9  C   UNL     1      36.679 -23.232 -12.270  0.00  0.00    +0.004 C 
ATOM     10  C   UNL     1      37.939 -25.671 -12.770  0.00  0.00    +0.030 C 
ATOM     11  C   UNL     1      37.930 -23.498 -11.713  0.00  0.00    +0.000 C 
ATOM     12  C   UNL     1      38.560 -24.717 -11.963  0.00  0.00    +0.002 C 
ENDBRANCH   2   7
BRANCH   1  13
ATOM     13  S   UNL     1      35.787 -22.906 -15.959  0.00  0.00    +0.082 S 
ATOM     14  O   UNL     1      36.587 -24.112 -16.172  0.00  0.00    -0.149 OA
ATOM     15  O   UNL     1      36.408 -21.674 -15.465  0.00  0.00    -0.149 OA
BRANCH  13  17
ATOM     16  N   UNL     1      33.049 -22.591 -18.868  0.00  0.00    -0.241 NA
ATOM     17  C   UNL     1      34.997 -22.482 -17.488  0.00  0.00    +0.145 C 
ATOM     18  C   UNL     1      35.680 -21.753 -18.431  0.00  0.00    +0.023 C 
ATOM     19  C   UNL     1      33.709 -22.881 -17.724  0.00  0.00    +0.119 C 
ATOM     20  C   UNL     1      35.034 -21.435 -19.621  0.00  0.00    +0.022 C 
ATOM     21  C   UNL     1      33.731 -21.874 -19.790  0.00  0.00    +0.099 C 
ENDBRANCH  13  17
ENDBRANCH   1  13
BRANCH   3  22
ATOM     22  C   UNL     1      31.090 -23.725 -13.898  0.00  0.00    -0.053 C 
BRANCH  22  23
ATOM     23  N   UNL     1      30.557 -25.103 -13.711  0.00  0.00    +0.385 N 
ATOM     24  C   UNL     1      29.873 -25.528 -14.910  0.00  0.00    -0.105 C 
ATOM     25  H   UNL     1      29.903 -25.109 -12.928  0.00  0.00    -0.084 HD
ATOM     26  H   UNL     1      31.328 -25.740 -13.518  0.00  0.00    -0.084 HD
ENDBRANCH  22  23
ENDBRANCH   3  22
TORSDOF 5
ENDMDL
MODEL 8
REMARK VINA RESULT:      -7.3      2.279      5.772
REMARK  Name = 15981397
REMARK  5 active torsions:
REMARK  status: ('A' for Active; 'I' for Inactive)
REMARK    1  A    between atoms: N_1  and  S_13
REMARK    2  A    between atoms: C_2  and  C_7
REMARK    3  A    between atoms: C_3  and  C_22
REMARK    4  A    between atoms: S_13  and  C_17
REMARK    5  A    between atoms: C_22  and  N_23
REMARK                            x       y       z     vdW  Elec       q    Type
REMARK                         _______ _______ _______ _____ _____    ______ ____
ROOT
ATOM      1  N   UNL     1      34.018 -23.508 -15.969  0.00  0.00    -0.168 N 
ATOM      2  C   UNL     1      32.764 -23.330 -16.497  0.00  0.00    +0.075 C 
ATOM      3  C   UNL     1      34.301 -22.582 -17.967  0.00  0.00    -0.026 C 
ATOM      4  C   UNL     1      34.961 -23.057 -16.855  0.00  0.00    +0.082 C 
ATOM      5  C   UNL     1      32.913 -22.754 -17.741  0.00  0.00    +0.012 C 
ENDROOT
BRANCH   2   7
ATOM      6  F   UNL     1      31.735 -21.833 -14.356  0.00  0.00    -0.204 F 
ATOM      7  C   UNL     1      31.547 -23.703 -15.814  0.00  0.00    +0.043 C 
ATOM      8  C   UNL     1      31.073 -22.929 -14.755  0.00  0.00    +0.141 C 
ATOM      9  C   UNL     1      30.847 -24.839 -16.217  0.00  0.00    +0.004 C 
ATOM     10  C   UNL     1      29.897 -23.292 -14.099  0.00  0.00    +0.030 C 
ATOM     11  C   UNL     1      29.671 -25.202 -15.561  0.00  0.00    +0.000 C 
ATOM     12  C   UNL     1      29.196 -24.429 -14.502  0.00  0.00    +0.002 C 
ENDBRANCH   2   7
BRANCH   1  13
ATOM     13  S   UNL     1      34.381 -24.170 -14.483  0.00  0.00    +0.082 S 
ATOM     14  O   UNL     1      33.515 -25.342 -14.356  0.00  0.00    -0.149 OA
ATOM     15  O   UNL     1      34.347 -23.101 -13.481  0.00  0.00    -0.149 OA
BRANCH  13  17
ATOM     16  N   UNL     1      38.378 -24.243 -14.211  0.00  0.00    -0.241 NA
ATOM     17  C   UNL     1      36.064 -24.724 -14.556  0.00  0.00    +0.145 C 
ATOM     18  C   UNL     1      36.346 -25.996 -14.991  0.00  0.00    +0.023 C 
ATOM     19  C   UNL     1      37.076 -23.882 -14.179  0.00  0.00    +0.119 C 
ATOM     20  C   UNL     1      37.675 -26.403 -15.038  0.00  0.00    +0.022 C 
ATOM     21  C   UNL     1      38.645 -25.497 -14.641  0.00  0.00    +0.099 C 
ENDBRANCH  13  17
ENDBRANCH   1  13
BRANCH   3  22
ATOM     22  C   UNL     1      34.925 -22.002 -19.172  0.00  0.00    -0.053 C 
BRANCH  22  23
ATOM     23  N   UNL     1      36.143 -21.198 -18.873  0.00  0.00    +0.385 N 
ATOM     24  C   UNL     1      36.568 -20.496 -20.062  0.00  0.00    -0.105 C 
ATOM     25  H   UNL     1      36.890 -21.819 -18.561  0.00  0.00    -0.084 HD
ATOM     26  H   UNL     1      35.931 -20.523 -18.139  0.00  0.00    -0.084 HD
ENDBRANCH  22  23
ENDBRANCH   3  22
TORSDOF 5
ENDMDL
MODEL 9
REMARK VINA RESULT:      -7.2      2.203      2.735
REMARK  Name = 15981397
REMARK  5 active torsions:
REMARK  status: ('A' for Active; 'I' for Inactive)
REMARK    1  A    between atoms: N_1  and  S_13
REMARK    2  A    between atoms: C_2  and  C_7
REMARK    3  A    between atoms: C_3  and  C_22
REMARK    4  A    between atoms: S_13  and  C_17
REMARK    5  A    between atoms: C_22  and  N_23
REMARK                            x       y       z     vdW  Elec       q    Type
REMARK                         _______ _______ _______ _____ _____    ______ ____
ROOT
ATOM      1  N   UNL     1      35.582 -23.257 -15.694  0.00  0.00    -0.168 N 
ATOM      2  C   UNL     1      36.934 -23.339 -15.470  0.00  0.00    +0.075 C 
ATOM      3  C   UNL     1      36.553 -21.963 -17.215  0.00  0.00    -0.026 C 
ATOM      4  C   UNL     1      35.339 -22.423 -16.753  0.00  0.00    +0.082 C 
ATOM      5  C   UNL     1      37.561 -22.542 -16.405  0.00  0.00    +0.012 C 
ENDROOT
BRANCH   2   7
ATOM      6  F   UNL     1      37.251 -22.372 -12.853  0.00  0.00    -0.204 F 
ATOM      7  C   UNL     1      37.525 -24.138 -14.423  0.00  0.00    +0.043 C 
ATOM      8  C   UNL     1      37.664 -23.617 -13.136  0.00  0.00    +0.141 C 
ATOM      9  C   UNL     1      37.958 -25.434 -14.700  0.00  0.00    +0.004 C 
ATOM     10  C   UNL     1      38.234 -24.392 -12.127  0.00  0.00    +0.030 C 
ATOM     11  C   UNL     1      38.530 -26.209 -13.692  0.00  0.00    +0.000 C 
ATOM     12  C   UNL     1      38.668 -25.689 -12.405  0.00  0.00    +0.002 C 
ENDBRANCH   2   7
BRANCH   1  13
ATOM     13  S   UNL     1      34.388 -24.037 -14.831  0.00  0.00    +0.082 S 
ATOM     14  O   UNL     1      34.517 -23.550 -13.458  0.00  0.00    -0.149 OA
ATOM     15  O   UNL     1      34.465 -25.470 -15.128  0.00  0.00    -0.149 OA
BRANCH  13  17
ATOM     16  N   UNL     1      31.505 -22.930 -17.385  0.00  0.00    -0.241 NA
ATOM     17  C   UNL     1      32.832 -23.482 -15.477  0.00  0.00    +0.145 C 
ATOM     18  C   UNL     1      31.802 -23.187 -14.618  0.00  0.00    +0.023 C 
ATOM     19  C   UNL     1      32.664 -23.348 -16.829  0.00  0.00    +0.119 C 
ATOM     20  C   UNL     1      30.594 -22.755 -15.153  0.00  0.00    +0.022 C 
ATOM     21  C   UNL     1      30.497 -22.643 -16.531  0.00  0.00    +0.099 C 
ENDBRANCH  13  17
ENDBRANCH   1  13
BRANCH   3  22
ATOM     22  C   UNL     1      36.764 -21.038 -18.345  0.00  0.00    -0.053 C 
BRANCH  22  23
ATOM     23  N   UNL     1      36.262 -21.571 -19.643  0.00  0.00    +0.385 N 
ATOM     24  C   UNL     1      35.472 -20.563 -20.311  0.00  0.00    -0.105 C 
ATOM     25  H   UNL     1      35.686 -22.395 -19.470  0.00  0.00    -0.084 HD
ATOM     26  H   UNL     1      37.055 -21.826 -20.232  0.00  0.00    -0.084 HD
ENDBRANCH  22  23
ENDBRANCH   3  22
TORSDOF 5
ENDMDL
