MODEL 1
REMARK VINA RESULT:      -7.4      0.000      0.000
REMARK  Name = 5702627
REMARK  4 active torsions:
REMARK  status: ('A' for Active; 'I' for Inactive)
REMARK    1  A    between atoms: CB_1  and  CG_3
REMARK    2  A    between atoms: CA_2  and  N_9
REMARK    3  A    between atoms: CA_2  and  C_13
REMARK    4  A    between atoms: C_13  and  O_14
REMARK                            x       y       z     vdW  Elec       q    Type
REMARK                         _______ _______ _______ _____ _____    ______ ____
ROOT
ATOM      1  CB  PHE A   1      34.663 -18.249 -22.297  0.00  0.00    +0.021 C 
ATOM      2  CA  PHE A   1      34.810 -18.392 -23.638  0.00  0.00    +0.118 C 
ENDROOT
BRANCH   1   3
ATOM      3  CG  PHE A   1      34.507 -19.335 -21.344  0.00  0.00    +0.001 C 
ATOM      4  CD1 PHE A   1      35.631 -19.991 -20.843  0.00  0.00    +0.000 C 
ATOM      5  CD2 PHE A   1      33.232 -19.721 -20.930  0.00  0.00    +0.000 C 
ATOM      6  CE1 PHE A   1      35.481 -21.033 -19.927  0.00  0.00    +0.000 C 
ATOM      7  CE2 PHE A   1      33.082 -20.762 -20.013  0.00  0.00    +0.000 C 
ATOM      8  CZ  PHE A   1      34.206 -21.418 -19.512  0.00  0.00    +0.000 C 
ENDBRANCH   1   3
BRANCH   2   9
ATOM      9  N   PHE A   1      34.858 -19.569 -24.330  0.00  0.00    -0.352 N 
ATOM     10  H1  PHE A   1      34.237 -19.726 -25.077  0.00  0.00    +0.143 HD
ATOM     11  H2  PHE A   1      35.514 -20.259 -24.081  0.00  0.00    +0.143 HD
ENDBRANCH   2   9
BRANCH   2  13
ATOM     12  OXT PHE A   1      34.504 -16.926 -25.539  0.00  0.00    -0.244 OA
ATOM     13  C   PHE A   1      34.950 -17.128 -24.419  0.00  0.00    +0.351 C 
BRANCH  13  14
ATOM     14  O   PHE A   1      35.653 -16.203 -23.719  0.00  0.00    -0.476 OA
ATOM     15  H   PHE A   1      35.330 -15.327 -23.645  0.00  0.00    +0.295 HD
ENDBRANCH  13  14
ENDBRANCH   2  13
TORSDOF 4
ENDMDL
MODEL 2
REMARK VINA RESULT:      -7.3      1.617      2.281
REMARK  Name = 5702627
REMARK  4 active torsions:
REMARK  status: ('A' for Active; 'I' for Inactive)
REMARK    1  A    between atoms: CB_1  and  CG_3
REMARK    2  A    between atoms: CA_2  and  N_9
REMARK    3  A    between atoms: CA_2  and  C_13
REMARK    4  A    between atoms: C_13  and  O_14
REMARK                            x       y       z     vdW  Elec       q    Type
REMARK                         _______ _______ _______ _____ _____    ______ ____
ROOT
ATOM      1  CB  PHE A   1      34.751 -18.697 -22.140  0.00  0.00    +0.021 C 
ATOM      2  CA  PHE A   1      34.978 -17.384 -21.887  0.00  0.00    +0.118 C 
ENDROOT
BRANCH   1   3
ATOM      3  CG  PHE A   1      34.552 -19.728 -21.134  0.00  0.00    +0.001 C 
ATOM      4  CD1 PHE A   1      33.266 -20.028 -20.686  0.00  0.00    +0.000 C 
ATOM      5  CD2 PHE A   1      35.649 -20.418 -20.618  0.00  0.00    +0.000 C 
ATOM      6  CE1 PHE A   1      33.075 -21.018 -19.723  0.00  0.00    +0.000 C 
ATOM      7  CE2 PHE A   1      35.459 -21.409 -19.654  0.00  0.00    +0.000 C 
ATOM      8  CZ  PHE A   1      34.172 -21.709 -19.206  0.00  0.00    +0.000 C 
ENDBRANCH   1   3
BRANCH   2   9
ATOM      9  N   PHE A   1      35.042 -16.790 -20.658  0.00  0.00    -0.352 N 
ATOM     10  H1  PHE A   1      34.651 -15.897 -20.522  0.00  0.00    +0.143 HD
ATOM     11  H2  PHE A   1      35.479 -17.257 -19.910  0.00  0.00    +0.143 HD
ENDBRANCH   2   9
BRANCH   2  13
ATOM     12  OXT PHE A   1      35.042 -15.293 -23.104  0.00  0.00    -0.244 OA
ATOM     13  C   PHE A   1      35.157 -16.509 -23.084  0.00  0.00    +0.351 C 
BRANCH  13  14
ATOM     14  O   PHE A   1      35.470 -17.247 -24.178  0.00  0.00    -0.476 OA
ATOM     15  H   PHE A   1      35.355 -16.887 -25.034  0.00  0.00    +0.295 HD
ENDBRANCH  13  14
ENDBRANCH   2  13
TORSDOF 4
ENDMDL
MODEL 3
REMARK VINA RESULT:      -7.0      3.698      5.311
REMARK  Name = 5702627
REMARK  4 active torsions:
REMARK  status: ('A' for Active; 'I' for Inactive)
REMARK    1  A    between atoms: CB_1  and  CG_3
REMARK    2  A    between atoms: CA_2  and  N_9
REMARK    3  A    between atoms: CA_2  and  C_13
REMARK    4  A    between atoms: C_13  and  O_14
REMARK                            x       y       z     vdW  Elec       q    Type
REMARK                         _______ _______ _______ _____ _____    ______ ____
ROOT
ATOM      1  CB  PHE A   1      34.897 -20.204 -20.741  0.00  0.00    +0.021 C 
ATOM      2  CA  PHE A   1      33.787 -20.722 -20.159  0.00  0.00    +0.118 C 
ENDROOT
BRANCH   1   3
ATOM      3  CG  PHE A   1      34.922 -19.069 -21.649  0.00  0.00    +0.001 C 
ATOM      4  CD1 PHE A   1      34.991 -17.771 -21.143  0.00  0.00    +0.000 C 
ATOM      5  CD2 PHE A   1      34.879 -19.279 -23.027  0.00  0.00    +0.000 C 
ATOM      6  CE1 PHE A   1      35.017 -16.682 -22.015  0.00  0.00    +0.000 C 
ATOM      7  CE2 PHE A   1      34.905 -18.190 -23.900  0.00  0.00    +0.000 C 
ATOM      8  CZ  PHE A   1      34.974 -16.892 -23.394  0.00  0.00    +0.000 C 
ENDBRANCH   1   3
BRANCH   2   9
ATOM      9  N   PHE A   1      32.506 -20.268 -20.301  0.00  0.00    -0.352 N 
ATOM     10  H1  PHE A   1      31.789 -20.890 -20.563  0.00  0.00    +0.143 HD
ATOM     11  H2  PHE A   1      32.301 -19.319 -20.141  0.00  0.00    +0.143 HD
ENDBRANCH   2   9
BRANCH   2  13
ATOM     12  OXT PHE A   1      35.086 -22.402 -18.999  0.00  0.00    -0.244 OA
ATOM     13  C   PHE A   1      34.006 -21.896 -19.263  0.00  0.00    +0.351 C 
BRANCH  13  14
ATOM     14  O   PHE A   1      32.828 -22.347 -18.763  0.00  0.00    -0.476 OA
ATOM     15  H   PHE A   1      32.729 -22.472 -17.840  0.00  0.00    +0.295 HD
ENDBRANCH  13  14
ENDBRANCH   2  13
TORSDOF 4
ENDMDL
MODEL 4
REMARK VINA RESULT:      -7.0      3.698      5.309
REMARK  Name = 5702627
REMARK  4 active torsions:
REMARK  status: ('A' for Active; 'I' for Inactive)
REMARK    1  A    between atoms: CB_1  and  CG_3
REMARK    2  A    between atoms: CA_2  and  N_9
REMARK    3  A    between atoms: CA_2  and  C_13
REMARK    4  A    between atoms: C_13  and  O_14
REMARK                            x       y       z     vdW  Elec       q    Type
REMARK                         _______ _______ _______ _____ _____    ______ ____
ROOT
ATOM      1  CB  PHE A   1      34.898 -20.196 -20.716  0.00  0.00    +0.021 C 
ATOM      2  CA  PHE A   1      33.778 -20.733 -20.169  0.00  0.00    +0.118 C 
ENDROOT
BRANCH   1   3
ATOM      3  CG  PHE A   1      34.933 -19.065 -21.628  0.00  0.00    +0.001 C 
ATOM      4  CD1 PHE A   1      34.889 -19.277 -23.005  0.00  0.00    +0.000 C 
ATOM      5  CD2 PHE A   1      35.009 -17.767 -21.125  0.00  0.00    +0.000 C 
ATOM      6  CE1 PHE A   1      34.921 -18.192 -23.881  0.00  0.00    +0.000 C 
ATOM      7  CE2 PHE A   1      35.041 -16.680 -21.999  0.00  0.00    +0.000 C 
ATOM      8  CZ  PHE A   1      34.997 -16.892 -23.378  0.00  0.00    +0.000 C 
ENDBRANCH   1   3
BRANCH   2   9
ATOM      9  N   PHE A   1      32.495 -20.303 -20.356  0.00  0.00    -0.352 N 
ATOM     10  H1  PHE A   1      32.101 -20.307 -21.258  0.00  0.00    +0.143 HD
ATOM     11  H2  PHE A   1      31.965 -19.990 -19.588  0.00  0.00    +0.143 HD
ENDBRANCH   2   9
BRANCH   2  13
ATOM     12  OXT PHE A   1      35.063 -22.422 -19.006  0.00  0.00    -0.244 OA
ATOM     13  C   PHE A   1      33.989 -21.898 -19.259  0.00  0.00    +0.351 C 
BRANCH  13  14
ATOM     14  O   PHE A   1      32.811 -22.318 -18.734  0.00  0.00    -0.476 OA
ATOM     15  H   PHE A   1      32.654 -23.232 -18.609  0.00  0.00    +0.295 HD
ENDBRANCH  13  14
ENDBRANCH   2  13
TORSDOF 4
ENDMDL
MODEL 5
REMARK VINA RESULT:      -6.9      3.660      5.275
REMARK  Name = 5702627
REMARK  4 active torsions:
REMARK  status: ('A' for Active; 'I' for Inactive)
REMARK    1  A    between atoms: CB_1  and  CG_3
REMARK    2  A    between atoms: CA_2  and  N_9
REMARK    3  A    between atoms: CA_2  and  C_13
REMARK    4  A    between atoms: C_13  and  O_14
REMARK                            x       y       z     vdW  Elec       q    Type
REMARK                         _______ _______ _______ _____ _____    ______ ____
ROOT
ATOM      1  CB  PHE A   1      33.990 -20.062 -20.930  0.00  0.00    +0.021 C 
ATOM      2  CA  PHE A   1      34.789 -20.730 -20.061  0.00  0.00    +0.118 C 
ENDROOT
BRANCH   1   3
ATOM      3  CG  PHE A   1      34.394 -18.932 -21.751  0.00  0.00    +0.001 C 
ATOM      4  CD1 PHE A   1      34.382 -17.643 -21.221  0.00  0.00    +0.000 C 
ATOM      5  CD2 PHE A   1      34.794 -19.140 -23.071  0.00  0.00    +0.000 C 
ATOM      6  CE1 PHE A   1      34.771 -16.560 -22.009  0.00  0.00    +0.000 C 
ATOM      7  CE2 PHE A   1      35.184 -18.057 -23.860  0.00  0.00    +0.000 C 
ATOM      8  CZ  PHE A   1      35.172 -16.767 -23.329  0.00  0.00    +0.000 C 
ENDBRANCH   1   3
BRANCH   2   9
ATOM      9  N   PHE A   1      36.110 -20.481 -19.814  0.00  0.00    -0.352 N 
ATOM     10  H1  PHE A   1      36.375 -19.667 -19.329  0.00  0.00    +0.143 HD
ATOM     11  H2  PHE A   1      36.795 -21.117 -20.122  0.00  0.00    +0.143 HD
ENDBRANCH   2   9
BRANCH   2  13
ATOM     12  OXT PHE A   1      32.966 -22.154 -19.350  0.00  0.00    -0.244 OA
ATOM     13  C   PHE A   1      34.151 -21.858 -19.320  0.00  0.00    +0.351 C 
BRANCH  13  14
ATOM     14  O   PHE A   1      35.071 -22.535 -18.588  0.00  0.00    -0.476 OA
ATOM     15  H   PHE A   1      35.108 -22.417 -17.660  0.00  0.00    +0.295 HD
ENDBRANCH  13  14
ENDBRANCH   2  13
TORSDOF 4
ENDMDL
MODEL 6
REMARK VINA RESULT:      -6.8      9.181      9.895
REMARK  Name = 5702627
REMARK  4 active torsions:
REMARK  status: ('A' for Active; 'I' for Inactive)
REMARK    1  A    between atoms: CB_1  and  CG_3
REMARK    2  A    between atoms: CA_2  and  N_9
REMARK    3  A    between atoms: CA_2  and  C_13
REMARK    4  A    between atoms: C_13  and  O_14
REMARK                            x       y       z     vdW  Elec       q    Type
REMARK                         _______ _______ _______ _____ _____    ______ ____
ROOT
ATOM      1  CB  PHE A   1      28.307 -22.484 -15.503  0.00  0.00    +0.021 C 
ATOM      2  CA  PHE A   1      27.728 -22.530 -16.729  0.00  0.00    +0.118 C 
ENDROOT
BRANCH   1   3
ATOM      3  CG  PHE A   1      29.482 -23.237 -15.096  0.00  0.00    +0.001 C 
ATOM      4  CD1 PHE A   1      30.721 -22.603 -15.005  0.00  0.00    +0.000 C 
ATOM      5  CD2 PHE A   1      29.370 -24.594 -14.795  0.00  0.00    +0.000 C 
ATOM      6  CE1 PHE A   1      31.848 -23.325 -14.613  0.00  0.00    +0.000 C 
ATOM      7  CE2 PHE A   1      30.496 -25.317 -14.402  0.00  0.00    +0.000 C 
ATOM      8  CZ  PHE A   1      31.736 -24.683 -14.311  0.00  0.00    +0.000 C 
ENDBRANCH   1   3
BRANCH   2   9
ATOM      9  N   PHE A   1      28.147 -23.268 -17.800  0.00  0.00    -0.352 N 
ATOM     10  H1  PHE A   1      28.741 -24.041 -17.663  0.00  0.00    +0.143 HD
ATOM     11  H2  PHE A   1      27.855 -23.025 -18.708  0.00  0.00    +0.143 HD
ENDBRANCH   2   9
BRANCH   2  13
ATOM     12  OXT PHE A   1      26.385 -20.806 -17.769  0.00  0.00    -0.244 OA
ATOM     13  C   PHE A   1      26.522 -21.670 -16.915  0.00  0.00    +0.351 C 
BRANCH  13  14
ATOM     14  O   PHE A   1      25.570 -21.968 -15.996  0.00  0.00    -0.476 OA
ATOM     15  H   PHE A   1      25.354 -21.349 -15.328  0.00  0.00    +0.295 HD
ENDBRANCH  13  14
ENDBRANCH   2  13
TORSDOF 4
ENDMDL
MODEL 7
REMARK VINA RESULT:      -6.8      1.901      2.448
REMARK  Name = 5702627
REMARK  4 active torsions:
REMARK  status: ('A' for Active; 'I' for Inactive)
REMARK    1  A    between atoms: CB_1  and  CG_3
REMARK    2  A    between atoms: CA_2  and  N_9
REMARK    3  A    between atoms: CA_2  and  C_13
REMARK    4  A    between atoms: C_13  and  O_14
REMARK                            x       y       z     vdW  Elec       q    Type
REMARK                         _______ _______ _______ _____ _____    ______ ____
ROOT
ATOM      1  CB  PHE A   1      34.715 -17.846 -22.227  0.00  0.00    +0.021 C 
ATOM      2  CA  PHE A   1      34.703 -16.548 -21.834  0.00  0.00    +0.118 C 
ENDROOT
BRANCH   1   3
ATOM      3  CG  PHE A   1      34.707 -18.997 -21.339  0.00  0.00    +0.001 C 
ATOM      4  CD1 PHE A   1      33.500 -19.592 -20.977  0.00  0.00    +0.000 C 
ATOM      5  CD2 PHE A   1      35.910 -19.507 -20.850  0.00  0.00    +0.000 C 
ATOM      6  CE1 PHE A   1      33.493 -20.698 -20.126  0.00  0.00    +0.000 C 
ATOM      7  CE2 PHE A   1      35.905 -20.613 -20.000  0.00  0.00    +0.000 C 
ATOM      8  CZ  PHE A   1      34.696 -21.209 -19.637  0.00  0.00    +0.000 C 
ENDBRANCH   1   3
BRANCH   2   9
ATOM      9  N   PHE A   1      34.663 -16.087 -20.548  0.00  0.00    -0.352 N 
ATOM     10  H1  PHE A   1      33.800 -16.000 -20.083  0.00  0.00    +0.143 HD
ATOM     11  H2  PHE A   1      35.498 -15.843 -20.088  0.00  0.00    +0.143 HD
ENDBRANCH   2   9
BRANCH   2  13
ATOM     12  OXT PHE A   1      34.594 -15.766 -24.122  0.00  0.00    -0.244 OA
ATOM     13  C   PHE A   1      34.718 -15.533 -22.929  0.00  0.00    +0.351 C 
BRANCH  13  14
ATOM     14  O   PHE A   1      34.892 -14.285 -22.427  0.00  0.00    -0.476 OA
ATOM     15  H   PHE A   1      34.736 -14.120 -21.518  0.00  0.00    +0.295 HD
ENDBRANCH  13  14
ENDBRANCH   2  13
TORSDOF 4
ENDMDL
MODEL 8
REMARK VINA RESULT:      -6.5      5.294      6.735
REMARK  Name = 5702627
REMARK  4 active torsions:
REMARK  status: ('A' for Active; 'I' for Inactive)
REMARK    1  A    between atoms: CB_1  and  CG_3
REMARK    2  A    between atoms: CA_2  and  N_9
REMARK    3  A    between atoms: CA_2  and  C_13
REMARK    4  A    between atoms: C_13  and  O_14
REMARK                            x       y       z     vdW  Elec       q    Type
REMARK                         _______ _______ _______ _____ _____    ______ ____
ROOT
ATOM      1  CB  PHE A   1      35.661 -22.147 -18.232  0.00  0.00    +0.021 C 
ATOM      2  CA  PHE A   1      36.619 -21.754 -17.355  0.00  0.00    +0.118 C 
ENDROOT
BRANCH   1   3
ATOM      3  CG  PHE A   1      35.097 -21.325 -19.291  0.00  0.00    +0.001 C 
ATOM      4  CD1 PHE A   1      33.714 -21.229 -19.438  0.00  0.00    +0.000 C 
ATOM      5  CD2 PHE A   1      35.941 -20.631 -20.158  0.00  0.00    +0.000 C 
ATOM      6  CE1 PHE A   1      33.173 -20.439 -20.453  0.00  0.00    +0.000 C 
ATOM      7  CE2 PHE A   1      35.401 -19.841 -21.173  0.00  0.00    +0.000 C 
ATOM      8  CZ  PHE A   1      34.017 -19.744 -21.321  0.00  0.00    +0.000 C 
ENDBRANCH   1   3
BRANCH   2   9
ATOM      9  N   PHE A   1      37.236 -20.536 -17.317  0.00  0.00    -0.352 N 
ATOM     10  H1  PHE A   1      36.813 -19.784 -16.843  0.00  0.00    +0.143 HD
ATOM     11  H2  PHE A   1      38.105 -20.411 -17.764  0.00  0.00    +0.143 HD
ENDBRANCH   2   9
BRANCH   2  13
ATOM     12  OXT PHE A   1      38.140 -22.841 -15.820  0.00  0.00    -0.244 OA
ATOM     13  C   PHE A   1      37.041 -22.772 -16.349  0.00  0.00    +0.351 C 
BRANCH  13  14
ATOM     14  O   PHE A   1      36.031 -23.637 -16.085  0.00  0.00    -0.476 OA
ATOM     15  H   PHE A   1      35.239 -23.598 -16.584  0.00  0.00    +0.295 HD
ENDBRANCH  13  14
ENDBRANCH   2  13
TORSDOF 4
ENDMDL
MODEL 9
REMARK VINA RESULT:      -6.4     11.141     11.773
REMARK  Name = 5702627
REMARK  4 active torsions:
REMARK  status: ('A' for Active; 'I' for Inactive)
REMARK    1  A    between atoms: CB_1  and  CG_3
REMARK    2  A    between atoms: CA_2  and  N_9
REMARK    3  A    between atoms: CA_2  and  C_13
REMARK    4  A    between atoms: C_13  and  O_14
REMARK                            x       y       z     vdW  Elec       q    Type
REMARK                         _______ _______ _______ _____ _____    ______ ____
ROOT
ATOM      1  CB  PHE A   1      38.958 -25.458 -13.156  0.00  0.00    +0.021 C 
ATOM      2  CA  PHE A   1      39.290 -25.322 -14.464  0.00  0.00    +0.118 C 
ENDROOT
BRANCH   1   3
ATOM      3  CG  PHE A   1      37.838 -24.806 -12.497  0.00  0.00    +0.001 C 
ATOM      4  CD1 PHE A   1      36.596 -25.438 -12.442  0.00  0.00    +0.000 C 
ATOM      5  CD2 PHE A   1      38.006 -23.548 -11.920  0.00  0.00    +0.000 C 
ATOM      6  CE1 PHE A   1      35.522 -24.813 -11.808  0.00  0.00    +0.000 C 
ATOM      7  CE2 PHE A   1      36.932 -22.922 -11.285  0.00  0.00    +0.000 C 
ATOM      8  CZ  PHE A   1      35.690 -23.554 -11.230  0.00  0.00    +0.000 C 
ENDBRANCH   1   3
BRANCH   2   9
ATOM      9  N   PHE A   1      38.631 -24.574 -15.398  0.00  0.00    -0.352 N 
ATOM     10  H1  PHE A   1      39.137 -23.992 -16.009  0.00  0.00    +0.143 HD
ATOM     11  H2  PHE A   1      37.649 -24.617 -15.458  0.00  0.00    +0.143 HD
ENDBRANCH   2   9
BRANCH   2  13
ATOM     12  OXT PHE A   1      41.263 -26.698 -14.195  0.00  0.00    -0.244 OA
ATOM     13  C   PHE A   1      40.489 -26.088 -14.917  0.00  0.00    +0.351 C 
BRANCH  13  14
ATOM     14  O   PHE A   1      40.620 -26.023 -16.265  0.00  0.00    -0.476 OA
ATOM     15  H   PHE A   1      40.107 -26.583 -16.813  0.00  0.00    +0.295 HD
ENDBRANCH  13  14
ENDBRANCH   2  13
TORSDOF 4
ENDMDL
