MODEL 1
REMARK VINA RESULT:      -7.7      0.000      0.000
REMARK  Name = 42611099
REMARK  3 active torsions:
REMARK  status: ('A' for Active; 'I' for Inactive)
REMARK    1  A    between atoms: C_10  and  O_20
REMARK    2  A    between atoms: C_10  and  C_24
REMARK    3  A    between atoms: C_19  and  O_22
REMARK                            x       y       z     vdW  Elec       q    Type
REMARK                         _______ _______ _______ _____ _____    ______ ____
ROOT
ATOM      1  C   UNL     1      34.592 -24.497 -14.265  0.00  0.00    +0.000 C 
ATOM      2  C   UNL     1      34.200 -23.360 -15.264  0.00  0.00    +0.000 C 
ATOM      3  C   UNL     1      32.742 -23.566 -15.698  0.00  0.00    +0.003 C 
ATOM      4  C   UNL     1      36.096 -24.388 -13.812  0.00  0.00    +0.000 C 
ATOM      5  C   UNL     1      31.750 -23.545 -14.515  0.00  0.00    +0.033 C 
ATOM      6  C   UNL     1      36.974 -24.401 -15.106  0.00  0.00    +0.002 C 
ATOM      7  C   UNL     1      33.579 -24.617 -13.096  0.00  0.00    +0.000 C 
ATOM      8  C   UNL     1      32.114 -24.701 -13.565  0.00  0.00    +0.003 C 
ATOM      9  C   UNL     1      35.146 -23.330 -16.474  0.00  0.00    +0.000 C 
ATOM     10  C   UNL     1      30.396 -23.658 -15.280  0.00  0.00    +0.142 C 
ATOM     11  C   UNL     1      32.131 -22.583 -16.695  0.00  0.00    +0.004 C 
ATOM     12  C   UNL     1      36.615 -23.259 -16.065  0.00  0.00    +0.000 C 
ATOM     13  C   UNL     1      36.501 -25.621 -12.957  0.00  0.00    +0.002 C 
ATOM     14  C   UNL     1      30.607 -22.725 -16.501  0.00  0.00    +0.039 C 
ATOM     15  C   UNL     1      38.482 -24.426 -14.806  0.00  0.00    +0.029 C 
ATOM     16  C   UNL     1      36.325 -23.110 -12.965  0.00  0.00    +0.000 C 
ATOM     17  C   UNL     1      31.776 -22.215 -13.704  0.00  0.00    +0.003 C 
ATOM     18  C   UNL     1      38.005 -25.699 -12.662  0.00  0.00    +0.029 C 
ATOM     19  C   UNL     1      38.860 -25.617 -13.923  0.00  0.00    +0.111 C 
ENDROOT
BRANCH  10  20
ATOM     20  O   UNL     1      29.298 -23.187 -14.510  0.00  0.00    -0.375 OA
ATOM     21  H   UNL     1      29.627 -22.765 -13.701  0.00  0.00    +0.211 HD
ENDBRANCH  10  20
BRANCH  19  22
ATOM     22  O   UNL     1      38.695 -26.830 -14.659  0.00  0.00    -0.384 OA
ATOM     23  H   UNL     1      38.863 -27.587 -14.077  0.00  0.00    +0.210 HD
ENDBRANCH  19  22
BRANCH  10  24
ATOM     24  C   UNL     1      30.084 -25.024 -15.743  0.00  0.00    -0.053 C 
ATOM     25  C   UNL     1      29.830 -26.136 -16.119  0.00  0.00    -0.012 C 
ENDBRANCH  10  24
TORSDOF 3
ENDMDL
MODEL 2
REMARK VINA RESULT:      -7.2     10.718     13.428
REMARK  Name = 42611099
REMARK  3 active torsions:
REMARK  status: ('A' for Active; 'I' for Inactive)
REMARK    1  A    between atoms: C_10  and  O_20
REMARK    2  A    between atoms: C_10  and  C_24
REMARK    3  A    between atoms: C_19  and  O_22
REMARK                            x       y       z     vdW  Elec       q    Type
REMARK                         _______ _______ _______ _____ _____    ______ ____
ROOT
ATOM      1  C   UNL     1      34.381 -14.913 -23.253  0.00  0.00    +0.000 C 
ATOM      2  C   UNL     1      33.851 -16.211 -23.945  0.00  0.00    +0.000 C 
ATOM      3  C   UNL     1      34.650 -17.411 -23.420  0.00  0.00    +0.003 C 
ATOM      4  C   UNL     1      33.647 -13.624 -23.781  0.00  0.00    +0.000 C 
ATOM      5  C   UNL     1      34.539 -17.589 -21.889  0.00  0.00    +0.033 C 
ATOM      6  C   UNL     1      33.825 -13.589 -25.333  0.00  0.00    +0.002 C 
ATOM      7  C   UNL     1      34.406 -15.048 -21.707  0.00  0.00    +0.000 C 
ATOM      8  C   UNL     1      35.111 -16.327 -21.219  0.00  0.00    +0.003 C 
ATOM      9  C   UNL     1      33.942 -16.104 -25.475  0.00  0.00    +0.000 C 
ATOM     10  C   UNL     1      35.338 -18.915 -21.700  0.00  0.00    +0.142 C 
ATOM     11  C   UNL     1      34.325 -18.801 -23.965  0.00  0.00    +0.004 C 
ATOM     12  C   UNL     1      33.267 -14.845 -26.013  0.00  0.00    +0.000 C 
ATOM     13  C   UNL     1      34.307 -12.342 -23.202  0.00  0.00    +0.002 C 
ATOM     14  C   UNL     1      34.871 -19.777 -22.903  0.00  0.00    +0.039 C 
ATOM     15  C   UNL     1      33.260 -12.309 -25.972  0.00  0.00    +0.029 C 
ATOM     16  C   UNL     1      32.153 -13.634 -23.366  0.00  0.00    +0.000 C 
ATOM     17  C   UNL     1      33.077 -17.791 -21.391  0.00  0.00    +0.003 C 
ATOM     18  C   UNL     1      33.792 -11.043 -23.837  0.00  0.00    +0.029 C 
ATOM     19  C   UNL     1      33.883 -11.053 -25.360  0.00  0.00    +0.111 C 
ENDROOT
BRANCH  10  20
ATOM     20  O   UNL     1      35.007 -19.578 -20.488  0.00  0.00    -0.375 OA
ATOM     21  H   UNL     1      35.163 -18.980 -19.739  0.00  0.00    +0.211 HD
ENDBRANCH  10  20
BRANCH  19  22
ATOM     22  O   UNL     1      35.261 -10.972 -25.729  0.00  0.00    -0.384 OA
ATOM     23  H   UNL     1      35.598 -10.085 -25.530  0.00  0.00    +0.210 HD
ENDBRANCH  19  22
BRANCH  10  24
ATOM     24  C   UNL     1      36.802 -18.742 -21.748  0.00  0.00    -0.053 C 
ATOM     25  C   UNL     1      37.994 -18.601 -21.787  0.00  0.00    -0.012 C 
ENDBRANCH  10  24
TORSDOF 3
ENDMDL
MODEL 3
REMARK VINA RESULT:      -6.1      1.334      6.599
REMARK  Name = 42611099
REMARK  3 active torsions:
REMARK  status: ('A' for Active; 'I' for Inactive)
REMARK    1  A    between atoms: C_10  and  O_20
REMARK    2  A    between atoms: C_10  and  C_24
REMARK    3  A    between atoms: C_19  and  O_22
REMARK                            x       y       z     vdW  Elec       q    Type
REMARK                         _______ _______ _______ _____ _____    ______ ____
ROOT
ATOM      1  C   UNL     1      32.879 -23.916 -14.593  0.00  0.00    +0.000 C 
ATOM      2  C   UNL     1      33.962 -23.784 -15.713  0.00  0.00    +0.000 C 
ATOM      3  C   UNL     1      35.334 -23.592 -15.053  0.00  0.00    +0.003 C 
ATOM      4  C   UNL     1      31.430 -24.061 -15.190  0.00  0.00    +0.000 C 
ATOM      5  C   UNL     1      35.728 -24.762 -14.125  0.00  0.00    +0.033 C 
ATOM      6  C   UNL     1      31.183 -22.827 -16.117  0.00  0.00    +0.002 C 
ATOM      7  C   UNL     1      33.254 -25.001 -13.549  0.00  0.00    +0.000 C 
ATOM      8  C   UNL     1      34.683 -24.848 -12.997  0.00  0.00    +0.003 C 
ATOM      9  C   UNL     1      33.635 -22.628 -16.671  0.00  0.00    +0.000 C 
ATOM     10  C   UNL     1      37.170 -24.329 -13.721  0.00  0.00    +0.142 C 
ATOM     11  C   UNL     1      36.559 -23.420 -15.950  0.00  0.00    +0.004 C 
ATOM     12  C   UNL     1      32.221 -22.724 -17.241  0.00  0.00    +0.000 C 
ATOM     13  C   UNL     1      30.364 -24.020 -14.059  0.00  0.00    +0.002 C 
ATOM     14  C   UNL     1      37.757 -23.791 -15.052  0.00  0.00    +0.039 C 
ATOM     15  C   UNL     1      29.750 -22.774 -16.674  0.00  0.00    +0.029 C 
ATOM     16  C   UNL     1      31.281 -25.402 -15.953  0.00  0.00    +0.000 C 
ATOM     17  C   UNL     1      35.785 -26.140 -14.849  0.00  0.00    +0.003 C 
ATOM     18  C   UNL     1      28.922 -23.936 -14.574  0.00  0.00    +0.029 C 
ATOM     19  C   UNL     1      28.709 -22.784 -15.552  0.00  0.00    +0.111 C 
ENDROOT
BRANCH  10  20
ATOM     20  O   UNL     1      37.956 -25.422 -13.266  0.00  0.00    -0.375 OA
ATOM     21  H   UNL     1      37.398 -26.035 -12.761  0.00  0.00    +0.211 HD
ENDBRANCH  10  20
BRANCH  19  22
ATOM     22  O   UNL     1      28.778 -21.557 -14.824  0.00  0.00    -0.384 OA
ATOM     23  H   UNL     1      29.373 -20.942 -15.282  0.00  0.00    +0.210 HD
ENDBRANCH  19  22
BRANCH  10  24
ATOM     24  C   UNL     1      37.211 -23.271 -12.693  0.00  0.00    -0.053 C 
ATOM     25  C   UNL     1      37.244 -22.411 -11.857  0.00  0.00    -0.012 C 
ENDBRANCH  10  24
TORSDOF 3
ENDMDL
MODEL 4
REMARK VINA RESULT:      -5.3      1.420      6.715
REMARK  Name = 42611099
REMARK  3 active torsions:
REMARK  status: ('A' for Active; 'I' for Inactive)
REMARK    1  A    between atoms: C_10  and  O_20
REMARK    2  A    between atoms: C_10  and  C_24
REMARK    3  A    between atoms: C_19  and  O_22
REMARK                            x       y       z     vdW  Elec       q    Type
REMARK                         _______ _______ _______ _____ _____    ______ ____
ROOT
ATOM      1  C   UNL     1      32.961 -23.915 -15.189  0.00  0.00    +0.000 C 
ATOM      2  C   UNL     1      33.408 -24.135 -13.706  0.00  0.00    +0.000 C 
ATOM      3  C   UNL     1      34.775 -24.831 -13.702  0.00  0.00    +0.003 C 
ATOM      4  C   UNL     1      31.536 -23.253 -15.280  0.00  0.00    +0.000 C 
ATOM      5  C   UNL     1      35.870 -24.020 -14.431  0.00  0.00    +0.033 C 
ATOM      6  C   UNL     1      30.545 -24.166 -14.487  0.00  0.00    +0.002 C 
ATOM      7  C   UNL     1      34.055 -23.200 -16.025  0.00  0.00    +0.000 C 
ATOM      8  C   UNL     1      35.442 -23.856 -15.901  0.00  0.00    +0.003 C 
ATOM      9  C   UNL     1      32.364 -24.946 -12.924  0.00  0.00    +0.000 C 
ATOM     10  C   UNL     1      37.116 -24.914 -14.152  0.00  0.00    +0.142 C 
ATOM     11  C   UNL     1      35.418 -25.171 -12.358  0.00  0.00    +0.004 C 
ATOM     12  C   UNL     1      30.963 -24.345 -13.022  0.00  0.00    +0.000 C 
ATOM     13  C   UNL     1      31.049 -23.202 -16.756  0.00  0.00    +0.002 C 
ATOM     14  C   UNL     1      36.920 -25.334 -12.672  0.00  0.00    +0.039 C 
ATOM     15  C   UNL     1      29.083 -23.701 -14.598  0.00  0.00    +0.029 C 
ATOM     16  C   UNL     1      31.565 -21.805 -14.726  0.00  0.00    +0.000 C 
ATOM     17  C   UNL     1      36.103 -22.604 -13.825  0.00  0.00    +0.003 C 
ATOM     18  C   UNL     1      29.584 -22.773 -16.907  0.00  0.00    +0.029 C 
ATOM     19  C   UNL     1      28.631 -23.609 -16.057  0.00  0.00    +0.111 C 
ENDROOT
BRANCH  10  20
ATOM     20  O   UNL     1      38.337 -24.197 -14.281  0.00  0.00    -0.375 OA
ATOM     21  H   UNL     1      38.147 -23.279 -14.532  0.00  0.00    +0.211 HD
ENDBRANCH  10  20
BRANCH  19  22
ATOM     22  O   UNL     1      28.559 -24.919 -16.620  0.00  0.00    -0.384 OA
ATOM     23  H   UNL     1      27.700 -25.316 -16.406  0.00  0.00    +0.210 HD
ENDBRANCH  19  22
BRANCH  10  24
ATOM     24  C   UNL     1      37.193 -26.115 -15.006  0.00  0.00    -0.053 C 
ATOM     25  C   UNL     1      37.255 -27.092 -15.701  0.00  0.00    -0.012 C 
ENDBRANCH  10  24
TORSDOF 3
ENDMDL
MODEL 5
REMARK VINA RESULT:      -4.8     14.582     17.356
REMARK  Name = 42611099
REMARK  3 active torsions:
REMARK  status: ('A' for Active; 'I' for Inactive)
REMARK    1  A    between atoms: C_10  and  O_20
REMARK    2  A    between atoms: C_10  and  C_24
REMARK    3  A    between atoms: C_19  and  O_22
REMARK                            x       y       z     vdW  Elec       q    Type
REMARK                         _______ _______ _______ _____ _____    ______ ____
ROOT
ATOM      1  C   UNL     1      33.014  -9.841 -23.859  0.00  0.00    +0.000 C 
ATOM      2  C   UNL     1      32.488 -10.779 -22.723  0.00  0.00    +0.000 C 
ATOM      3  C   UNL     1      32.475 -12.223 -23.242  0.00  0.00    +0.003 C 
ATOM      4  C   UNL     1      33.005  -8.328 -23.423  0.00  0.00    +0.000 C 
ATOM      5  C   UNL     1      33.870 -12.719 -23.683  0.00  0.00    +0.033 C 
ATOM      6  C   UNL     1      31.545  -7.977 -22.987  0.00  0.00    +0.002 C 
ATOM      7  C   UNL     1      34.367 -10.333 -24.437  0.00  0.00    +0.000 C 
ATOM      8  C   UNL     1      34.354 -11.820 -24.836  0.00  0.00    +0.003 C 
ATOM      9  C   UNL     1      31.095 -10.344 -22.243  0.00  0.00    +0.000 C 
ATOM     10  C   UNL     1      33.544 -14.204 -24.032  0.00  0.00    +0.142 C 
ATOM     11  C   UNL     1      31.980 -13.329 -22.312  0.00  0.00    +0.004 C 
ATOM     12  C   UNL     1      31.047  -8.871 -21.845  0.00  0.00    +0.000 C 
ATOM     13  C   UNL     1      33.371  -7.410 -24.623  0.00  0.00    +0.002 C 
ATOM     14  C   UNL     1      32.583 -14.626 -22.891  0.00  0.00    +0.039 C 
ATOM     15  C   UNL     1      31.362  -6.487 -22.652  0.00  0.00    +0.029 C 
ATOM     16  C   UNL     1      34.029  -8.077 -22.287  0.00  0.00    +0.000 C 
ATOM     17  C   UNL     1      34.934 -12.677 -22.546  0.00  0.00    +0.003 C 
ATOM     18  C   UNL     1      33.172  -5.916 -24.339  0.00  0.00    +0.029 C 
ATOM     19  C   UNL     1      31.772  -5.593 -23.824  0.00  0.00    +0.111 C 
ENDROOT
BRANCH  10  20
ATOM     20  O   UNL     1      34.699 -15.032 -24.007  0.00  0.00    -0.375 OA
ATOM     21  H   UNL     1      34.668 -15.607 -23.226  0.00  0.00    +0.211 HD
ENDBRANCH  10  20
BRANCH  19  22
ATOM     22  O   UNL     1      30.847  -5.760 -24.900  0.00  0.00    -0.384 OA
ATOM     23  H   UNL     1      30.561  -4.890 -25.218  0.00  0.00    +0.210 HD
ENDBRANCH  19  22
BRANCH  10  24
ATOM     24  C   UNL     1      32.878 -14.378 -25.337  0.00  0.00    -0.053 C 
ATOM     25  C   UNL     1      32.337 -14.519 -26.399  0.00  0.00    -0.012 C 
ENDBRANCH  10  24
TORSDOF 3
ENDMDL
