MODEL 1
REMARK VINA RESULT:      -9.0      0.000      0.000
REMARK  Name = 5329
REMARK  3 active torsions:
REMARK  status: ('A' for Active; 'I' for Inactive)
REMARK    1  A    between atoms: S_1  and  N_5
REMARK    2  A    between atoms: S_1  and  C_12
REMARK    3  A    between atoms: C_15  and  N_18
REMARK                            x       y       z     vdW  Elec       q    Type
REMARK                         _______ _______ _______ _____ _____    ______ ____
ROOT
ATOM      1  S   UNL     1      33.951 -22.752 -18.594  0.00  0.00    +0.075 S 
ATOM      2  O   UNL     1      34.975 -22.701 -17.557  0.00  0.00    -0.150 OA
ATOM      3  O   UNL     1      33.853 -23.946 -19.426  0.00  0.00    -0.150 OA
ENDROOT
BRANCH   1   5
ATOM      4  O   UNL     1      32.281 -24.132 -14.773  0.00  0.00    -0.356 OA
ATOM      5  N   UNL     1      32.426 -22.438 -17.855  0.00  0.00    -0.196 N 
ATOM      6  N   UNL     1      32.997 -23.440 -15.743  0.00  0.00    -0.061 NA
ATOM      7  C   UNL     1      32.092 -23.162 -16.658  0.00  0.00    +0.189 C 
ATOM      8  C   UNL     1      30.815 -23.617 -16.373  0.00  0.00    +0.074 C 
ATOM      9  C   UNL     1      30.984 -24.231 -15.160  0.00  0.00    +0.156 C 
ATOM     10  C   UNL     1      30.079 -24.937 -14.245  0.00  0.00    +0.075 C 
ATOM     11  H   UNL     1      31.802 -21.781 -18.240  0.00  0.00    +0.175 HD
ENDBRANCH   1   5
BRANCH   1  12
ATOM     12  C   UNL     1      34.173 -21.365 -19.629  0.00  0.00    +0.125 C 
ATOM     13  C   UNL     1      35.459 -20.958 -19.985  0.00  0.00    +0.021 C 
ATOM     14  C   UNL     1      33.063 -20.662 -20.101  0.00  0.00    +0.021 C 
ATOM     15  C   UNL     1      34.527 -19.146 -21.284  0.00  0.00    +0.042 C 
ATOM     16  C   UNL     1      35.636 -19.849 -20.812  0.00  0.00    +0.015 C 
ATOM     17  C   UNL     1      33.241 -19.554 -20.928  0.00  0.00    +0.015 C 
BRANCH  15  18
ATOM     18  N   UNL     1      34.706 -18.026 -22.122  0.00  0.00    -0.357 N 
ATOM     19  H   UNL     1      33.926 -17.578 -22.519  0.00  0.00    +0.142 HD
ATOM     20  H   UNL     1      35.614 -17.692 -22.310  0.00  0.00    +0.142 HD
ENDBRANCH  15  18
ENDBRANCH   1  12
TORSDOF 3
ENDMDL
MODEL 2
REMARK VINA RESULT:      -8.8      2.363      2.797
REMARK  Name = 5329
REMARK  3 active torsions:
REMARK  status: ('A' for Active; 'I' for Inactive)
REMARK    1  A    between atoms: S_1  and  N_5
REMARK    2  A    between atoms: S_1  and  C_12
REMARK    3  A    between atoms: C_15  and  N_18
REMARK                            x       y       z     vdW  Elec       q    Type
REMARK                         _______ _______ _______ _____ _____    ______ ____
ROOT
ATOM      1  S   UNL     1      33.851 -22.591 -18.713  0.00  0.00    +0.075 S 
ATOM      2  O   UNL     1      34.131 -23.778 -19.514  0.00  0.00    -0.150 OA
ATOM      3  O   UNL     1      32.561 -22.485 -18.044  0.00  0.00    -0.150 OA
ENDROOT
BRANCH   1   5
ATOM      4  O   UNL     1      34.606 -24.726 -14.949  0.00  0.00    -0.356 OA
ATOM      5  N   UNL     1      35.118 -22.417 -17.557  0.00  0.00    -0.196 N 
ATOM      6  N   UNL     1      34.530 -24.379 -16.294  0.00  0.00    -0.061 NA
ATOM      7  C   UNL     1      35.018 -23.157 -16.328  0.00  0.00    +0.189 C 
ATOM      8  C   UNL     1      35.419 -22.655 -15.101  0.00  0.00    +0.074 C 
ATOM      9  C   UNL     1      35.138 -23.691 -14.250  0.00  0.00    +0.156 C 
ATOM     10  C   UNL     1      35.292 -23.888 -12.803  0.00  0.00    +0.075 C 
ATOM     11  H   UNL     1      35.888 -21.830 -17.734  0.00  0.00    +0.175 HD
ENDBRANCH   1   5
BRANCH   1  12
ATOM     12  C   UNL     1      34.068 -21.195 -19.738  0.00  0.00    +0.125 C 
ATOM     13  C   UNL     1      32.959 -20.470 -20.174  0.00  0.00    +0.021 C 
ATOM     14  C   UNL     1      35.352 -20.803 -20.120  0.00  0.00    +0.021 C 
ATOM     15  C   UNL     1      34.416 -18.963 -21.375  0.00  0.00    +0.042 C 
ATOM     16  C   UNL     1      33.133 -19.355 -20.992  0.00  0.00    +0.015 C 
ATOM     17  C   UNL     1      35.525 -19.688 -20.939  0.00  0.00    +0.015 C 
BRANCH  15  18
ATOM     18  N   UNL     1      34.591 -17.834 -22.202  0.00  0.00    -0.357 N 
ATOM     19  H   UNL     1      35.054 -17.922 -23.066  0.00  0.00    +0.142 HD
ATOM     20  H   UNL     1      34.250 -16.955 -21.914  0.00  0.00    +0.142 HD
ENDBRANCH  15  18
ENDBRANCH   1  12
TORSDOF 3
ENDMDL
MODEL 3
REMARK VINA RESULT:      -8.7      4.591      7.539
REMARK  Name = 5329
REMARK  3 active torsions:
REMARK  status: ('A' for Active; 'I' for Inactive)
REMARK    1  A    between atoms: S_1  and  N_5
REMARK    2  A    between atoms: S_1  and  C_12
REMARK    3  A    between atoms: C_15  and  N_18
REMARK                            x       y       z     vdW  Elec       q    Type
REMARK                         _______ _______ _______ _____ _____    ______ ____
ROOT
ATOM      1  S   UNL     1      35.459 -18.313 -21.779  0.00  0.00    +0.075 S 
ATOM      2  O   UNL     1      34.550 -18.117 -22.902  0.00  0.00    -0.150 OA
ATOM      3  O   UNL     1      36.878 -18.510 -22.051  0.00  0.00    -0.150 OA
ENDROOT
BRANCH   1   5
ATOM      4  O   UNL     1      32.183 -15.417 -21.368  0.00  0.00    -0.356 OA
ATOM      5  N   UNL     1      35.258 -16.992 -20.692  0.00  0.00    -0.196 N 
ATOM      6  N   UNL     1      32.967 -16.563 -21.293  0.00  0.00    -0.061 NA
ATOM      7  C   UNL     1      34.139 -16.111 -20.897  0.00  0.00    +0.189 C 
ATOM      8  C   UNL     1      34.199 -14.741 -20.699  0.00  0.00    +0.074 C 
ATOM      9  C   UNL     1      32.928 -14.340 -21.011  0.00  0.00    +0.156 C 
ATOM     10  C   UNL     1      32.250 -13.038 -21.034  0.00  0.00    +0.075 C 
ATOM     11  H   UNL     1      35.890 -16.844 -19.951  0.00  0.00    +0.175 HD
ENDBRANCH   1   5
BRANCH   1  12
ATOM     12  C   UNL     1      34.873 -19.671 -20.851  0.00  0.00    +0.125 C 
ATOM     13  C   UNL     1      33.501 -19.866 -20.690  0.00  0.00    +0.021 C 
ATOM     14  C   UNL     1      35.777 -20.561 -20.269  0.00  0.00    +0.021 C 
ATOM     15  C   UNL     1      33.936 -21.840 -19.367  0.00  0.00    +0.042 C 
ATOM     16  C   UNL     1      33.033 -20.950 -19.949  0.00  0.00    +0.015 C 
ATOM     17  C   UNL     1      35.308 -21.644 -19.528  0.00  0.00    +0.015 C 
BRANCH  15  18
ATOM     18  N   UNL     1      33.462 -22.937 -18.618  0.00  0.00    -0.357 N 
ATOM     19  H   UNL     1      32.910 -22.785 -17.818  0.00  0.00    +0.142 HD
ATOM     20  H   UNL     1      33.685 -23.855 -18.897  0.00  0.00    +0.142 HD
ENDBRANCH  15  18
ENDBRANCH   1  12
TORSDOF 3
ENDMDL
MODEL 4
REMARK VINA RESULT:      -8.7      4.663      8.466
REMARK  Name = 5329
REMARK  3 active torsions:
REMARK  status: ('A' for Active; 'I' for Inactive)
REMARK    1  A    between atoms: S_1  and  N_5
REMARK    2  A    between atoms: S_1  and  C_12
REMARK    3  A    between atoms: C_15  and  N_18
REMARK                            x       y       z     vdW  Elec       q    Type
REMARK                         _______ _______ _______ _____ _____    ______ ____
ROOT
ATOM      1  S   UNL     1      35.436 -18.320 -22.249  0.00  0.00    +0.075 S 
ATOM      2  O   UNL     1      34.931 -18.564 -23.595  0.00  0.00    -0.150 OA
ATOM      3  O   UNL     1      36.877 -18.286 -22.035  0.00  0.00    -0.150 OA
ENDROOT
BRANCH   1   5
ATOM      4  O   UNL     1      33.591 -14.979 -24.423  0.00  0.00    -0.356 OA
ATOM      5  N   UNL     1      34.732 -16.856 -21.673  0.00  0.00    -0.196 N 
ATOM      6  N   UNL     1      33.819 -16.201 -23.801  0.00  0.00    -0.061 NA
ATOM      7  C   UNL     1      34.343 -15.865 -22.640  0.00  0.00    +0.189 C 
ATOM      8  C   UNL     1      34.483 -14.503 -22.436  0.00  0.00    +0.074 C 
ATOM      9  C   UNL     1      33.990 -13.976 -23.600  0.00  0.00    +0.156 C 
ATOM     10  C   UNL     1      33.819 -12.607 -24.104  0.00  0.00    +0.075 C 
ATOM     11  H   UNL     1      34.599 -16.703 -20.709  0.00  0.00    +0.175 HD
ENDBRANCH   1   5
BRANCH   1  12
ATOM     12  C   UNL     1      34.741 -19.525 -21.194  0.00  0.00    +0.125 C 
ATOM     13  C   UNL     1      35.566 -20.439 -20.540  0.00  0.00    +0.021 C 
ATOM     14  C   UNL     1      33.359 -19.573 -21.005  0.00  0.00    +0.021 C 
ATOM     15  C   UNL     1      33.630 -21.450 -19.508  0.00  0.00    +0.042 C 
ATOM     16  C   UNL     1      35.011 -21.401 -19.697  0.00  0.00    +0.015 C 
ATOM     17  C   UNL     1      32.805 -20.536 -20.162  0.00  0.00    +0.015 C 
BRANCH  15  18
ATOM     18  N   UNL     1      33.069 -22.423 -18.654  0.00  0.00    -0.357 N 
ATOM     19  H   UNL     1      33.653 -22.979 -18.091  0.00  0.00    +0.142 HD
ATOM     20  H   UNL     1      32.092 -22.545 -18.624  0.00  0.00    +0.142 HD
ENDBRANCH  15  18
ENDBRANCH   1  12
TORSDOF 3
ENDMDL
MODEL 5
REMARK VINA RESULT:      -8.6      4.261      6.028
REMARK  Name = 5329
REMARK  3 active torsions:
REMARK  status: ('A' for Active; 'I' for Inactive)
REMARK    1  A    between atoms: S_1  and  N_5
REMARK    2  A    between atoms: S_1  and  C_12
REMARK    3  A    between atoms: C_15  and  N_18
REMARK                            x       y       z     vdW  Elec       q    Type
REMARK                         _______ _______ _______ _____ _____    ______ ____
ROOT
ATOM      1  S   UNL     1      35.196 -18.500 -22.929  0.00  0.00    +0.075 S 
ATOM      2  O   UNL     1      36.551 -18.253 -22.453  0.00  0.00    -0.150 OA
ATOM      3  O   UNL     1      34.966 -19.605 -23.853  0.00  0.00    -0.150 OA
ENDROOT
BRANCH   1   5
ATOM      4  O   UNL     1      35.261 -21.435 -19.662  0.00  0.00    -0.356 OA
ATOM      5  N   UNL     1      34.171 -18.675 -21.555  0.00  0.00    -0.196 N 
ATOM      6  N   UNL     1      35.531 -20.343 -20.479  0.00  0.00    -0.061 NA
ATOM      7  C   UNL     1      34.340 -19.839 -20.728  0.00  0.00    +0.189 C 
ATOM      8  C   UNL     1      33.286 -20.514 -20.134  0.00  0.00    +0.074 C 
ATOM      9  C   UNL     1      33.922 -21.526 -19.464  0.00  0.00    +0.156 C 
ATOM     10  C   UNL     1      33.458 -22.631 -18.616  0.00  0.00    +0.075 C 
ATOM     11  H   UNL     1      33.489 -17.997 -21.341  0.00  0.00    +0.175 HD
ENDBRANCH   1   5
BRANCH   1  12
ATOM     12  C   UNL     1      34.612 -17.027 -23.662  0.00  0.00    +0.125 C 
ATOM     13  C   UNL     1      34.224 -17.020 -25.001  0.00  0.00    +0.021 C 
ATOM     14  C   UNL     1      34.535 -15.856 -22.907  0.00  0.00    +0.021 C 
ATOM     15  C   UNL     1      33.680 -14.672 -24.832  0.00  0.00    +0.042 C 
ATOM     16  C   UNL     1      33.757 -15.843 -25.586  0.00  0.00    +0.015 C 
ATOM     17  C   UNL     1      34.069 -14.679 -23.493  0.00  0.00    +0.015 C 
BRANCH  15  18
ATOM     18  N   UNL     1      33.208 -13.482 -25.424  0.00  0.00    -0.357 N 
ATOM     19  H   UNL     1      33.349 -12.619 -24.974  0.00  0.00    +0.142 HD
ATOM     20  H   UNL     1      32.735 -13.516 -26.287  0.00  0.00    +0.142 HD
ENDBRANCH  15  18
ENDBRANCH   1  12
TORSDOF 3
ENDMDL
MODEL 6
REMARK VINA RESULT:      -8.5      4.365      8.233
REMARK  Name = 5329
REMARK  3 active torsions:
REMARK  status: ('A' for Active; 'I' for Inactive)
REMARK    1  A    between atoms: S_1  and  N_5
REMARK    2  A    between atoms: S_1  and  C_12
REMARK    3  A    between atoms: C_15  and  N_18
REMARK                            x       y       z     vdW  Elec       q    Type
REMARK                         _______ _______ _______ _____ _____    ______ ____
ROOT
ATOM      1  S   UNL     1      35.950 -18.622 -21.339  0.00  0.00    +0.075 S 
ATOM      2  O   UNL     1      37.392 -18.831 -21.278  0.00  0.00    -0.150 OA
ATOM      3  O   UNL     1      35.396 -17.388 -20.794  0.00  0.00    -0.150 OA
ENDROOT
BRANCH   1   5
ATOM      4  O   UNL     1      35.044 -15.612 -24.406  0.00  0.00    -0.356 OA
ATOM      5  N   UNL     1      35.453 -18.804 -22.979  0.00  0.00    -0.196 N 
ATOM      6  N   UNL     1      35.704 -16.477 -23.541  0.00  0.00    -0.061 NA
ATOM      7  C   UNL     1      35.074 -17.622 -23.706  0.00  0.00    +0.189 C 
ATOM      8  C   UNL     1      34.036 -17.590 -24.623  0.00  0.00    +0.074 C 
ATOM      9  C   UNL     1      34.053 -16.287 -25.044  0.00  0.00    +0.156 C 
ATOM     10  C   UNL     1      33.250 -15.519 -26.004  0.00  0.00    +0.075 C 
ATOM     11  H   UNL     1      35.429 -19.690 -23.406  0.00  0.00    +0.175 HD
ENDBRANCH   1   5
BRANCH   1  12
ATOM     12  C   UNL     1      35.183 -19.977 -20.549  0.00  0.00    +0.125 C 
ATOM     13  C   UNL     1      33.792 -20.085 -20.542  0.00  0.00    +0.021 C 
ATOM     14  C   UNL     1      35.961 -20.953 -19.925  0.00  0.00    +0.021 C 
ATOM     15  C   UNL     1      33.957 -22.142 -19.288  0.00  0.00    +0.042 C 
ATOM     16  C   UNL     1      33.180 -21.167 -19.912  0.00  0.00    +0.015 C 
ATOM     17  C   UNL     1      35.348 -22.035 -19.295  0.00  0.00    +0.015 C 
BRANCH  15  18
ATOM     18  N   UNL     1      33.337 -23.238 -18.651  0.00  0.00    -0.357 N 
ATOM     19  H   UNL     1      32.548 -23.094 -18.082  0.00  0.00    +0.142 HD
ATOM     20  H   UNL     1      33.696 -24.147 -18.776  0.00  0.00    +0.142 HD
ENDBRANCH  15  18
ENDBRANCH   1  12
TORSDOF 3
ENDMDL
MODEL 7
REMARK VINA RESULT:      -8.1      8.285     10.672
REMARK  Name = 5329
REMARK  3 active torsions:
REMARK  status: ('A' for Active; 'I' for Inactive)
REMARK    1  A    between atoms: S_1  and  N_5
REMARK    2  A    between atoms: S_1  and  C_12
REMARK    3  A    between atoms: C_15  and  N_18
REMARK                            x       y       z     vdW  Elec       q    Type
REMARK                         _______ _______ _______ _____ _____    ______ ____
ROOT
ATOM      1  S   UNL     1      33.204 -13.659 -23.756  0.00  0.00    +0.075 S 
ATOM      2  O   UNL     1      32.637 -14.194 -24.988  0.00  0.00    -0.150 OA
ATOM      3  O   UNL     1      34.151 -12.554 -23.841  0.00  0.00    -0.150 OA
ENDROOT
BRANCH   1   5
ATOM      4  O   UNL     1      32.242  -9.837 -21.817  0.00  0.00    -0.356 OA
ATOM      5  N   UNL     1      31.902 -13.224 -22.715  0.00  0.00    -0.196 N 
ATOM      6  N   UNL     1      32.380 -10.865 -22.743  0.00  0.00    -0.061 NA
ATOM      7  C   UNL     1      31.932 -11.924 -22.100  0.00  0.00    +0.189 C 
ATOM      8  C   UNL     1      31.501 -11.681 -20.806  0.00  0.00    +0.074 C 
ATOM      9  C   UNL     1      31.718 -10.336 -20.668  0.00  0.00    +0.156 C 
ATOM     10  C   UNL     1      31.504  -9.379 -19.576  0.00  0.00    +0.075 C 
ATOM     11  H   UNL     1      31.158 -13.846 -22.546  0.00  0.00    +0.175 HD
ENDBRANCH   1   5
BRANCH   1  12
ATOM     12  C   UNL     1      33.959 -14.980 -22.900  0.00  0.00    +0.125 C 
ATOM     13  C   UNL     1      34.554 -16.022 -23.610  0.00  0.00    +0.021 C 
ATOM     14  C   UNL     1      33.966 -14.993 -21.504  0.00  0.00    +0.021 C 
ATOM     15  C   UNL     1      35.165 -17.090 -21.531  0.00  0.00    +0.042 C 
ATOM     16  C   UNL     1      35.158 -17.077 -22.926  0.00  0.00    +0.015 C 
ATOM     17  C   UNL     1      34.569 -16.048 -20.821  0.00  0.00    +0.015 C 
BRANCH  15  18
ATOM     18  N   UNL     1      35.776 -18.157 -20.839  0.00  0.00    -0.357 N 
ATOM     19  H   UNL     1      35.543 -19.086 -21.062  0.00  0.00    +0.142 HD
ATOM     20  H   UNL     1      36.436 -17.971 -20.132  0.00  0.00    +0.142 HD
ENDBRANCH  15  18
ENDBRANCH   1  12
TORSDOF 3
ENDMDL
MODEL 8
REMARK VINA RESULT:      -8.1      4.879      7.069
REMARK  Name = 5329
REMARK  3 active torsions:
REMARK  status: ('A' for Active; 'I' for Inactive)
REMARK    1  A    between atoms: S_1  and  N_5
REMARK    2  A    between atoms: S_1  and  C_12
REMARK    3  A    between atoms: C_15  and  N_18
REMARK                            x       y       z     vdW  Elec       q    Type
REMARK                         _______ _______ _______ _____ _____    ______ ____
ROOT
ATOM      1  S   UNL     1      34.824 -24.193 -13.303  0.00  0.00    +0.075 S 
ATOM      2  O   UNL     1      34.280 -24.844 -12.116  0.00  0.00    -0.150 OA
ATOM      3  O   UNL     1      35.677 -23.023 -13.133  0.00  0.00    -0.150 OA
ENDROOT
BRANCH   1   5
ATOM      4  O   UNL     1      38.884 -25.819 -12.899  0.00  0.00    -0.356 OA
ATOM      5  N   UNL     1      35.654 -25.384 -14.231  0.00  0.00    -0.196 N 
ATOM      6  N   UNL     1      37.528 -25.560 -12.731  0.00  0.00    -0.061 NA
ATOM      7  C   UNL     1      37.049 -25.604 -13.957  0.00  0.00    +0.189 C 
ATOM      8  C   UNL     1      37.987 -25.875 -14.940  0.00  0.00    +0.074 C 
ATOM      9  C   UNL     1      39.144 -26.005 -14.219  0.00  0.00    +0.156 C 
ATOM     10  C   UNL     1      40.538 -26.292 -14.578  0.00  0.00    +0.075 C 
ATOM     11  H   UNL     1      35.188 -25.900 -14.928  0.00  0.00    +0.175 HD
ENDBRANCH   1   5
BRANCH   1  12
ATOM     12  C   UNL     1      33.483 -23.764 -14.335  0.00  0.00    +0.125 C 
ATOM     13  C   UNL     1      32.210 -23.592 -13.792  0.00  0.00    +0.021 C 
ATOM     14  C   UNL     1      33.685 -23.592 -15.705  0.00  0.00    +0.021 C 
ATOM     15  C   UNL     1      31.341 -23.078 -15.986  0.00  0.00    +0.042 C 
ATOM     16  C   UNL     1      31.140 -23.249 -14.617  0.00  0.00    +0.015 C 
ATOM     17  C   UNL     1      32.614 -23.250 -16.530  0.00  0.00    +0.015 C 
BRANCH  15  18
ATOM     18  N   UNL     1      30.258 -22.730 -16.820  0.00  0.00    -0.357 N 
ATOM     19  H   UNL     1      29.424 -23.250 -16.787  0.00  0.00    +0.142 HD
ATOM     20  H   UNL     1      30.338 -21.966 -17.437  0.00  0.00    +0.142 HD
ENDBRANCH  15  18
ENDBRANCH   1  12
TORSDOF 3
ENDMDL
MODEL 9
REMARK VINA RESULT:      -8.1      5.440      9.148
REMARK  Name = 5329
REMARK  3 active torsions:
REMARK  status: ('A' for Active; 'I' for Inactive)
REMARK    1  A    between atoms: S_1  and  N_5
REMARK    2  A    between atoms: S_1  and  C_12
REMARK    3  A    between atoms: C_15  and  N_18
REMARK                            x       y       z     vdW  Elec       q    Type
REMARK                         _______ _______ _______ _____ _____    ______ ____
ROOT
ATOM      1  S   UNL     1      34.169 -16.544 -21.518  0.00  0.00    +0.075 S 
ATOM      2  O   UNL     1      35.086 -15.655 -20.814  0.00  0.00    -0.150 OA
ATOM      3  O   UNL     1      32.735 -16.327 -21.378  0.00  0.00    -0.150 OA
ENDROOT
BRANCH   1   5
ATOM      4  O   UNL     1      33.512 -13.511 -24.626  0.00  0.00    -0.356 OA
ATOM      5  N   UNL     1      34.595 -16.536 -23.188  0.00  0.00    -0.196 N 
ATOM      6  N   UNL     1      34.019 -14.227 -23.548  0.00  0.00    -0.061 NA
ATOM      7  C   UNL     1      34.105 -15.459 -24.006  0.00  0.00    +0.189 C 
ATOM      8  C   UNL     1      33.692 -15.623 -25.318  0.00  0.00    +0.074 C 
ATOM      9  C   UNL     1      33.322 -14.354 -25.673  0.00  0.00    +0.156 C 
ATOM     10  C   UNL     1      32.787 -13.759 -26.905  0.00  0.00    +0.075 C 
ATOM     11  H   UNL     1      35.157 -17.248 -23.571  0.00  0.00    +0.175 HD
ENDBRANCH   1   5
BRANCH   1  12
ATOM     12  C   UNL     1      34.538 -18.180 -21.033  0.00  0.00    +0.125 C 
ATOM     13  C   UNL     1      35.866 -18.586 -20.899  0.00  0.00    +0.021 C 
ATOM     14  C   UNL     1      33.504 -19.082 -20.779  0.00  0.00    +0.021 C 
ATOM     15  C   UNL     1      35.126 -20.795 -20.258  0.00  0.00    +0.042 C 
ATOM     16  C   UNL     1      36.160 -19.892 -20.511  0.00  0.00    +0.015 C 
ATOM     17  C   UNL     1      33.799 -20.388 -20.391  0.00  0.00    +0.015 C 
BRANCH  15  18
ATOM     18  N   UNL     1      35.425 -22.116 -19.864  0.00  0.00    -0.357 N 
ATOM     19  H   UNL     1      36.343 -22.458 -19.945  0.00  0.00    +0.142 HD
ATOM     20  H   UNL     1      34.712 -22.696 -19.509  0.00  0.00    +0.142 HD
ENDBRANCH  15  18
ENDBRANCH   1  12
TORSDOF 3
ENDMDL
