MODEL 1
REMARK VINA RESULT:      -7.4      0.000      0.000
REMARK  Name = 68870
REMARK  9 active torsions:
REMARK  status: ('A' for Active; 'I' for Inactive)
REMARK    1  A    between atoms: C_6  and  N_20
REMARK    2  A    between atoms: N_20  and  C_23
REMARK    3  A    between atoms: C_23  and  C_24
REMARK    4  A    between atoms: C_24  and  C_25
REMARK    5  A    between atoms: C_25  and  C_26
REMARK    6  A    between atoms: C_26  and  C_27
REMARK    7  A    between atoms: C_27  and  C_28
REMARK    8  A    between atoms: C_28  and  C_30
REMARK    9  A    between atoms: C_30  and  O_31
REMARK                            x       y       z     vdW  Elec       q    Type
REMARK                         _______ _______ _______ _____ _____    ______ ____
ROOT
ATOM      1 CL   UNL     1      35.637 -20.779 -20.431  0.00  0.00    -0.082 Cl
ATOM      2  S   UNL     1      37.539 -22.333 -15.688  0.00  0.00    +0.076 S 
ATOM      3  O   UNL     1      37.573 -20.932 -15.304  0.00  0.00    -0.150 OA
ATOM      4  O   UNL     1      38.678 -22.941 -16.354  0.00  0.00    -0.150 OA
ATOM      5  N   UNL     1      37.159 -23.259 -14.290  0.00  0.00    -0.189 N 
ATOM      6  C   UNL     1      34.661 -24.060 -15.424  0.00  0.00    -0.013 C 
ATOM      7  C   UNL     1      34.999 -23.203 -16.630  0.00  0.00    -0.019 C 
ATOM      8  C   UNL     1      35.746 -25.070 -15.104  0.00  0.00    -0.023 C 
ATOM      9  C   UNL     1      36.177 -22.466 -16.826  0.00  0.00    +0.121 C 
ATOM     10  C   UNL     1      36.962 -24.671 -14.533  0.00  0.00    +0.063 C 
ATOM     11  C   UNL     1      34.021 -23.146 -17.650  0.00  0.00    -0.004 C 
ATOM     12  C   UNL     1      35.560 -26.426 -15.420  0.00  0.00    -0.005 C 
ATOM     13  C   UNL     1      36.364 -21.718 -18.004  0.00  0.00    +0.031 C 
ATOM     14  C   UNL     1      37.986 -25.604 -14.325  0.00  0.00    +0.016 C 
ATOM     15  C   UNL     1      37.912 -22.905 -13.056  0.00  0.00    +0.139 C 
ATOM     16  C   UNL     1      34.210 -22.402 -18.815  0.00  0.00    +0.011 C 
ATOM     17  C   UNL     1      36.569 -27.358 -15.180  0.00  0.00    -0.000 C 
ATOM     18  C   UNL     1      35.385 -21.689 -18.993  0.00  0.00    +0.059 C 
ATOM     19  C   UNL     1      37.783 -26.947 -14.638  0.00  0.00    +0.001 C 
ENDROOT
BRANCH   6  20
ATOM     20  N   UNL     1      34.243 -23.258 -14.264  0.00  0.00    +0.390 N 
ATOM     21  H   UNL     1      33.690 -22.464 -14.585  0.00  0.00    -0.083 HD
ATOM     22  H   UNL     1      35.074 -22.930 -13.771  0.00  0.00    -0.083 HD
BRANCH  20  23
ATOM     23  C   UNL     1      33.446 -24.063 -13.358  0.00  0.00    -0.081 C 
BRANCH  23  24
ATOM     24  C   UNL     1      32.064 -24.323 -13.957  0.00  0.00    -0.023 C 
BRANCH  24  25
ATOM     25  C   UNL     1      31.437 -23.027 -14.477  0.00  0.00    -0.002 C 
BRANCH  25  26
ATOM     26  C   UNL     1      30.853 -23.156 -15.887  0.00  0.00    +0.000 C 
BRANCH  26  27
ATOM     27  C   UNL     1      29.626 -24.064 -16.020  0.00  0.00    +0.012 C 
BRANCH  27  28
ATOM     28  C   UNL     1      28.311 -23.360 -15.693  0.00  0.00    +0.109 C 
BRANCH  28  30
ATOM     29  O   UNL     1      27.326 -21.481 -16.889  0.00  0.00    -0.250 OA
ATOM     30  C   UNL     1      27.750 -22.628 -16.891  0.00  0.00    +0.314 C 
BRANCH  30  31
ATOM     31  O   UNL     1      27.778 -23.406 -18.005  0.00  0.00    -0.480 OA
ATOM     32  H   UNL     1      28.505 -23.977 -18.160  0.00  0.00    +0.295 HD
ENDBRANCH  30  31
ENDBRANCH  28  30
ENDBRANCH  27  28
ENDBRANCH  26  27
ENDBRANCH  25  26
ENDBRANCH  24  25
ENDBRANCH  23  24
ENDBRANCH  20  23
ENDBRANCH   6  20
TORSDOF 9
ENDMDL
MODEL 2
REMARK VINA RESULT:      -7.2     11.694     14.449
REMARK  Name = 68870
REMARK  9 active torsions:
REMARK  status: ('A' for Active; 'I' for Inactive)
REMARK    1  A    between atoms: C_6  and  N_20
REMARK    2  A    between atoms: N_20  and  C_23
REMARK    3  A    between atoms: C_23  and  C_24
REMARK    4  A    between atoms: C_24  and  C_25
REMARK    5  A    between atoms: C_25  and  C_26
REMARK    6  A    between atoms: C_26  and  C_27
REMARK    7  A    between atoms: C_27  and  C_28
REMARK    8  A    between atoms: C_28  and  C_30
REMARK    9  A    between atoms: C_30  and  O_31
REMARK                            x       y       z     vdW  Elec       q    Type
REMARK                         _______ _______ _______ _____ _____    ______ ____
ROOT
ATOM      1 CL   UNL     1      35.764 -18.069 -21.564  0.00  0.00    -0.082 Cl
ATOM      2  S   UNL     1      33.665 -15.124 -25.494  0.00  0.00    +0.076 S 
ATOM      3  O   UNL     1      32.691 -16.184 -25.694  0.00  0.00    -0.150 OA
ATOM      4  O   UNL     1      34.940 -15.156 -26.187  0.00  0.00    -0.150 OA
ATOM      5  N   UNL     1      32.894 -13.623 -25.827  0.00  0.00    -0.189 N 
ATOM      6  C   UNL     1      33.142 -12.818 -23.096  0.00  0.00    -0.013 C 
ATOM      7  C   UNL     1      33.783 -14.166 -22.817  0.00  0.00    -0.019 C 
ATOM      8  C   UNL     1      33.838 -12.062 -24.211  0.00  0.00    -0.023 C 
ATOM      9  C   UNL     1      34.049 -15.174 -23.757  0.00  0.00    +0.121 C 
ATOM     10  C   UNL     1      33.697 -12.454 -25.550  0.00  0.00    +0.063 C 
ATOM     11  C   UNL     1      34.139 -14.422 -21.473  0.00  0.00    -0.004 C 
ATOM     12  C   UNL     1      34.675 -10.975 -23.909  0.00  0.00    -0.005 C 
ATOM     13  C   UNL     1      34.660 -16.378 -23.359  0.00  0.00    +0.031 C 
ATOM     14  C   UNL     1      34.416 -11.798 -26.558  0.00  0.00    +0.016 C 
ATOM     15  C   UNL     1      32.077 -13.578 -27.071  0.00  0.00    +0.139 C 
ATOM     16  C   UNL     1      34.744 -15.618 -21.083  0.00  0.00    +0.011 C 
ATOM     17  C   UNL     1      35.363 -10.303 -24.919  0.00  0.00    -0.000 C 
ATOM     18  C   UNL     1      35.006 -16.596 -22.029  0.00  0.00    +0.059 C 
ATOM     19  C   UNL     1      35.238 -10.717 -26.242  0.00  0.00    +0.001 C 
ENDROOT
BRANCH   6  20
ATOM     20  N   UNL     1      31.685 -12.913 -23.270  0.00  0.00    +0.390 N 
ATOM     21  H   UNL     1      31.369 -13.833 -22.964  0.00  0.00    -0.083 HD
ATOM     22  H   UNL     1      31.459 -12.775 -24.255  0.00  0.00    -0.083 HD
BRANCH  20  23
ATOM     23  C   UNL     1      31.017 -11.892 -22.486  0.00  0.00    -0.081 C 
BRANCH  23  24
ATOM     24  C   UNL     1      31.609 -11.834 -21.077  0.00  0.00    -0.023 C 
BRANCH  24  25
ATOM     25  C   UNL     1      30.957 -10.720 -20.253  0.00  0.00    -0.002 C 
BRANCH  25  26
ATOM     26  C   UNL     1      31.969  -9.819 -19.539  0.00  0.00    +0.000 C 
BRANCH  26  27
ATOM     27  C   UNL     1      32.055  -8.378 -20.050  0.00  0.00    +0.012 C 
BRANCH  27  28
ATOM     28  C   UNL     1      32.663  -8.263 -21.447  0.00  0.00    +0.109 C 
BRANCH  28  30
ATOM     29  O   UNL     1      30.974  -6.798 -22.412  0.00  0.00    -0.250 OA
ATOM     30  C   UNL     1      31.643  -7.820 -22.471  0.00  0.00    +0.314 C 
BRANCH  30  31
ATOM     31  O   UNL     1      31.554  -8.706 -23.498  0.00  0.00    -0.480 OA
ATOM     32  H   UNL     1      31.425  -9.617 -23.321  0.00  0.00    +0.295 HD
ENDBRANCH  30  31
ENDBRANCH  28  30
ENDBRANCH  27  28
ENDBRANCH  26  27
ENDBRANCH  25  26
ENDBRANCH  24  25
ENDBRANCH  23  24
ENDBRANCH  20  23
ENDBRANCH   6  20
TORSDOF 9
ENDMDL
MODEL 3
REMARK VINA RESULT:      -5.7      3.850      5.517
REMARK  Name = 68870
REMARK  9 active torsions:
REMARK  status: ('A' for Active; 'I' for Inactive)
REMARK    1  A    between atoms: C_6  and  N_20
REMARK    2  A    between atoms: N_20  and  C_23
REMARK    3  A    between atoms: C_23  and  C_24
REMARK    4  A    between atoms: C_24  and  C_25
REMARK    5  A    between atoms: C_25  and  C_26
REMARK    6  A    between atoms: C_26  and  C_27
REMARK    7  A    between atoms: C_27  and  C_28
REMARK    8  A    between atoms: C_28  and  C_30
REMARK    9  A    between atoms: C_30  and  O_31
REMARK                            x       y       z     vdW  Elec       q    Type
REMARK                         _______ _______ _______ _____ _____    ______ ____
ROOT
ATOM      1 CL   UNL     1      30.931 -25.345 -14.832  0.00  0.00    -0.082 Cl
ATOM      2  S   UNL     1      36.213 -26.133 -14.851  0.00  0.00    +0.076 S 
ATOM      3  O   UNL     1      36.041 -26.893 -16.078  0.00  0.00    -0.150 OA
ATOM      4  O   UNL     1      36.111 -26.788 -13.559  0.00  0.00    -0.150 OA
ATOM      5  N   UNL     1      37.725 -25.318 -14.939  0.00  0.00    -0.189 N 
ATOM      6  C   UNL     1      36.422 -22.775 -14.992  0.00  0.00    -0.013 C 
ATOM      7  C   UNL     1      35.098 -23.517 -14.957  0.00  0.00    -0.019 C 
ATOM      8  C   UNL     1      37.342 -23.169 -13.853  0.00  0.00    -0.023 C 
ATOM      9  C   UNL     1      34.923 -24.908 -14.883  0.00  0.00    +0.121 C 
ATOM     10  C   UNL     1      37.990 -24.412 -13.843  0.00  0.00    +0.063 C 
ATOM     11  C   UNL     1      33.932 -22.718 -15.006  0.00  0.00    -0.004 C 
ATOM     12  C   UNL     1      37.524 -22.303 -12.763  0.00  0.00    -0.005 C 
ATOM     13  C   UNL     1      33.630 -25.463 -14.847  0.00  0.00    +0.031 C 
ATOM     14  C   UNL     1      38.767 -24.796 -12.742  0.00  0.00    +0.016 C 
ATOM     15  C   UNL     1      38.876 -26.139 -15.404  0.00  0.00    +0.139 C 
ATOM     16  C   UNL     1      32.653 -23.274 -14.972  0.00  0.00    +0.011 C 
ATOM     17  C   UNL     1      38.325 -22.674 -11.684  0.00  0.00    -0.000 C 
ATOM     18  C   UNL     1      32.502 -24.649 -14.889  0.00  0.00    +0.059 C 
ATOM     19  C   UNL     1      38.942 -23.922 -11.671  0.00  0.00    +0.001 C 
ENDROOT
BRANCH   6  20
ATOM     20  N   UNL     1      37.064 -22.833 -16.314  0.00  0.00    +0.390 N 
ATOM     21  H   UNL     1      36.540 -23.468 -16.915  0.00  0.00    -0.083 HD
ATOM     22  H   UNL     1      38.022 -23.166 -16.204  0.00  0.00    -0.083 HD
BRANCH  20  23
ATOM     23  C   UNL     1      37.091 -21.515 -16.919  0.00  0.00    -0.081 C 
BRANCH  23  24
ATOM     24  C   UNL     1      36.638 -21.591 -18.377  0.00  0.00    -0.023 C 
BRANCH  24  25
ATOM     25  C   UNL     1      35.181 -22.053 -18.477  0.00  0.00    -0.002 C 
BRANCH  25  26
ATOM     26  C   UNL     1      34.523 -21.707 -19.816  0.00  0.00    +0.000 C 
BRANCH  26  27
ATOM     27  C   UNL     1      33.212 -20.921 -19.731  0.00  0.00    +0.012 C 
BRANCH  27  28
ATOM     28  C   UNL     1      33.124 -19.772 -20.734  0.00  0.00    +0.109 C 
BRANCH  28  30
ATOM     29  O   UNL     1      35.336 -18.771 -20.533  0.00  0.00    -0.250 OA
ATOM     30  C   UNL     1      34.491 -19.338 -21.213  0.00  0.00    +0.314 C 
BRANCH  30  31
ATOM     31  O   UNL     1      34.687 -19.662 -22.518  0.00  0.00    -0.480 OA
ATOM     32  H   UNL     1      34.307 -20.445 -22.868  0.00  0.00    +0.295 HD
ENDBRANCH  30  31
ENDBRANCH  28  30
ENDBRANCH  27  28
ENDBRANCH  26  27
ENDBRANCH  25  26
ENDBRANCH  24  25
ENDBRANCH  23  24
ENDBRANCH  20  23
ENDBRANCH   6  20
TORSDOF 9
ENDMDL
MODEL 4
REMARK VINA RESULT:      -5.3     10.938     13.906
REMARK  Name = 68870
REMARK  9 active torsions:
REMARK  status: ('A' for Active; 'I' for Inactive)
REMARK    1  A    between atoms: C_6  and  N_20
REMARK    2  A    between atoms: N_20  and  C_23
REMARK    3  A    between atoms: C_23  and  C_24
REMARK    4  A    between atoms: C_24  and  C_25
REMARK    5  A    between atoms: C_25  and  C_26
REMARK    6  A    between atoms: C_26  and  C_27
REMARK    7  A    between atoms: C_27  and  C_28
REMARK    8  A    between atoms: C_28  and  C_30
REMARK    9  A    between atoms: C_30  and  O_31
REMARK                            x       y       z     vdW  Elec       q    Type
REMARK                         _______ _______ _______ _____ _____    ______ ____
ROOT
ATOM      1 CL   UNL     1      35.353  -6.963 -24.475  0.00  0.00    -0.082 Cl
ATOM      2  S   UNL     1      31.925 -10.410 -22.263  0.00  0.00    +0.076 S 
ATOM      3  O   UNL     1      30.846  -9.599 -22.802  0.00  0.00    -0.150 OA
ATOM      4  O   UNL     1      32.484 -10.114 -20.956  0.00  0.00    -0.150 OA
ATOM      5  N   UNL     1      31.418 -12.053 -22.287  0.00  0.00    -0.189 N 
ATOM      6  C   UNL     1      33.417 -12.706 -24.222  0.00  0.00    -0.013 C 
ATOM      7  C   UNL     1      33.820 -11.242 -24.215  0.00  0.00    -0.019 C 
ATOM      8  C   UNL     1      33.427 -13.319 -22.836  0.00  0.00    -0.023 C 
ATOM      9  C   UNL     1      33.262 -10.227 -23.423  0.00  0.00    +0.121 C 
ATOM     10  C   UNL     1      32.433 -13.006 -21.898  0.00  0.00    +0.063 C 
ATOM     11  C   UNL     1      34.859 -10.875 -25.102  0.00  0.00    -0.004 C 
ATOM     12  C   UNL     1      34.467 -14.183 -22.455  0.00  0.00    -0.005 C 
ATOM     13  C   UNL     1      33.742  -8.906 -23.512  0.00  0.00    +0.031 C 
ATOM     14  C   UNL     1      32.506 -13.513 -20.594  0.00  0.00    +0.016 C 
ATOM     15  C   UNL     1      30.044 -12.313 -21.777  0.00  0.00    +0.139 C 
ATOM     16  C   UNL     1      35.330  -9.565 -25.188  0.00  0.00    +0.011 C 
ATOM     17  C   UNL     1      34.518 -14.714 -21.167  0.00  0.00    -0.000 C 
ATOM     18  C   UNL     1      34.772  -8.579 -24.389  0.00  0.00    +0.059 C 
ATOM     19  C   UNL     1      33.541 -14.375 -20.235  0.00  0.00    +0.001 C 
ENDROOT
BRANCH   6  20
ATOM     20  N   UNL     1      32.168 -12.942 -24.961  0.00  0.00    +0.390 N 
ATOM     21  H   UNL     1      31.771 -12.047 -25.246  0.00  0.00    -0.083 HD
ATOM     22  H   UNL     1      31.514 -13.439 -24.357  0.00  0.00    -0.083 HD
BRANCH  20  23
ATOM     23  C   UNL     1      32.426 -13.747 -26.140  0.00  0.00    -0.081 C 
BRANCH  23  24
ATOM     24  C   UNL     1      33.738 -14.516 -25.980  0.00  0.00    -0.023 C 
BRANCH  24  25
ATOM     25  C   UNL     1      33.480 -15.955 -25.525  0.00  0.00    -0.002 C 
BRANCH  25  26
ATOM     26  C   UNL     1      34.763 -16.744 -25.248  0.00  0.00    +0.000 C 
BRANCH  26  27
ATOM     27  C   UNL     1      34.637 -17.884 -24.232  0.00  0.00    +0.012 C 
BRANCH  27  28
ATOM     28  C   UNL     1      35.640 -17.788 -23.083  0.00  0.00    +0.109 C 
BRANCH  28  30
ATOM     29  O   UNL     1      35.383 -18.138 -20.687  0.00  0.00    -0.250 OA
ATOM     30  C   UNL     1      35.135 -18.477 -21.836  0.00  0.00    +0.314 C 
BRANCH  30  31
ATOM     31  O   UNL     1      34.346 -19.541 -22.141  0.00  0.00    -0.480 OA
ATOM     32  H   UNL     1      33.810 -19.521 -22.909  0.00  0.00    +0.295 HD
ENDBRANCH  30  31
ENDBRANCH  28  30
ENDBRANCH  27  28
ENDBRANCH  26  27
ENDBRANCH  25  26
ENDBRANCH  24  25
ENDBRANCH  23  24
ENDBRANCH  20  23
ENDBRANCH   6  20
TORSDOF 9
ENDMDL
MODEL 5
REMARK VINA RESULT:      -5.2     14.729     17.525
REMARK  Name = 68870
REMARK  9 active torsions:
REMARK  status: ('A' for Active; 'I' for Inactive)
REMARK    1  A    between atoms: C_6  and  N_20
REMARK    2  A    between atoms: N_20  and  C_23
REMARK    3  A    between atoms: C_23  and  C_24
REMARK    4  A    between atoms: C_24  and  C_25
REMARK    5  A    between atoms: C_25  and  C_26
REMARK    6  A    between atoms: C_26  and  C_27
REMARK    7  A    between atoms: C_27  and  C_28
REMARK    8  A    between atoms: C_28  and  C_30
REMARK    9  A    between atoms: C_30  and  O_31
REMARK                            x       y       z     vdW  Elec       q    Type
REMARK                         _______ _______ _______ _____ _____    ______ ____
ROOT
ATOM      1 CL   UNL     1      33.027 -13.160 -24.947  0.00  0.00    -0.082 Cl
ATOM      2  S   UNL     1      31.350  -8.234 -23.741  0.00  0.00    +0.076 S 
ATOM      3  O   UNL     1      30.793  -8.783 -22.517  0.00  0.00    -0.150 OA
ATOM      4  O   UNL     1      30.564  -8.212 -24.962  0.00  0.00    -0.150 OA
ATOM      5  N   UNL     1      31.897  -6.638 -23.409  0.00  0.00    -0.189 N 
ATOM      6  C   UNL     1      34.613  -7.407 -23.858  0.00  0.00    -0.013 C 
ATOM      7  C   UNL     1      34.111  -8.818 -24.107  0.00  0.00    -0.019 C 
ATOM      8  C   UNL     1      33.925  -6.381 -24.737  0.00  0.00    -0.023 C 
ATOM      9  C   UNL     1      32.773  -9.243 -24.092  0.00  0.00    +0.121 C 
ATOM     10  C   UNL     1      32.598  -5.997 -24.499  0.00  0.00    +0.063 C 
ATOM     11  C   UNL     1      35.099  -9.794 -24.376  0.00  0.00    -0.004 C 
ATOM     12  C   UNL     1      34.601  -5.829 -25.836  0.00  0.00    -0.005 C 
ATOM     13  C   UNL     1      32.449 -10.589 -24.351  0.00  0.00    +0.031 C 
ATOM     14  C   UNL     1      31.949  -5.114 -25.372  0.00  0.00    +0.016 C 
ATOM     15  C   UNL     1      30.955  -5.779 -22.639  0.00  0.00    +0.139 C 
ATOM     16  C   UNL     1      34.772 -11.127 -24.631  0.00  0.00    +0.011 C 
ATOM     17  C   UNL     1      33.964  -4.924 -26.684  0.00  0.00    -0.000 C 
ATOM     18  C   UNL     1      33.444 -11.524 -24.621  0.00  0.00    +0.059 C 
ATOM     19  C   UNL     1      32.638  -4.570 -26.456  0.00  0.00    +0.001 C 
ENDROOT
BRANCH   6  20
ATOM     20  N   UNL     1      34.612  -7.054 -22.430  0.00  0.00    +0.390 N 
ATOM     21  H   UNL     1      34.168  -6.145 -22.308  0.00  0.00    -0.083 HD
ATOM     22  H   UNL     1      35.576  -7.021 -22.096  0.00  0.00    -0.083 HD
BRANCH  20  23
ATOM     23  C   UNL     1      33.884  -8.049 -21.666  0.00  0.00    -0.081 C 
BRANCH  23  24
ATOM     24  C   UNL     1      33.301  -7.423 -20.399  0.00  0.00    -0.023 C 
BRANCH  24  25
ATOM     25  C   UNL     1      32.033  -8.159 -19.956  0.00  0.00    -0.002 C 
BRANCH  25  26
ATOM     26  C   UNL     1      32.317  -9.479 -19.232  0.00  0.00    +0.000 C 
BRANCH  26  27
ATOM     27  C   UNL     1      31.230 -10.552 -19.354  0.00  0.00    +0.012 C 
BRANCH  27  28
ATOM     28  C   UNL     1      31.775 -11.930 -19.727  0.00  0.00    +0.109 C 
BRANCH  28  30
ATOM     29  O   UNL     1      31.996 -13.181 -21.805  0.00  0.00    -0.250 OA
ATOM     30  C   UNL     1      31.460 -12.290 -21.162  0.00  0.00    +0.314 C 
BRANCH  30  31
ATOM     31  O   UNL     1      30.480 -11.496 -21.669  0.00  0.00    -0.480 OA
ATOM     32  H   UNL     1      30.163 -10.768 -21.172  0.00  0.00    +0.295 HD
ENDBRANCH  30  31
ENDBRANCH  28  30
ENDBRANCH  27  28
ENDBRANCH  26  27
ENDBRANCH  25  26
ENDBRANCH  24  25
ENDBRANCH  23  24
ENDBRANCH  20  23
ENDBRANCH   6  20
TORSDOF 9
ENDMDL
MODEL 6
REMARK VINA RESULT:      -5.1     10.955     13.916
REMARK  Name = 68870
REMARK  9 active torsions:
REMARK  status: ('A' for Active; 'I' for Inactive)
REMARK    1  A    between atoms: C_6  and  N_20
REMARK    2  A    between atoms: N_20  and  C_23
REMARK    3  A    between atoms: C_23  and  C_24
REMARK    4  A    between atoms: C_24  and  C_25
REMARK    5  A    between atoms: C_25  and  C_26
REMARK    6  A    between atoms: C_26  and  C_27
REMARK    7  A    between atoms: C_27  and  C_28
REMARK    8  A    between atoms: C_28  and  C_30
REMARK    9  A    between atoms: C_30  and  O_31
REMARK                            x       y       z     vdW  Elec       q    Type
REMARK                         _______ _______ _______ _____ _____    ______ ____
ROOT
ATOM      1 CL   UNL     1      30.205  -9.949 -19.704  0.00  0.00    -0.082 Cl
ATOM      2  S   UNL     1      33.554 -10.277 -23.852  0.00  0.00    +0.076 S 
ATOM      3  O   UNL     1      34.479  -9.445 -23.101  0.00  0.00    -0.150 OA
ATOM      4  O   UNL     1      32.545  -9.672 -24.703  0.00  0.00    -0.150 OA
ATOM      5  N   UNL     1      34.477 -11.384 -24.791  0.00  0.00    -0.189 N 
ATOM      6  C   UNL     1      33.470 -13.596 -23.287  0.00  0.00    -0.013 C 
ATOM      7  C   UNL     1      32.697 -12.597 -22.444  0.00  0.00    -0.019 C 
ATOM      8  C   UNL     1      33.186 -13.451 -24.769  0.00  0.00    -0.023 C 
ATOM      9  C   UNL     1      32.666 -11.204 -22.621  0.00  0.00    +0.121 C 
ATOM     10  C   UNL     1      33.697 -12.372 -25.503  0.00  0.00    +0.063 C 
ATOM     11  C   UNL     1      31.940 -13.133 -21.377  0.00  0.00    -0.004 C 
ATOM     12  C   UNL     1      32.362 -14.383 -25.422  0.00  0.00    -0.005 C 
ATOM     13  C   UNL     1      31.893 -10.394 -21.766  0.00  0.00    +0.031 C 
ATOM     14  C   UNL     1      33.353 -12.206 -26.851  0.00  0.00    +0.016 C 
ATOM     15  C   UNL     1      35.629 -10.800 -25.531  0.00  0.00    +0.139 C 
ATOM     16  C   UNL     1      31.177 -12.325 -20.533  0.00  0.00    +0.011 C 
ATOM     17  C   UNL     1      32.049 -14.234 -26.773  0.00  0.00    -0.000 C 
ATOM     18  C   UNL     1      31.152 -10.954 -20.729  0.00  0.00    +0.059 C 
ATOM     19  C   UNL     1      32.540 -13.144 -27.485  0.00  0.00    +0.001 C 
ENDROOT
BRANCH   6  20
ATOM     20  N   UNL     1      34.904 -13.614 -22.962  0.00  0.00    +0.390 N 
ATOM     21  H   UNL     1      35.230 -12.658 -22.819  0.00  0.00    -0.083 HD
ATOM     22  H   UNL     1      35.414 -14.046 -23.733  0.00  0.00    -0.083 HD
BRANCH  20  23
ATOM     23  C   UNL     1      35.136 -14.384 -21.754  0.00  0.00    -0.081 C 
BRANCH  23  24
ATOM     24  C   UNL     1      34.280 -15.650 -21.760  0.00  0.00    -0.023 C 
BRANCH  24  25
ATOM     25  C   UNL     1      34.881 -16.724 -20.850  0.00  0.00    -0.002 C 
BRANCH  25  26
ATOM     26  C   UNL     1      34.928 -18.113 -21.495  0.00  0.00    +0.000 C 
BRANCH  26  27
ATOM     27  C   UNL     1      35.736 -18.218 -22.792  0.00  0.00    +0.012 C 
BRANCH  27  28
ATOM     28  C   UNL     1      34.904 -18.663 -23.993  0.00  0.00    +0.109 C 
BRANCH  28  30
ATOM     29  O   UNL     1      33.768 -17.519 -25.819  0.00  0.00    -0.250 OA
ATOM     30  C   UNL     1      34.612 -17.516 -24.934  0.00  0.00    +0.314 C 
BRANCH  30  31
ATOM     31  O   UNL     1      35.410 -16.446 -24.674  0.00  0.00    -0.480 OA
ATOM     32  H   UNL     1      35.666 -16.256 -23.792  0.00  0.00    +0.295 HD
ENDBRANCH  30  31
ENDBRANCH  28  30
ENDBRANCH  27  28
ENDBRANCH  26  27
ENDBRANCH  25  26
ENDBRANCH  24  25
ENDBRANCH  23  24
ENDBRANCH  20  23
ENDBRANCH   6  20
TORSDOF 9
ENDMDL
MODEL 7
REMARK VINA RESULT:      -5.0     10.517     13.463
REMARK  Name = 68870
REMARK  9 active torsions:
REMARK  status: ('A' for Active; 'I' for Inactive)
REMARK    1  A    between atoms: C_6  and  N_20
REMARK    2  A    between atoms: N_20  and  C_23
REMARK    3  A    between atoms: C_23  and  C_24
REMARK    4  A    between atoms: C_24  and  C_25
REMARK    5  A    between atoms: C_25  and  C_26
REMARK    6  A    between atoms: C_26  and  C_27
REMARK    7  A    between atoms: C_27  and  C_28
REMARK    8  A    between atoms: C_28  and  C_30
REMARK    9  A    between atoms: C_30  and  O_31
REMARK                            x       y       z     vdW  Elec       q    Type
REMARK                         _______ _______ _______ _____ _____    ______ ____
ROOT
ATOM      1 CL   UNL     1      30.296 -10.111 -19.668  0.00  0.00    -0.082 Cl
ATOM      2  S   UNL     1      33.564 -10.306 -23.888  0.00  0.00    +0.076 S 
ATOM      3  O   UNL     1      34.510  -9.510 -23.124  0.00  0.00    -0.150 OA
ATOM      4  O   UNL     1      32.545  -9.661 -24.696  0.00  0.00    -0.150 OA
ATOM      5  N   UNL     1      34.460 -11.383 -24.885  0.00  0.00    -0.189 N 
ATOM      6  C   UNL     1      33.464 -13.643 -23.447  0.00  0.00    -0.013 C 
ATOM      7  C   UNL     1      32.715 -12.671 -22.553  0.00  0.00    -0.019 C 
ATOM      8  C   UNL     1      33.153 -13.440 -24.917  0.00  0.00    -0.023 C 
ATOM      9  C   UNL     1      32.691 -11.273 -22.676  0.00  0.00    +0.121 C 
ATOM     10  C   UNL     1      33.659 -12.337 -25.619  0.00  0.00    +0.063 C 
ATOM     11  C   UNL     1      31.973 -13.241 -21.493  0.00  0.00    -0.004 C 
ATOM     12  C   UNL     1      32.310 -14.340 -25.589  0.00  0.00    -0.005 C 
ATOM     13  C   UNL     1      31.942 -10.490 -21.777  0.00  0.00    +0.031 C 
ATOM     14  C   UNL     1      33.292 -12.118 -26.954  0.00  0.00    +0.016 C 
ATOM     15  C   UNL     1      35.603 -10.780 -25.624  0.00  0.00    +0.139 C 
ATOM     16  C   UNL     1      31.233 -12.461 -20.604  0.00  0.00    +0.011 C 
ATOM     17  C   UNL     1      31.973 -14.137 -26.927  0.00  0.00    -0.000 C 
ATOM     18  C   UNL     1      31.216 -11.083 -20.748  0.00  0.00    +0.059 C 
ATOM     19  C   UNL     1      32.459 -13.025 -27.608  0.00  0.00    +0.001 C 
ENDROOT
BRANCH   6  20
ATOM     20  N   UNL     1      34.903 -13.684 -23.150  0.00  0.00    +0.390 N 
ATOM     21  H   UNL     1      35.166 -12.844 -22.636  0.00  0.00    -0.083 HD
ATOM     22  H   UNL     1      35.422 -13.734 -24.028  0.00  0.00    -0.083 HD
BRANCH  20  23
ATOM     23  C   UNL     1      35.218 -14.853 -22.351  0.00  0.00    -0.081 C 
BRANCH  23  24
ATOM     24  C   UNL     1      34.756 -16.124 -23.064  0.00  0.00    -0.023 C 
BRANCH  24  25
ATOM     25  C   UNL     1      35.359 -17.370 -22.411  0.00  0.00    -0.002 C 
BRANCH  25  26
ATOM     26  C   UNL     1      34.476 -17.970 -21.312  0.00  0.00    +0.000 C 
BRANCH  26  27
ATOM     27  C   UNL     1      34.452 -19.500 -21.238  0.00  0.00    +0.012 C 
BRANCH  27  28
ATOM     28  C   UNL     1      33.190 -20.057 -20.581  0.00  0.00    +0.109 C 
BRANCH  28  30
ATOM     29  O   UNL     1      32.679 -21.996 -19.197  0.00  0.00    -0.250 OA
ATOM     30  C   UNL     1      33.500 -21.214 -19.657  0.00  0.00    +0.314 C 
BRANCH  30  31
ATOM     31  O   UNL     1      34.831 -21.295 -19.394  0.00  0.00    -0.480 OA
ATOM     32  H   UNL     1      35.446 -20.864 -19.954  0.00  0.00    +0.295 HD
ENDBRANCH  30  31
ENDBRANCH  28  30
ENDBRANCH  27  28
ENDBRANCH  26  27
ENDBRANCH  25  26
ENDBRANCH  24  25
ENDBRANCH  23  24
ENDBRANCH  20  23
ENDBRANCH   6  20
TORSDOF 9
ENDMDL
MODEL 8
REMARK VINA RESULT:      -4.8      2.822      6.287
REMARK  Name = 68870
REMARK  9 active torsions:
REMARK  status: ('A' for Active; 'I' for Inactive)
REMARK    1  A    between atoms: C_6  and  N_20
REMARK    2  A    between atoms: N_20  and  C_23
REMARK    3  A    between atoms: C_23  and  C_24
REMARK    4  A    between atoms: C_24  and  C_25
REMARK    5  A    between atoms: C_25  and  C_26
REMARK    6  A    between atoms: C_26  and  C_27
REMARK    7  A    between atoms: C_27  and  C_28
REMARK    8  A    between atoms: C_28  and  C_30
REMARK    9  A    between atoms: C_30  and  O_31
REMARK                            x       y       z     vdW  Elec       q    Type
REMARK                         _______ _______ _______ _____ _____    ______ ____
ROOT
ATOM      1 CL   UNL     1      37.465 -20.420 -18.780  0.00  0.00    -0.082 Cl
ATOM      2  S   UNL     1      33.144 -23.367 -17.702  0.00  0.00    +0.076 S 
ATOM      3  O   UNL     1      33.442 -24.142 -18.895  0.00  0.00    -0.150 OA
ATOM      4  O   UNL     1      32.320 -22.174 -17.786  0.00  0.00    -0.150 OA
ATOM      5  N   UNL     1      32.459 -24.429 -16.536  0.00  0.00    -0.189 N 
ATOM      6  C   UNL     1      34.715 -24.093 -14.814  0.00  0.00    -0.013 C 
ATOM      7  C   UNL     1      35.319 -23.192 -15.876  0.00  0.00    -0.019 C 
ATOM      8  C   UNL     1      33.327 -23.651 -14.395  0.00  0.00    -0.023 C 
ATOM      9  C   UNL     1      34.728 -22.828 -17.096  0.00  0.00    +0.121 C 
ATOM     10  C   UNL     1      32.223 -23.835 -15.239  0.00  0.00    +0.063 C 
ATOM     11  C   UNL     1      36.607 -22.677 -15.600  0.00  0.00    -0.004 C 
ATOM     12  C   UNL     1      33.135 -23.006 -13.162  0.00  0.00    -0.005 C 
ATOM     13  C   UNL     1      35.401 -21.972 -17.988  0.00  0.00    +0.031 C 
ATOM     14  C   UNL     1      30.963 -23.342 -14.874  0.00  0.00    +0.016 C 
ATOM     15  C   UNL     1      31.401 -25.346 -17.039  0.00  0.00    +0.139 C 
ATOM     16  C   UNL     1      37.270 -21.829 -16.488  0.00  0.00    +0.011 C 
ATOM     17  C   UNL     1      31.873 -22.547 -12.786  0.00  0.00    -0.000 C 
ATOM     18  C   UNL     1      36.665 -21.475 -17.683  0.00  0.00    +0.059 C 
ATOM     19  C   UNL     1      30.789 -22.710 -13.643  0.00  0.00    +0.001 C 
ENDROOT
BRANCH   6  20
ATOM     20  N   UNL     1      34.796 -25.517 -15.172  0.00  0.00    +0.390 N 
ATOM     21  H   UNL     1      34.299 -25.673 -16.049  0.00  0.00    -0.083 HD
ATOM     22  H   UNL     1      34.373 -26.072 -14.427  0.00  0.00    -0.083 HD
BRANCH  20  23
ATOM     23  C   UNL     1      36.181 -25.918 -15.329  0.00  0.00    -0.081 C 
BRANCH  23  24
ATOM     24  C   UNL     1      36.793 -26.256 -13.969  0.00  0.00    -0.023 C 
BRANCH  24  25
ATOM     25  C   UNL     1      38.094 -25.481 -13.744  0.00  0.00    -0.002 C 
BRANCH  25  26
ATOM     26  C   UNL     1      38.290 -25.029 -12.294  0.00  0.00    +0.000 C 
BRANCH  26  27
ATOM     27  C   UNL     1      37.987 -23.554 -12.009  0.00  0.00    +0.012 C 
BRANCH  27  28
ATOM     28  C   UNL     1      36.499 -23.264 -11.824  0.00  0.00    +0.109 C 
BRANCH  28  30
ATOM     29  O   UNL     1      36.079 -24.236  -9.631  0.00  0.00    -0.250 OA
ATOM     30  C   UNL     1      35.859 -24.211 -10.834  0.00  0.00    +0.314 C 
BRANCH  30  31
ATOM     31  O   UNL     1      34.981 -25.049 -11.445  0.00  0.00    -0.480 OA
ATOM     32  H   UNL     1      34.763 -24.922 -12.348  0.00  0.00    +0.295 HD
ENDBRANCH  30  31
ENDBRANCH  28  30
ENDBRANCH  27  28
ENDBRANCH  26  27
ENDBRANCH  25  26
ENDBRANCH  24  25
ENDBRANCH  23  24
ENDBRANCH  20  23
ENDBRANCH   6  20
TORSDOF 9
ENDMDL
MODEL 9
REMARK VINA RESULT:      -4.6      4.420      6.402
REMARK  Name = 68870
REMARK  9 active torsions:
REMARK  status: ('A' for Active; 'I' for Inactive)
REMARK    1  A    between atoms: C_6  and  N_20
REMARK    2  A    between atoms: N_20  and  C_23
REMARK    3  A    between atoms: C_23  and  C_24
REMARK    4  A    between atoms: C_24  and  C_25
REMARK    5  A    between atoms: C_25  and  C_26
REMARK    6  A    between atoms: C_26  and  C_27
REMARK    7  A    between atoms: C_27  and  C_28
REMARK    8  A    between atoms: C_28  and  C_30
REMARK    9  A    between atoms: C_30  and  O_31
REMARK                            x       y       z     vdW  Elec       q    Type
REMARK                         _______ _______ _______ _____ _____    ______ ____
ROOT
ATOM      1 CL   UNL     1      41.803 -27.494 -13.940  0.00  0.00    -0.082 Cl
ATOM      2  S   UNL     1      37.968 -24.323 -11.999  0.00  0.00    +0.076 S 
ATOM      3  O   UNL     1      39.009 -23.573 -11.316  0.00  0.00    -0.150 OA
ATOM      4  O   UNL     1      37.352 -25.473 -11.362  0.00  0.00    -0.150 OA
ATOM      5  N   UNL     1      36.733 -23.219 -12.459  0.00  0.00    -0.189 N 
ATOM      6  C   UNL     1      37.286 -23.656 -15.229  0.00  0.00    -0.013 C 
ATOM      7  C   UNL     1      38.400 -24.594 -14.799  0.00  0.00    -0.019 C 
ATOM      8  C   UNL     1      35.947 -24.024 -14.621  0.00  0.00    -0.023 C 
ATOM      9  C   UNL     1      38.740 -24.937 -13.480  0.00  0.00    +0.121 C 
ATOM     10  C   UNL     1      35.678 -23.791 -13.265  0.00  0.00    +0.063 C 
ATOM     11  C   UNL     1      39.166 -25.172 -15.837  0.00  0.00    -0.004 C 
ATOM     12  C   UNL     1      34.965 -24.649 -15.407  0.00  0.00    -0.005 C 
ATOM     13  C   UNL     1      39.795 -25.833 -13.225  0.00  0.00    +0.031 C 
ATOM     14  C   UNL     1      34.468 -24.217 -12.701  0.00  0.00    +0.016 C 
ATOM     15  C   UNL     1      36.306 -22.253 -11.410  0.00  0.00    +0.139 C 
ATOM     16  C   UNL     1      40.212 -26.059 -15.579  0.00  0.00    +0.011 C 
ATOM     17  C   UNL     1      33.749 -25.041 -14.850  0.00  0.00    -0.000 C 
ATOM     18  C   UNL     1      40.525 -26.391 -14.271  0.00  0.00    +0.059 C 
ATOM     19  C   UNL     1      33.502 -24.830 -13.497  0.00  0.00    +0.001 C 
ENDROOT
BRANCH   6  20
ATOM     20  N   UNL     1      37.644 -22.240 -15.050  0.00  0.00    +0.390 N 
ATOM     21  H   UNL     1      38.564 -22.178 -14.614  0.00  0.00    -0.083 HD
ATOM     22  H   UNL     1      36.944 -21.793 -14.458  0.00  0.00    -0.083 HD
BRANCH  20  23
ATOM     23  C   UNL     1      37.676 -21.565 -16.333  0.00  0.00    -0.081 C 
BRANCH  23  24
ATOM     24  C   UNL     1      36.501 -22.015 -17.200  0.00  0.00    -0.023 C 
BRANCH  24  25
ATOM     25  C   UNL     1      36.715 -21.623 -18.665  0.00  0.00    -0.002 C 
BRANCH  25  26
ATOM     26  C   UNL     1      35.441 -21.708 -19.510  0.00  0.00    +0.000 C 
BRANCH  26  27
ATOM     27  C   UNL     1      35.088 -20.452 -20.312  0.00  0.00    +0.012 C 
BRANCH  27  28
ATOM     28  C   UNL     1      36.306 -19.611 -20.691  0.00  0.00    +0.109 C 
BRANCH  28  30
ATOM     29  O   UNL     1      35.289 -17.398 -20.744  0.00  0.00    -0.250 OA
ATOM     30  C   UNL     1      35.908 -18.289 -21.309  0.00  0.00    +0.314 C 
BRANCH  30  31
ATOM     31  O   UNL     1      36.333 -18.195 -22.597  0.00  0.00    -0.480 OA
ATOM     32  H   UNL     1      35.725 -17.975 -23.275  0.00  0.00    +0.295 HD
ENDBRANCH  30  31
ENDBRANCH  28  30
ENDBRANCH  27  28
ENDBRANCH  26  27
ENDBRANCH  25  26
ENDBRANCH  24  25
ENDBRANCH  23  24
ENDBRANCH  20  23
ENDBRANCH   6  20
TORSDOF 9
ENDMDL
