MODEL 1
REMARK VINA RESULT:      -9.7      0.000      0.000
REMARK  Name = 11840968
REMARK  2 active torsions:
REMARK  status: ('A' for Active; 'I' for Inactive)
REMARK    1  A    between atoms: C_4  and  C_19
REMARK    2  A    between atoms: C_6  and  C_13
REMARK                            x       y       z     vdW  Elec       q    Type
REMARK                         _______ _______ _______ _____ _____    ______ ____
ROOT
ATOM      1  O   UNL     1      36.609 -21.402 -17.082  0.00  0.00    -0.252 OA
ATOM      2  N   UNL     1      34.771 -22.756 -16.838  0.00  0.00    -0.254 N 
ATOM      3  N   UNL     1      35.495 -22.005 -19.000  0.00  0.00    -0.261 N 
ATOM      4  C   UNL     1      35.060 -23.041 -15.425  0.00  0.00    +0.122 C 
ATOM      5  C   UNL     1      33.361 -23.024 -17.152  0.00  0.00    +0.122 C 
ATOM      6  C   UNL     1      32.756 -23.350 -15.818  0.00  0.00    -0.002 C 
ATOM      7  C   UNL     1      33.707 -23.370 -14.871  0.00  0.00    -0.005 C 
ATOM      8  C   UNL     1      35.680 -22.028 -17.613  0.00  0.00    +0.308 C 
ATOM      9  C   UNL     1      34.917 -23.090 -19.784  0.00  0.00    +0.117 C 
ATOM     10  C   UNL     1      36.095 -20.927 -19.776  0.00  0.00    +0.117 C 
ENDROOT
BRANCH   6  13
ATOM     11  F   UNL     1      31.762 -25.463 -14.214  0.00  0.00    -0.204 F 
ATOM     12  F   UNL     1      28.107 -22.280 -16.749  0.00  0.00    -0.204 F 
ATOM     13  C   UNL     1      31.316 -23.617 -15.646  0.00  0.00    +0.027 C 
ATOM     14  C   UNL     1      30.875 -24.676 -14.841  0.00  0.00    +0.140 C 
ATOM     15  C   UNL     1      30.368 -22.810 -16.289  0.00  0.00    +0.032 C 
ATOM     16  C   UNL     1      29.005 -23.057 -16.130  0.00  0.00    +0.140 C 
ATOM     17  C   UNL     1      29.511 -24.923 -14.682  0.00  0.00    +0.032 C 
ATOM     18  C   UNL     1      28.576 -24.114 -15.326  0.00  0.00    +0.032 C 
ENDBRANCH   6  13
BRANCH   4  19
ATOM     19  C   UNL     1      36.070 -24.153 -15.237  0.00  0.00    -0.000 C 
ATOM     20  C   UNL     1      37.407 -23.845 -14.986  0.00  0.00    -0.002 C 
ATOM     21  C   UNL     1      35.663 -25.484 -15.313  0.00  0.00    -0.002 C 
ATOM     22  C   UNL     1      38.337 -24.869 -14.812  0.00  0.00    -0.000 C 
ATOM     23  C   UNL     1      36.593 -26.509 -15.140  0.00  0.00    -0.000 C 
ATOM     24  C   UNL     1      37.931 -26.201 -14.889  0.00  0.00    -0.000 C 
ENDBRANCH   4  19
TORSDOF 2
ENDMDL
MODEL 2
REMARK VINA RESULT:      -8.5     12.015     14.704
REMARK  Name = 11840968
REMARK  2 active torsions:
REMARK  status: ('A' for Active; 'I' for Inactive)
REMARK    1  A    between atoms: C_4  and  C_19
REMARK    2  A    between atoms: C_6  and  C_13
REMARK                            x       y       z     vdW  Elec       q    Type
REMARK                         _______ _______ _______ _____ _____    ______ ____
ROOT
ATOM      1  O   UNL     1      31.445  -8.437 -23.551  0.00  0.00    -0.252 OA
ATOM      2  N   UNL     1      32.657 -10.372 -23.309  0.00  0.00    -0.254 N 
ATOM      3  N   UNL     1      33.655  -8.370 -24.181  0.00  0.00    -0.261 N 
ATOM      4  C   UNL     1      31.606 -11.033 -22.521  0.00  0.00    +0.122 C 
ATOM      5  C   UNL     1      33.575 -11.357 -23.895  0.00  0.00    +0.122 C 
ATOM      6  C   UNL     1      32.949 -12.677 -23.548  0.00  0.00    -0.002 C 
ATOM      7  C   UNL     1      31.867 -12.487 -22.776  0.00  0.00    -0.005 C 
ATOM      8  C   UNL     1      32.530  -9.025 -23.666  0.00  0.00    +0.308 C 
ATOM      9  C   UNL     1      35.035  -8.671 -23.820  0.00  0.00    +0.117 C 
ATOM     10  C   UNL     1      33.467  -7.165 -24.980  0.00  0.00    +0.117 C 
ENDROOT
BRANCH   6  13
ATOM     11  F   UNL     1      32.375 -13.779 -26.093  0.00  0.00    -0.204 F 
ATOM     12  F   UNL     1      35.706 -16.611 -22.805  0.00  0.00    -0.204 F 
ATOM     13  C   UNL     1      33.506 -13.962 -24.009  0.00  0.00    +0.027 C 
ATOM     14  C   UNL     1      33.190 -14.465 -25.278  0.00  0.00    +0.140 C 
ATOM     15  C   UNL     1      34.360 -14.698 -23.177  0.00  0.00    +0.032 C 
ATOM     16  C   UNL     1      34.889 -15.915 -23.608  0.00  0.00    +0.140 C 
ATOM     17  C   UNL     1      33.720 -15.681 -25.708  0.00  0.00    +0.032 C 
ATOM     18  C   UNL     1      34.570 -16.406 -24.873  0.00  0.00    +0.032 C 
ENDBRANCH   6  13
BRANCH   4  19
ATOM     19  C   UNL     1      31.646 -10.668 -21.052  0.00  0.00    -0.000 C 
ATOM     20  C   UNL     1      31.326 -11.622 -20.087  0.00  0.00    -0.002 C 
ATOM     21  C   UNL     1      32.002  -9.377 -20.665  0.00  0.00    -0.002 C 
ATOM     22  C   UNL     1      31.363 -11.285 -18.734  0.00  0.00    -0.000 C 
ATOM     23  C   UNL     1      32.038  -9.039 -19.312  0.00  0.00    -0.000 C 
ATOM     24  C   UNL     1      31.719  -9.994 -18.346  0.00  0.00    -0.000 C 
ENDBRANCH   4  19
TORSDOF 2
ENDMDL
MODEL 3
REMARK VINA RESULT:      -8.3     12.673     16.040
REMARK  Name = 11840968
REMARK  2 active torsions:
REMARK  status: ('A' for Active; 'I' for Inactive)
REMARK    1  A    between atoms: C_4  and  C_19
REMARK    2  A    between atoms: C_6  and  C_13
REMARK                            x       y       z     vdW  Elec       q    Type
REMARK                         _______ _______ _______ _____ _____    ______ ____
ROOT
ATOM      1  O   UNL     1      32.914  -8.945 -20.258  0.00  0.00    -0.252 OA
ATOM      2  N   UNL     1      32.510 -10.321 -22.051  0.00  0.00    -0.254 N 
ATOM      3  N   UNL     1      31.229 -10.491 -20.028  0.00  0.00    -0.261 N 
ATOM      4  C   UNL     1      33.368  -9.540 -22.954  0.00  0.00    +0.122 C 
ATOM      5  C   UNL     1      32.303 -11.681 -22.565  0.00  0.00    +0.122 C 
ATOM      6  C   UNL     1      33.203 -11.747 -23.765  0.00  0.00    -0.002 C 
ATOM      7  C   UNL     1      33.778 -10.553 -23.979  0.00  0.00    -0.005 C 
ATOM      8  C   UNL     1      32.247  -9.863 -20.755  0.00  0.00    +0.308 C 
ATOM      9  C   UNL     1      30.030 -11.083 -20.609  0.00  0.00    +0.117 C 
ATOM     10  C   UNL     1      31.231 -10.386 -18.574  0.00  0.00    +0.117 C 
ENDROOT
BRANCH   6  13
ATOM     11  F   UNL     1      33.122 -11.774 -26.596  0.00  0.00    -0.204 F 
ATOM     12  F   UNL     1      33.947 -16.543 -24.046  0.00  0.00    -0.204 F 
ATOM     13  C   UNL     1      33.372 -12.978 -24.560  0.00  0.00    +0.027 C 
ATOM     14  C   UNL     1      33.323 -12.938 -25.960  0.00  0.00    +0.140 C 
ATOM     15  C   UNL     1      33.584 -14.206 -23.921  0.00  0.00    +0.032 C 
ATOM     16  C   UNL     1      33.745 -15.373 -24.667  0.00  0.00    +0.140 C 
ATOM     17  C   UNL     1      33.485 -14.105 -26.707  0.00  0.00    +0.032 C 
ATOM     18  C   UNL     1      33.695 -15.323 -26.060  0.00  0.00    +0.032 C 
ENDBRANCH   6  13
BRANCH   4  19
ATOM     19  C   UNL     1      32.667  -8.337 -23.549  0.00  0.00    -0.000 C 
ATOM     20  C   UNL     1      31.279  -8.335 -23.681  0.00  0.00    -0.002 C 
ATOM     21  C   UNL     1      33.410  -7.232 -23.963  0.00  0.00    -0.002 C 
ATOM     22  C   UNL     1      30.633  -7.226 -24.228  0.00  0.00    -0.000 C 
ATOM     23  C   UNL     1      32.764  -6.124 -24.512  0.00  0.00    -0.000 C 
ATOM     24  C   UNL     1      31.375  -6.121 -24.643  0.00  0.00    -0.000 C 
ENDBRANCH   4  19
TORSDOF 2
ENDMDL
MODEL 4
REMARK VINA RESULT:      -8.3     12.286     14.760
REMARK  Name = 11840968
REMARK  2 active torsions:
REMARK  status: ('A' for Active; 'I' for Inactive)
REMARK    1  A    between atoms: C_4  and  C_19
REMARK    2  A    between atoms: C_6  and  C_13
REMARK                            x       y       z     vdW  Elec       q    Type
REMARK                         _______ _______ _______ _____ _____    ______ ____
ROOT
ATOM      1  O   UNL     1      31.388  -8.193 -23.486  0.00  0.00    -0.252 OA
ATOM      2  N   UNL     1      32.580 -10.145 -23.276  0.00  0.00    -0.254 N 
ATOM      3  N   UNL     1      33.585  -8.153 -24.163  0.00  0.00    -0.261 N 
ATOM      4  C   UNL     1      31.538 -10.795 -22.467  0.00  0.00    +0.122 C 
ATOM      5  C   UNL     1      33.473 -11.139 -23.884  0.00  0.00    +0.122 C 
ATOM      6  C   UNL     1      32.838 -12.452 -23.528  0.00  0.00    -0.002 C 
ATOM      7  C   UNL     1      31.775 -12.251 -22.733  0.00  0.00    -0.005 C 
ATOM      8  C   UNL     1      32.463  -8.795 -23.625  0.00  0.00    +0.308 C 
ATOM      9  C   UNL     1      34.968  -8.472 -23.832  0.00  0.00    +0.117 C 
ATOM     10  C   UNL     1      33.395  -6.943 -24.953  0.00  0.00    +0.117 C 
ENDROOT
BRANCH   6  13
ATOM     11  F   UNL     1      34.711 -13.985 -22.057  0.00  0.00    -0.204 F 
ATOM     12  F   UNL     1      33.039 -15.976 -26.869  0.00  0.00    -0.204 F 
ATOM     13  C   UNL     1      33.368 -13.743 -24.005  0.00  0.00    +0.027 C 
ATOM     14  C   UNL     1      34.294 -14.464 -23.239  0.00  0.00    +0.140 C 
ATOM     15  C   UNL     1      32.949 -14.265 -25.235  0.00  0.00    +0.032 C 
ATOM     16  C   UNL     1      33.446 -15.486 -25.692  0.00  0.00    +0.140 C 
ATOM     17  C   UNL     1      34.791 -15.684 -23.695  0.00  0.00    +0.032 C 
ATOM     18  C   UNL     1      34.367 -16.195 -24.921  0.00  0.00    +0.032 C 
ENDBRANCH   6  13
BRANCH   4  19
ATOM     19  C   UNL     1      31.613 -10.435 -20.999  0.00  0.00    -0.000 C 
ATOM     20  C   UNL     1      31.926  -9.131 -20.616  0.00  0.00    -0.002 C 
ATOM     21  C   UNL     1      31.369 -11.407 -20.030  0.00  0.00    -0.002 C 
ATOM     22  C   UNL     1      31.994  -8.799 -19.263  0.00  0.00    -0.000 C 
ATOM     23  C   UNL     1      31.438 -11.076 -18.676  0.00  0.00    -0.000 C 
ATOM     24  C   UNL     1      31.750  -9.771 -18.293  0.00  0.00    -0.000 C 
ENDBRANCH   4  19
TORSDOF 2
ENDMDL
MODEL 5
REMARK VINA RESULT:      -8.2     12.873     16.102
REMARK  Name = 11840968
REMARK  2 active torsions:
REMARK  status: ('A' for Active; 'I' for Inactive)
REMARK    1  A    between atoms: C_4  and  C_19
REMARK    2  A    between atoms: C_6  and  C_13
REMARK                            x       y       z     vdW  Elec       q    Type
REMARK                         _______ _______ _______ _____ _____    ______ ____
ROOT
ATOM      1  O   UNL     1      32.888  -8.797 -20.213  0.00  0.00    -0.252 OA
ATOM      2  N   UNL     1      32.477 -10.165 -22.010  0.00  0.00    -0.254 N 
ATOM      3  N   UNL     1      31.250 -10.389 -19.958  0.00  0.00    -0.261 N 
ATOM      4  C   UNL     1      33.291  -9.353 -22.925  0.00  0.00    +0.122 C 
ATOM      5  C   UNL     1      32.293 -11.525 -22.533  0.00  0.00    +0.122 C 
ATOM      6  C   UNL     1      33.164 -11.556 -23.755  0.00  0.00    -0.002 C 
ATOM      7  C   UNL     1      33.702 -10.345 -23.971  0.00  0.00    -0.005 C 
ATOM      8  C   UNL     1      32.234  -9.727 -20.704  0.00  0.00    +0.308 C 
ATOM      9  C   UNL     1      30.053 -11.006 -20.517  0.00  0.00    +0.117 C 
ATOM     10  C   UNL     1      31.285 -10.298 -18.504  0.00  0.00    +0.117 C 
ENDROOT
BRANCH   6  13
ATOM     11  F   UNL     1      33.415 -14.139 -22.621  0.00  0.00    -0.204 F 
ATOM     12  F   UNL     1      33.626 -13.740 -28.073  0.00  0.00    -0.204 F 
ATOM     13  C   UNL     1      33.346 -12.773 -24.567  0.00  0.00    +0.027 C 
ATOM     14  C   UNL     1      33.465 -14.030 -23.958  0.00  0.00    +0.140 C 
ATOM     15  C   UNL     1      33.402 -12.686 -25.965  0.00  0.00    +0.032 C 
ATOM     16  C   UNL     1      33.574 -13.834 -26.738  0.00  0.00    +0.140 C 
ATOM     17  C   UNL     1      33.636 -15.177 -24.731  0.00  0.00    +0.032 C 
ATOM     18  C   UNL     1      33.691 -15.080 -26.121  0.00  0.00    +0.032 C 
ENDBRANCH   6  13
BRANCH   4  19
ATOM     19  C   UNL     1      32.545  -8.163 -23.490  0.00  0.00    -0.000 C 
ATOM     20  C   UNL     1      31.157  -8.211 -23.625  0.00  0.00    -0.002 C 
ATOM     21  C   UNL     1      33.244  -7.020 -23.875  0.00  0.00    -0.002 C 
ATOM     22  C   UNL     1      30.469  -7.115 -24.145  0.00  0.00    -0.000 C 
ATOM     23  C   UNL     1      32.556  -5.924 -24.396  0.00  0.00    -0.000 C 
ATOM     24  C   UNL     1      31.168  -5.971 -24.530  0.00  0.00    -0.000 C 
ENDBRANCH   4  19
TORSDOF 2
ENDMDL
MODEL 6
REMARK VINA RESULT:      -8.1     14.026     17.275
REMARK  Name = 11840968
REMARK  2 active torsions:
REMARK  status: ('A' for Active; 'I' for Inactive)
REMARK    1  A    between atoms: C_4  and  C_19
REMARK    2  A    between atoms: C_6  and  C_13
REMARK                            x       y       z     vdW  Elec       q    Type
REMARK                         _______ _______ _______ _____ _____    ______ ____
ROOT
ATOM      1  O   UNL     1      32.757  -8.660 -19.881  0.00  0.00    -0.252 OA
ATOM      2  N   UNL     1      32.634  -9.413 -22.046  0.00  0.00    -0.254 N 
ATOM      3  N   UNL     1      31.382 -10.457 -20.284  0.00  0.00    -0.261 N 
ATOM      4  C   UNL     1      33.345  -8.244 -22.585  0.00  0.00    +0.122 C 
ATOM      5  C   UNL     1      32.687 -10.540 -22.985  0.00  0.00    +0.122 C 
ATOM      6  C   UNL     1      33.598 -10.054 -24.075  0.00  0.00    -0.002 C 
ATOM      7  C   UNL     1      33.946  -8.777 -23.850  0.00  0.00    -0.005 C 
ATOM      8  C   UNL     1      32.276  -9.461 -20.694  0.00  0.00    +0.308 C 
ATOM      9  C   UNL     1      30.319 -11.016 -21.110  0.00  0.00    +0.117 C 
ATOM     10  C   UNL     1      31.347 -10.839 -18.878  0.00  0.00    +0.117 C 
ENDROOT
BRANCH   6  13
ATOM     11  F   UNL     1      35.770  -9.423 -25.779  0.00  0.00    -0.204 F 
ATOM     12  F   UNL     1      32.996 -14.021 -26.818  0.00  0.00    -0.204 F 
ATOM     13  C   UNL     1      33.999 -10.904 -25.210  0.00  0.00    +0.027 C 
ATOM     14  C   UNL     1      35.083 -10.548 -26.024  0.00  0.00    +0.140 C 
ATOM     15  C   UNL     1      33.298 -12.085 -25.488  0.00  0.00    +0.032 C 
ATOM     16  C   UNL     1      33.673 -12.894 -26.561  0.00  0.00    +0.140 C 
ATOM     17  C   UNL     1      35.458 -11.357 -27.096  0.00  0.00    +0.032 C 
ATOM     18  C   UNL     1      34.753 -12.530 -27.365  0.00  0.00    +0.032 C 
ENDBRANCH   6  13
BRANCH   4  19
ATOM     19  C   UNL     1      32.443  -7.049 -22.808  0.00  0.00    -0.000 C 
ATOM     20  C   UNL     1      32.066  -6.249 -21.730  0.00  0.00    -0.002 C 
ATOM     21  C   UNL     1      31.989  -6.749 -24.092  0.00  0.00    -0.002 C 
ATOM     22  C   UNL     1      31.235  -5.148 -21.936  0.00  0.00    -0.000 C 
ATOM     23  C   UNL     1      31.157  -5.649 -24.298  0.00  0.00    -0.000 C 
ATOM     24  C   UNL     1      30.780  -4.848 -23.220  0.00  0.00    -0.000 C 
ENDBRANCH   4  19
TORSDOF 2
ENDMDL
MODEL 7
REMARK VINA RESULT:      -7.8      2.892      6.075
REMARK  Name = 11840968
REMARK  2 active torsions:
REMARK  status: ('A' for Active; 'I' for Inactive)
REMARK    1  A    between atoms: C_4  and  C_19
REMARK    2  A    between atoms: C_6  and  C_13
REMARK                            x       y       z     vdW  Elec       q    Type
REMARK                         _______ _______ _______ _____ _____    ______ ____
ROOT
ATOM      1  O   UNL     1      35.003 -24.441 -12.760  0.00  0.00    -0.252 OA
ATOM      2  N   UNL     1      34.808 -24.045 -15.014  0.00  0.00    -0.254 N 
ATOM      3  N   UNL     1      36.297 -25.724 -14.161  0.00  0.00    -0.261 N 
ATOM      4  C   UNL     1      33.624 -23.190 -14.849  0.00  0.00    +0.122 C 
ATOM      5  C   UNL     1      35.465 -23.794 -16.303  0.00  0.00    +0.122 C 
ATOM      6  C   UNL     1      34.706 -22.628 -16.867  0.00  0.00    -0.002 C 
ATOM      7  C   UNL     1      33.680 -22.310 -16.061  0.00  0.00    -0.005 C 
ATOM      8  C   UNL     1      35.344 -24.728 -13.916  0.00  0.00    +0.308 C 
ATOM      9  C   UNL     1      36.340 -26.565 -15.351  0.00  0.00    +0.117 C 
ATOM     10  C   UNL     1      37.200 -26.117 -13.086  0.00  0.00    +0.117 C 
ENDROOT
BRANCH   6  13
ATOM     11  F   UNL     1      37.392 -22.134 -17.616  0.00  0.00    -0.204 F 
ATOM     12  F   UNL     1      33.472 -20.592 -21.105  0.00  0.00    -0.204 F 
ATOM     13  C   UNL     1      35.077 -21.982 -18.139  0.00  0.00    +0.027 C 
ATOM     14  C   UNL     1      36.423 -21.760 -18.464  0.00  0.00    +0.140 C 
ATOM     15  C   UNL     1      34.084 -21.582 -19.043  0.00  0.00    +0.032 C 
ATOM     16  C   UNL     1      34.429 -20.971 -20.248  0.00  0.00    +0.140 C 
ATOM     17  C   UNL     1      36.768 -21.149 -19.669  0.00  0.00    +0.032 C 
ATOM     18  C   UNL     1      35.771 -20.755 -20.561  0.00  0.00    +0.032 C 
ENDBRANCH   6  13
BRANCH   4  19
ATOM     19  C   UNL     1      32.334 -23.975 -14.740  0.00  0.00    -0.000 C 
ATOM     20  C   UNL     1      32.039 -24.672 -13.569  0.00  0.00    -0.002 C 
ATOM     21  C   UNL     1      31.440 -23.999 -15.810  0.00  0.00    -0.002 C 
ATOM     22  C   UNL     1      30.850 -25.394 -13.468  0.00  0.00    -0.000 C 
ATOM     23  C   UNL     1      30.252 -24.723 -15.710  0.00  0.00    -0.000 C 
ATOM     24  C   UNL     1      29.956 -25.420 -14.538  0.00  0.00    -0.000 C 
ENDBRANCH   4  19
TORSDOF 2
ENDMDL
MODEL 8
REMARK VINA RESULT:      -7.3     15.196     18.394
REMARK  Name = 11840968
REMARK  2 active torsions:
REMARK  status: ('A' for Active; 'I' for Inactive)
REMARK    1  A    between atoms: C_4  and  C_19
REMARK    2  A    between atoms: C_6  and  C_13
REMARK                            x       y       z     vdW  Elec       q    Type
REMARK                         _______ _______ _______ _____ _____    ______ ____
ROOT
ATOM      1  O   UNL     1      30.936 -10.849 -21.886  0.00  0.00    -0.252 OA
ATOM      2  N   UNL     1      31.648  -8.693 -22.231  0.00  0.00    -0.254 N 
ATOM      3  N   UNL     1      31.607  -9.663 -20.035  0.00  0.00    -0.261 N 
ATOM      4  C   UNL     1      31.691  -8.849 -23.693  0.00  0.00    +0.122 C 
ATOM      5  C   UNL     1      31.579  -7.276 -21.854  0.00  0.00    +0.122 C 
ATOM      6  C   UNL     1      31.431  -6.565 -23.168  0.00  0.00    -0.002 C 
ATOM      7  C   UNL     1      31.508  -7.444 -24.180  0.00  0.00    -0.005 C 
ATOM      8  C   UNL     1      31.382  -9.795 -21.411  0.00  0.00    +0.308 C 
ATOM      9  C   UNL     1      32.633  -8.819 -19.434  0.00  0.00    +0.117 C 
ATOM     10  C   UNL     1      30.928 -10.569 -19.118  0.00  0.00    +0.117 C 
ENDROOT
BRANCH   6  13
ATOM     11  F   UNL     1      30.019  -5.062 -21.227  0.00  0.00    -0.204 F 
ATOM     12  F   UNL     1      32.130  -2.348 -25.482  0.00  0.00    -0.204 F 
ATOM     13  C   UNL     1      31.249  -5.105 -23.263  0.00  0.00    +0.027 C 
ATOM     14  C   UNL     1      30.541  -4.406 -22.275  0.00  0.00    +0.140 C 
ATOM     15  C   UNL     1      31.784  -4.397 -24.347  0.00  0.00    +0.032 C 
ATOM     16  C   UNL     1      31.614  -3.015 -24.442  0.00  0.00    +0.140 C 
ATOM     17  C   UNL     1      30.372  -3.025 -22.370  0.00  0.00    +0.032 C 
ATOM     18  C   UNL     1      30.909  -2.330 -23.453  0.00  0.00    +0.032 C 
ENDBRANCH   6  13
BRANCH   4  19
ATOM     19  C   UNL     1      32.970  -9.491 -24.185  0.00  0.00    -0.000 C 
ATOM     20  C   UNL     1      32.955 -10.805 -24.653  0.00  0.00    -0.002 C 
ATOM     21  C   UNL     1      34.162  -8.769 -24.171  0.00  0.00    -0.002 C 
ATOM     22  C   UNL     1      34.134 -11.396 -25.107  0.00  0.00    -0.000 C 
ATOM     23  C   UNL     1      35.342  -9.360 -24.625  0.00  0.00    -0.000 C 
ATOM     24  C   UNL     1      35.327 -10.674 -25.093  0.00  0.00    -0.000 C 
ENDBRANCH   4  19
TORSDOF 2
ENDMDL
MODEL 9
REMARK VINA RESULT:      -7.2     13.479     17.062
REMARK  Name = 11840968
REMARK  2 active torsions:
REMARK  status: ('A' for Active; 'I' for Inactive)
REMARK    1  A    between atoms: C_4  and  C_19
REMARK    2  A    between atoms: C_6  and  C_13
REMARK                            x       y       z     vdW  Elec       q    Type
REMARK                         _______ _______ _______ _____ _____    ______ ____
ROOT
ATOM      1  O   UNL     1      34.155  -7.331 -21.245  0.00  0.00    -0.252 OA
ATOM      2  N   UNL     1      33.458  -8.859 -22.811  0.00  0.00    -0.254 N 
ATOM      3  N   UNL     1      32.162  -8.403 -20.842  0.00  0.00    -0.261 N 
ATOM      4  C   UNL     1      34.475  -8.450 -23.790  0.00  0.00    +0.122 C 
ATOM      5  C   UNL     1      32.950 -10.204 -23.109  0.00  0.00    +0.122 C 
ATOM      6  C   UNL     1      33.817 -10.667 -24.244  0.00  0.00    -0.002 C 
ATOM      7  C   UNL     1      34.649  -9.684 -24.622  0.00  0.00    -0.005 C 
ATOM      8  C   UNL     1      33.299  -8.147 -21.617  0.00  0.00    +0.308 C 
ATOM      9  C   UNL     1      30.862  -8.800 -21.372  0.00  0.00    +0.117 C 
ATOM     10  C   UNL     1      32.180  -8.062 -19.425  0.00  0.00    +0.117 C 
ENDROOT
BRANCH   6  13
ATOM     11  F   UNL     1      33.662 -13.014 -22.665  0.00  0.00    -0.204 F 
ATOM     12  F   UNL     1      33.538 -13.613 -28.101  0.00  0.00    -0.204 F 
ATOM     13  C   UNL     1      33.706 -12.018 -24.824  0.00  0.00    +0.027 C 
ATOM     14  C   UNL     1      33.633 -13.149 -23.999  0.00  0.00    +0.140 C 
ATOM     15  C   UNL     1      33.673 -12.187 -26.215  0.00  0.00    +0.032 C 
ATOM     16  C   UNL     1      33.569 -13.463 -26.770  0.00  0.00    +0.140 C 
ATOM     17  C   UNL     1      33.528 -14.424 -24.555  0.00  0.00    +0.032 C 
ATOM     18  C   UNL     1      33.496 -14.581 -25.940  0.00  0.00    +0.032 C 
ENDBRANCH   6  13
BRANCH   4  19
ATOM     19  C   UNL     1      34.069  -7.236 -24.598  0.00  0.00    -0.000 C 
ATOM     20  C   UNL     1      34.961  -6.676 -25.512  0.00  0.00    -0.002 C 
ATOM     21  C   UNL     1      32.801  -6.680 -24.430  0.00  0.00    -0.002 C 
ATOM     22  C   UNL     1      34.586  -5.558 -26.257  0.00  0.00    -0.000 C 
ATOM     23  C   UNL     1      32.426  -5.561 -25.175  0.00  0.00    -0.000 C 
ATOM     24  C   UNL     1      33.319  -5.001 -26.089  0.00  0.00    -0.000 C 
ENDBRANCH   4  19
TORSDOF 2
ENDMDL
