MODEL 1
REMARK VINA RESULT:      -3.2      0.000      0.000
REMARK  Name = 5558
REMARK  0 active torsions:
REMARK  status: ('A' for Active; 'I' for Inactive)
REMARK                            x       y       z     vdW  Elec       q    Type
REMARK                         _______ _______ _______ _____ _____    ______ ____
ROOT
ATOM      1 BR   UNL     1      36.151 -20.614 -20.230  0.00  0.00    -0.056 Br
ATOM      2 BR   UNL     1      34.870 -19.158 -22.809  0.00  0.00    -0.056 Br
ATOM      3 BR   UNL     1      32.956 -20.211 -20.435  0.00  0.00    -0.056 Br
ATOM      4  C   UNL     1      34.704 -19.502 -20.903  0.00  0.00    +0.169 C 
ENDROOT
TORSDOF 0
ENDMDL
MODEL 2
REMARK VINA RESULT:      -3.2      1.075      2.347
REMARK  Name = 5558
REMARK  0 active torsions:
REMARK  status: ('A' for Active; 'I' for Inactive)
REMARK                            x       y       z     vdW  Elec       q    Type
REMARK                         _______ _______ _______ _____ _____    ______ ____
ROOT
ATOM      1 BR   UNL     1      35.603 -18.313 -21.275  0.00  0.00    -0.056 Br
ATOM      2 BR   UNL     1      36.198 -21.105 -19.771  0.00  0.00    -0.056 Br
ATOM      3 BR   UNL     1      33.160 -20.246 -20.435  0.00  0.00    -0.056 Br
ATOM      4  C   UNL     1      35.022 -20.145 -20.985  0.00  0.00    +0.169 C 
ENDROOT
TORSDOF 0
ENDMDL
MODEL 3
REMARK VINA RESULT:      -3.2      1.036      2.311
REMARK  Name = 5558
REMARK  0 active torsions:
REMARK  status: ('A' for Active; 'I' for Inactive)
REMARK                            x       y       z     vdW  Elec       q    Type
REMARK                         _______ _______ _______ _____ _____    ______ ____
ROOT
ATOM      1 BR   UNL     1      36.106 -20.989 -19.890  0.00  0.00    -0.056 Br
ATOM      2 BR   UNL     1      33.039 -20.186 -20.489  0.00  0.00    -0.056 Br
ATOM      3 BR   UNL     1      35.421 -18.150 -21.262  0.00  0.00    -0.056 Br
ATOM      4  C   UNL     1      34.892 -20.009 -21.050  0.00  0.00    +0.169 C 
ENDROOT
TORSDOF 0
ENDMDL
MODEL 4
REMARK VINA RESULT:      -3.2      0.102      2.832
REMARK  Name = 5558
REMARK  0 active torsions:
REMARK  status: ('A' for Active; 'I' for Inactive)
REMARK                            x       y       z     vdW  Elec       q    Type
REMARK                         _______ _______ _______ _____ _____    ______ ____
ROOT
ATOM      1 BR   UNL     1      32.898 -20.176 -20.484  0.00  0.00    -0.056 Br
ATOM      2 BR   UNL     1      36.062 -20.742 -20.196  0.00  0.00    -0.056 Br
ATOM      3 BR   UNL     1      34.936 -19.142 -22.762  0.00  0.00    -0.056 Br
ATOM      4  C   UNL     1      34.694 -19.540 -20.875  0.00  0.00    +0.169 C 
ENDROOT
TORSDOF 0
ENDMDL
MODEL 5
REMARK VINA RESULT:      -3.2      1.036      2.488
REMARK  Name = 5558
REMARK  0 active torsions:
REMARK  status: ('A' for Active; 'I' for Inactive)
REMARK                            x       y       z     vdW  Elec       q    Type
REMARK                         _______ _______ _______ _____ _____    ______ ____
ROOT
ATOM      1 BR   UNL     1      33.038 -20.126 -20.528  0.00  0.00    -0.056 Br
ATOM      2 BR   UNL     1      35.440 -18.107 -21.278  0.00  0.00    -0.056 Br
ATOM      3 BR   UNL     1      36.097 -20.971 -19.944  0.00  0.00    -0.056 Br
ATOM      4  C   UNL     1      34.892 -19.962 -21.089  0.00  0.00    +0.169 C 
ENDROOT
TORSDOF 0
ENDMDL
MODEL 6
REMARK VINA RESULT:      -3.1      0.134      2.757
REMARK  Name = 5558
REMARK  0 active torsions:
REMARK  status: ('A' for Active; 'I' for Inactive)
REMARK                            x       y       z     vdW  Elec       q    Type
REMARK                         _______ _______ _______ _____ _____    ______ ____
ROOT
ATOM      1 BR   UNL     1      34.949 -19.056 -22.858  0.00  0.00    -0.056 Br
ATOM      2 BR   UNL     1      32.910 -20.094 -20.583  0.00  0.00    -0.056 Br
ATOM      3 BR   UNL     1      36.081 -20.595 -20.258  0.00  0.00    -0.056 Br
ATOM      4  C   UNL     1      34.696 -19.430 -20.967  0.00  0.00    +0.169 C 
ENDROOT
TORSDOF 0
ENDMDL
MODEL 7
REMARK VINA RESULT:      -3.1      1.658      2.523
REMARK  Name = 5558
REMARK  0 active torsions:
REMARK  status: ('A' for Active; 'I' for Inactive)
REMARK                            x       y       z     vdW  Elec       q    Type
REMARK                         _______ _______ _______ _____ _____    ______ ____
ROOT
ATOM      1 BR   UNL     1      33.450 -19.796 -20.878  0.00  0.00    -0.056 Br
ATOM      2 BR   UNL     1      34.873 -18.988 -23.659  0.00  0.00    -0.056 Br
ATOM      3 BR   UNL     1      34.809 -16.889 -21.210  0.00  0.00    -0.056 Br
ATOM      4  C   UNL     1      34.859 -18.761 -21.728  0.00  0.00    +0.169 C 
ENDROOT
TORSDOF 0
ENDMDL
MODEL 8
REMARK VINA RESULT:      -3.1      1.655      2.531
REMARK  Name = 5558
REMARK  0 active torsions:
REMARK  status: ('A' for Active; 'I' for Inactive)
REMARK                            x       y       z     vdW  Elec       q    Type
REMARK                         _______ _______ _______ _____ _____    ______ ____
ROOT
ATOM      1 BR   UNL     1      34.874 -18.945 -23.623  0.00  0.00    -0.056 Br
ATOM      2 BR   UNL     1      34.829 -16.901 -21.127  0.00  0.00    -0.056 Br
ATOM      3 BR   UNL     1      33.430 -19.797 -20.866  0.00  0.00    -0.056 Br
ATOM      4  C   UNL     1      34.856 -18.762 -21.687  0.00  0.00    +0.169 C 
ENDROOT
TORSDOF 0
ENDMDL
MODEL 9
REMARK VINA RESULT:      -3.0      1.811      3.291
REMARK  Name = 5558
REMARK  0 active torsions:
REMARK  status: ('A' for Active; 'I' for Inactive)
REMARK                            x       y       z     vdW  Elec       q    Type
REMARK                         _______ _______ _______ _____ _____    ______ ____
ROOT
ATOM      1 BR   UNL     1      34.664 -16.618 -21.122  0.00  0.00    -0.056 Br
ATOM      2 BR   UNL     1      33.672 -19.683 -20.936  0.00  0.00    -0.056 Br
ATOM      3 BR   UNL     1      35.167 -18.629 -23.594  0.00  0.00    -0.056 Br
ATOM      4  C   UNL     1      34.991 -18.456 -21.666  0.00  0.00    +0.169 C 
ENDROOT
TORSDOF 0
ENDMDL
