MODEL 1
REMARK VINA RESULT:     -11.4      0.000      0.000
REMARK  Name = 25113615
REMARK  7 active torsions:
REMARK  status: ('A' for Active; 'I' for Inactive)
REMARK    1  A    between atoms: N_2  and  C_20
REMARK    2  A    between atoms: C_3  and  C_7
REMARK    3  A    between atoms: C_11  and  C_12
REMARK    4  A    between atoms: C_12  and  C_13
REMARK    5  A    between atoms: C_13  and  C_14
REMARK    6  A    between atoms: C_20  and  C_21
REMARK    7  A    between atoms: C_26  and  C_29
REMARK                            x       y       z     vdW  Elec       q    Type
REMARK                         _______ _______ _______ _____ _____    ______ ____
ROOT
ATOM      1  O   UNL     1      35.013 -23.589 -13.386  0.00  0.00    -0.273 OA
ATOM      2  N   UNL     1      33.499 -25.014 -14.434  0.00  0.00    -0.299 N 
ATOM      3  C   UNL     1      34.723 -24.386 -14.275  0.00  0.00    +0.241 C 
ATOM      4  H   UNL     1      33.385 -25.635 -15.189  0.00  0.00    +0.150 HD
ENDROOT
BRANCH   3   7
ATOM      5  O   UNL     1      37.153 -21.724 -16.717  0.00  0.00    -0.275 OA
ATOM      6  N   UNL     1      36.586 -23.664 -15.596  0.00  0.00    -0.273 N 
ATOM      7  C   UNL     1      35.714 -24.803 -15.318  0.00  0.00    +0.152 C 
ATOM      8  C   UNL     1      36.653 -25.876 -14.772  0.00  0.00    +0.031 C 
ATOM      9  C   UNL     1      37.762 -25.069 -14.102  0.00  0.00    +0.024 C 
ATOM     10  C   UNL     1      37.905 -23.857 -15.009  0.00  0.00    +0.094 C 
ATOM     11  C   UNL     1      36.319 -22.584 -16.421  0.00  0.00    +0.226 C 
BRANCH  11  12
ATOM     12  C   UNL     1      34.917 -22.497 -16.969  0.00  0.00    +0.090 C 
BRANCH  12  13
ATOM     13  C   UNL     1      34.899 -22.844 -18.451  0.00  0.00    +0.036 C 
BRANCH  13  14
ATOM     14  C   UNL     1      34.596 -21.660 -19.337  0.00  0.00    -0.022 C 
ATOM     15  C   UNL     1      33.274 -21.277 -19.561  0.00  0.00    -0.004 C 
ATOM     16  C   UNL     1      35.639 -20.950 -19.932  0.00  0.00    -0.004 C 
ATOM     17  C   UNL     1      32.993 -20.183 -20.380  0.00  0.00    -0.000 C 
ATOM     18  C   UNL     1      35.359 -19.857 -20.752  0.00  0.00    -0.000 C 
ATOM     19  C   UNL     1      34.036 -19.473 -20.976  0.00  0.00    -0.000 C 
ENDBRANCH  13  14
ENDBRANCH  12  13
ENDBRANCH  11  12
ENDBRANCH   3   7
BRANCH   2  20
ATOM     20  C   UNL     1      32.380 -24.800 -13.544  0.00  0.00    +0.116 C 
BRANCH  20  21
ATOM     21  C   UNL     1      31.164 -24.316 -14.280  0.00  0.00    -0.003 C 
ATOM     22  C   UNL     1      30.140 -25.209 -14.597  0.00  0.00    -0.003 C 
ATOM     23  C   UNL     1      31.058 -22.974 -14.648  0.00  0.00    -0.003 C 
ATOM     24  C   UNL     1      29.011 -24.759 -15.283  0.00  0.00    +0.002 C 
ATOM     25  C   UNL     1      29.928 -22.525 -15.332  0.00  0.00    +0.002 C 
ATOM     26  C   UNL     1      28.905 -23.418 -15.650  0.00  0.00    +0.031 C 
BRANCH  26  29
ATOM     27  N   UNL     1      26.770 -22.154 -15.738  0.00  0.00    -0.343 N 
ATOM     28  N   UNL     1      27.548 -23.285 -17.628  0.00  0.00    -0.285 NA
ATOM     29  C   UNL     1      27.727 -22.951 -16.363  0.00  0.00    +0.117 C 
ATOM     30  H   UNL     1      25.980 -21.849 -16.239  0.00  0.00    +0.144 HD
ATOM     31  H   UNL     1      26.884 -21.896 -14.795  0.00  0.00    +0.144 HD
ATOM     32  H   UNL     1      26.751 -22.970 -18.112  0.00  0.00    +0.188 HD
ENDBRANCH  26  29
ENDBRANCH  20  21
ENDBRANCH   2  20
TORSDOF 7
ENDMDL
MODEL 2
REMARK VINA RESULT:     -10.8      2.747      6.463
REMARK  Name = 25113615
REMARK  7 active torsions:
REMARK  status: ('A' for Active; 'I' for Inactive)
REMARK    1  A    between atoms: N_2  and  C_20
REMARK    2  A    between atoms: C_3  and  C_7
REMARK    3  A    between atoms: C_11  and  C_12
REMARK    4  A    between atoms: C_12  and  C_13
REMARK    5  A    between atoms: C_13  and  C_14
REMARK    6  A    between atoms: C_20  and  C_21
REMARK    7  A    between atoms: C_26  and  C_29
REMARK                            x       y       z     vdW  Elec       q    Type
REMARK                         _______ _______ _______ _____ _____    ______ ____
ROOT
ATOM      1  O   UNL     1      34.964 -24.767 -16.166  0.00  0.00    -0.273 OA
ATOM      2  N   UNL     1      34.697 -22.603 -16.983  0.00  0.00    -0.299 N 
ATOM      3  C   UNL     1      35.080 -23.549 -16.048  0.00  0.00    +0.241 C 
ATOM      4  H   UNL     1      34.842 -21.652 -16.774  0.00  0.00    +0.150 HD
ENDROOT
BRANCH   3   7
ATOM      5  O   UNL     1      34.739 -25.010 -11.961  0.00  0.00    -0.275 OA
ATOM      6  N   UNL     1      35.693 -23.923 -13.763  0.00  0.00    -0.273 N 
ATOM      7  C   UNL     1      35.700 -22.928 -14.833  0.00  0.00    +0.152 C 
ATOM      8  C   UNL     1      37.179 -22.635 -15.072  0.00  0.00    +0.031 C 
ATOM      9  C   UNL     1      37.865 -23.947 -14.698  0.00  0.00    +0.024 C 
ATOM     10  C   UNL     1      37.030 -24.455 -13.534  0.00  0.00    +0.094 C 
ATOM     11  C   UNL     1      34.636 -24.257 -12.933  0.00  0.00    +0.226 C 
BRANCH  11  12
ATOM     12  C   UNL     1      33.304 -23.639 -13.273  0.00  0.00    +0.090 C 
BRANCH  12  13
ATOM     13  C   UNL     1      32.289 -24.716 -13.628  0.00  0.00    +0.036 C 
BRANCH  13  14
ATOM     14  C   UNL     1      31.224 -24.240 -14.585  0.00  0.00    -0.022 C 
ATOM     15  C   UNL     1      29.957 -24.823 -14.565  0.00  0.00    -0.004 C 
ATOM     16  C   UNL     1      31.507 -23.218 -15.491  0.00  0.00    -0.004 C 
ATOM     17  C   UNL     1      28.972 -24.384 -15.450  0.00  0.00    -0.000 C 
ATOM     18  C   UNL     1      30.523 -22.779 -16.376  0.00  0.00    -0.000 C 
ATOM     19  C   UNL     1      29.255 -23.362 -16.356  0.00  0.00    -0.000 C 
ENDBRANCH  13  14
ENDBRANCH  12  13
ENDBRANCH  11  12
ENDBRANCH   3   7
BRANCH   2  20
ATOM     20  C   UNL     1      34.095 -22.945 -18.252  0.00  0.00    +0.116 C 
BRANCH  20  21
ATOM     21  C   UNL     1      34.224 -21.831 -19.251  0.00  0.00    -0.003 C 
ATOM     22  C   UNL     1      35.486 -21.439 -19.698  0.00  0.00    -0.003 C 
ATOM     23  C   UNL     1      33.083 -21.187 -19.731  0.00  0.00    -0.003 C 
ATOM     24  C   UNL     1      35.606 -20.402 -20.625  0.00  0.00    +0.002 C 
ATOM     25  C   UNL     1      33.204 -20.152 -20.658  0.00  0.00    +0.002 C 
ATOM     26  C   UNL     1      34.466 -19.760 -21.104  0.00  0.00    +0.031 C 
BRANCH  26  29
ATOM     27  N   UNL     1      34.610 -18.934 -23.441  0.00  0.00    -0.343 N 
ATOM     28  N   UNL     1      34.696 -17.432 -21.654  0.00  0.00    -0.285 NA
ATOM     29  C   UNL     1      34.592 -18.681 -22.071  0.00  0.00    +0.117 C 
ATOM     30  H   UNL     1      34.697 -18.188 -24.078  0.00  0.00    +0.144 HD
ATOM     31  H   UNL     1      34.536 -19.857 -23.772  0.00  0.00    +0.144 HD
ATOM     32  H   UNL     1      34.782 -16.700 -22.306  0.00  0.00    +0.188 HD
ENDBRANCH  26  29
ENDBRANCH  20  21
ENDBRANCH   2  20
TORSDOF 7
ENDMDL
MODEL 3
REMARK VINA RESULT:     -10.8      8.476     12.408
REMARK  Name = 25113615
REMARK  7 active torsions:
REMARK  status: ('A' for Active; 'I' for Inactive)
REMARK    1  A    between atoms: N_2  and  C_20
REMARK    2  A    between atoms: C_3  and  C_7
REMARK    3  A    between atoms: C_11  and  C_12
REMARK    4  A    between atoms: C_12  and  C_13
REMARK    5  A    between atoms: C_13  and  C_14
REMARK    6  A    between atoms: C_20  and  C_21
REMARK    7  A    between atoms: C_26  and  C_29
REMARK                            x       y       z     vdW  Elec       q    Type
REMARK                         _______ _______ _______ _____ _____    ______ ____
ROOT
ATOM      1  O   UNL     1      32.824 -15.553 -21.886  0.00  0.00    -0.273 OA
ATOM      2  N   UNL     1      32.821 -13.295 -22.454  0.00  0.00    -0.299 N 
ATOM      3  C   UNL     1      33.249 -14.608 -22.547  0.00  0.00    +0.241 C 
ATOM      4  H   UNL     1      33.240 -12.623 -23.040  0.00  0.00    +0.150 HD
ENDROOT
BRANCH   3   7
ATOM      5  O   UNL     1      34.570 -18.396 -24.240  0.00  0.00    -0.275 OA
ATOM      6  N   UNL     1      34.158 -16.123 -24.165  0.00  0.00    -0.273 N 
ATOM      7  C   UNL     1      34.309 -14.788 -23.592  0.00  0.00    +0.152 C 
ATOM      8  C   UNL     1      34.076 -13.840 -24.765  0.00  0.00    +0.031 C 
ATOM      9  C   UNL     1      33.118 -14.620 -25.665  0.00  0.00    +0.024 C 
ATOM     10  C   UNL     1      33.584 -16.058 -25.502  0.00  0.00    +0.094 C 
ATOM     11  C   UNL     1      34.613 -17.320 -23.637  0.00  0.00    +0.226 C 
BRANCH  11  12
ATOM     12  C   UNL     1      35.189 -17.256 -22.245  0.00  0.00    +0.090 C 
BRANCH  12  13
ATOM     13  C   UNL     1      35.918 -18.549 -21.908  0.00  0.00    +0.036 C 
BRANCH  13  14
ATOM     14  C   UNL     1      35.089 -19.505 -21.086  0.00  0.00    -0.022 C 
ATOM     15  C   UNL     1      35.708 -20.535 -20.379  0.00  0.00    -0.004 C 
ATOM     16  C   UNL     1      33.703 -19.358 -21.033  0.00  0.00    -0.004 C 
ATOM     17  C   UNL     1      34.942 -21.420 -19.619  0.00  0.00    -0.000 C 
ATOM     18  C   UNL     1      32.937 -20.242 -20.273  0.00  0.00    -0.000 C 
ATOM     19  C   UNL     1      33.556 -21.273 -19.566  0.00  0.00    -0.000 C 
ENDBRANCH  13  14
ENDBRANCH  12  13
ENDBRANCH  11  12
ENDBRANCH   3   7
BRANCH   2  20
ATOM     20  C   UNL     1      31.790 -12.863 -21.539  0.00  0.00    +0.116 C 
BRANCH  20  21
ATOM     21  C   UNL     1      31.891 -11.396 -21.232  0.00  0.00    -0.003 C 
ATOM     22  C   UNL     1      32.119 -10.483 -22.262  0.00  0.00    -0.003 C 
ATOM     23  C   UNL     1      31.760 -10.947 -19.917  0.00  0.00    -0.003 C 
ATOM     24  C   UNL     1      32.216  -9.121 -21.977  0.00  0.00    +0.002 C 
ATOM     25  C   UNL     1      31.856  -9.584 -19.634  0.00  0.00    +0.002 C 
ATOM     26  C   UNL     1      32.084  -8.672 -20.664  0.00  0.00    +0.031 C 
BRANCH  26  29
ATOM     27  N   UNL     1      31.436  -6.310 -21.072  0.00  0.00    -0.343 N 
ATOM     28  N   UNL     1      32.999  -6.833 -19.416  0.00  0.00    -0.285 NA
ATOM     29  C   UNL     1      32.183  -7.251 -20.368  0.00  0.00    +0.117 C 
ATOM     30  H   UNL     1      31.519  -5.353 -20.856  0.00  0.00    +0.144 HD
ATOM     31  H   UNL     1      30.825  -6.601 -21.787  0.00  0.00    +0.144 HD
ATOM     32  H   UNL     1      33.068  -5.872 -19.215  0.00  0.00    +0.188 HD
ENDBRANCH  26  29
ENDBRANCH  20  21
ENDBRANCH   2  20
TORSDOF 7
ENDMDL
MODEL 4
REMARK VINA RESULT:     -10.7      2.989      7.010
REMARK  Name = 25113615
REMARK  7 active torsions:
REMARK  status: ('A' for Active; 'I' for Inactive)
REMARK    1  A    between atoms: N_2  and  C_20
REMARK    2  A    between atoms: C_3  and  C_7
REMARK    3  A    between atoms: C_11  and  C_12
REMARK    4  A    between atoms: C_12  and  C_13
REMARK    5  A    between atoms: C_13  and  C_14
REMARK    6  A    between atoms: C_20  and  C_21
REMARK    7  A    between atoms: C_26  and  C_29
REMARK                            x       y       z     vdW  Elec       q    Type
REMARK                         _______ _______ _______ _____ _____    ______ ____
ROOT
ATOM      1  O   UNL     1      34.024 -24.244 -16.959  0.00  0.00    -0.273 OA
ATOM      2  N   UNL     1      34.931 -22.253 -17.756  0.00  0.00    -0.299 N 
ATOM      3  C   UNL     1      34.632 -23.191 -16.782  0.00  0.00    +0.241 C 
ATOM      4  H   UNL     1      35.426 -21.444 -17.491  0.00  0.00    +0.150 HD
ENDROOT
BRANCH   3   7
ATOM      5  O   UNL     1      33.271 -24.726 -12.942  0.00  0.00    -0.275 OA
ATOM      6  N   UNL     1      34.744 -23.815 -14.472  0.00  0.00    -0.273 N 
ATOM      7  C   UNL     1      35.163 -22.800 -15.436  0.00  0.00    +0.152 C 
ATOM      8  C   UNL     1      36.688 -22.863 -15.418  0.00  0.00    +0.031 C 
ATOM      9  C   UNL     1      36.978 -24.320 -15.062  0.00  0.00    +0.024 C 
ATOM     10  C   UNL     1      35.862 -24.667 -14.089  0.00  0.00    +0.094 C 
ATOM     11  C   UNL     1      33.513 -23.924 -13.847  0.00  0.00    +0.226 C 
BRANCH  11  12
ATOM     12  C   UNL     1      32.437 -22.984 -14.331  0.00  0.00    +0.090 C 
BRANCH  12  13
ATOM     13  C   UNL     1      31.074 -23.418 -13.812  0.00  0.00    +0.036 C 
BRANCH  13  14
ATOM     14  C   UNL     1      30.012 -23.457 -14.884  0.00  0.00    -0.022 C 
ATOM     15  C   UNL     1      29.322 -22.295 -15.224  0.00  0.00    -0.004 C 
ATOM     16  C   UNL     1      29.721 -24.657 -15.533  0.00  0.00    -0.004 C 
ATOM     17  C   UNL     1      28.340 -22.330 -16.215  0.00  0.00    -0.000 C 
ATOM     18  C   UNL     1      28.739 -24.693 -16.523  0.00  0.00    -0.000 C 
ATOM     19  C   UNL     1      28.049 -23.529 -16.864  0.00  0.00    -0.000 C 
ENDBRANCH  13  14
ENDBRANCH  12  13
ENDBRANCH  11  12
ENDBRANCH   3   7
BRANCH   2  20
ATOM     20  C   UNL     1      34.551 -22.405 -19.142  0.00  0.00    +0.116 C 
BRANCH  20  21
ATOM     21  C   UNL     1      34.659 -21.112 -19.898  0.00  0.00    -0.003 C 
ATOM     22  C   UNL     1      33.503 -20.433 -20.284  0.00  0.00    -0.003 C 
ATOM     23  C   UNL     1      35.914 -20.591 -20.216  0.00  0.00    -0.003 C 
ATOM     24  C   UNL     1      33.603 -19.233 -20.989  0.00  0.00    +0.002 C 
ATOM     25  C   UNL     1      36.012 -19.391 -20.920  0.00  0.00    +0.002 C 
ATOM     26  C   UNL     1      34.857 -18.712 -21.306  0.00  0.00    +0.031 C 
BRANCH  26  29
ATOM     27  N   UNL     1      35.824 -17.324 -23.123  0.00  0.00    -0.343 N 
ATOM     28  N   UNL     1      34.226 -16.423 -21.676  0.00  0.00    -0.285 NA
ATOM     29  C   UNL     1      34.960 -17.460 -22.039  0.00  0.00    +0.117 C 
ATOM     30  H   UNL     1      35.878 -16.467 -23.605  0.00  0.00    +0.144 HD
ATOM     31  H   UNL     1      36.381 -18.083 -23.407  0.00  0.00    +0.144 HD
ATOM     32  H   UNL     1      34.295 -15.575 -22.171  0.00  0.00    +0.188 HD
ENDBRANCH  26  29
ENDBRANCH  20  21
ENDBRANCH   2  20
TORSDOF 7
ENDMDL
MODEL 5
REMARK VINA RESULT:     -10.3      8.948     12.930
REMARK  Name = 25113615
REMARK  7 active torsions:
REMARK  status: ('A' for Active; 'I' for Inactive)
REMARK    1  A    between atoms: N_2  and  C_20
REMARK    2  A    between atoms: C_3  and  C_7
REMARK    3  A    between atoms: C_11  and  C_12
REMARK    4  A    between atoms: C_12  and  C_13
REMARK    5  A    between atoms: C_13  and  C_14
REMARK    6  A    between atoms: C_20  and  C_21
REMARK    7  A    between atoms: C_26  and  C_29
REMARK                            x       y       z     vdW  Elec       q    Type
REMARK                         _______ _______ _______ _____ _____    ______ ____
ROOT
ATOM      1  O   UNL     1      32.357 -15.007 -22.469  0.00  0.00    -0.273 OA
ATOM      2  N   UNL     1      32.608 -12.709 -22.750  0.00  0.00    -0.299 N 
ATOM      3  C   UNL     1      32.899 -14.039 -22.998  0.00  0.00    +0.241 C 
ATOM      4  H   UNL     1      33.113 -12.020 -23.238  0.00  0.00    +0.150 HD
ENDROOT
BRANCH   3   7
ATOM      5  O   UNL     1      34.461 -17.813 -24.506  0.00  0.00    -0.275 OA
ATOM      6  N   UNL     1      33.904 -15.571 -24.542  0.00  0.00    -0.273 N 
ATOM      7  C   UNL     1      33.969 -14.202 -24.036  0.00  0.00    +0.152 C 
ATOM      8  C   UNL     1      33.675 -13.331 -25.254  0.00  0.00    +0.031 C 
ATOM      9  C   UNL     1      32.770 -14.213 -26.111  0.00  0.00    +0.024 C 
ATOM     10  C   UNL     1      33.327 -15.609 -25.879  0.00  0.00    +0.094 C 
ATOM     11  C   UNL     1      34.435 -16.709 -23.958  0.00  0.00    +0.226 C 
BRANCH  11  12
ATOM     12  C   UNL     1      35.005 -16.540 -22.572  0.00  0.00    +0.090 C 
BRANCH  12  13
ATOM     13  C   UNL     1      34.158 -17.284 -21.550  0.00  0.00    +0.036 C 
BRANCH  13  14
ATOM     14  C   UNL     1      34.797 -18.562 -21.064  0.00  0.00    -0.022 C 
ATOM     15  C   UNL     1      33.998 -19.642 -20.689  0.00  0.00    -0.004 C 
ATOM     16  C   UNL     1      36.185 -18.663 -20.988  0.00  0.00    -0.004 C 
ATOM     17  C   UNL     1      34.587 -20.824 -20.239  0.00  0.00    -0.000 C 
ATOM     18  C   UNL     1      36.775 -19.844 -20.537  0.00  0.00    -0.000 C 
ATOM     19  C   UNL     1      35.976 -20.925 -20.163  0.00  0.00    -0.000 C 
ENDBRANCH  13  14
ENDBRANCH  12  13
ENDBRANCH  11  12
ENDBRANCH   3   7
BRANCH   2  20
ATOM     20  C   UNL     1      31.597 -12.285 -21.808  0.00  0.00    +0.116 C 
BRANCH  20  21
ATOM     21  C   UNL     1      31.748 -10.837 -21.439  0.00  0.00    -0.003 C 
ATOM     22  C   UNL     1      31.921  -9.878 -22.437  0.00  0.00    -0.003 C 
ATOM     23  C   UNL     1      31.717 -10.451 -20.098  0.00  0.00    -0.003 C 
ATOM     24  C   UNL     1      32.064  -8.533 -22.094  0.00  0.00    +0.002 C 
ATOM     25  C   UNL     1      31.859  -9.106 -19.756  0.00  0.00    +0.002 C 
ATOM     26  C   UNL     1      32.033  -8.147 -20.754  0.00  0.00    +0.031 C 
BRANCH  26  29
ATOM     27  N   UNL     1      31.612  -5.736 -21.174  0.00  0.00    -0.343 N 
ATOM     28  N   UNL     1      32.867  -6.408 -19.321  0.00  0.00    -0.285 NA
ATOM     29  C   UNL     1      32.180  -6.745 -20.398  0.00  0.00    +0.117 C 
ATOM     30  H   UNL     1      31.725  -4.794 -20.915  0.00  0.00    +0.144 HD
ATOM     31  H   UNL     1      31.099  -5.966 -21.982  0.00  0.00    +0.144 HD
ATOM     32  H   UNL     1      32.968  -5.460 -19.079  0.00  0.00    +0.188 HD
ENDBRANCH  26  29
ENDBRANCH  20  21
ENDBRANCH   2  20
TORSDOF 7
ENDMDL
MODEL 6
REMARK VINA RESULT:     -10.1      6.912     10.547
REMARK  Name = 25113615
REMARK  7 active torsions:
REMARK  status: ('A' for Active; 'I' for Inactive)
REMARK    1  A    between atoms: N_2  and  C_20
REMARK    2  A    between atoms: C_3  and  C_7
REMARK    3  A    between atoms: C_11  and  C_12
REMARK    4  A    between atoms: C_12  and  C_13
REMARK    5  A    between atoms: C_13  and  C_14
REMARK    6  A    between atoms: C_20  and  C_21
REMARK    7  A    between atoms: C_26  and  C_29
REMARK                            x       y       z     vdW  Elec       q    Type
REMARK                         _______ _______ _______ _____ _____    ______ ____
ROOT
ATOM      1  O   UNL     1      34.364 -16.606 -23.851  0.00  0.00    -0.273 OA
ATOM      2  N   UNL     1      35.279 -17.369 -21.850  0.00  0.00    -0.299 N 
ATOM      3  C   UNL     1      34.725 -16.419 -22.692  0.00  0.00    +0.241 C 
ATOM      4  H   UNL     1      35.530 -17.098 -20.938  0.00  0.00    +0.150 HD
ENDROOT
BRANCH   3   7
ATOM      5  O   UNL     1      31.705 -13.416 -23.594  0.00  0.00    -0.275 OA
ATOM      6  N   UNL     1      33.238 -14.579 -22.315  0.00  0.00    -0.273 N 
ATOM      7  C   UNL     1      34.577 -15.086 -22.023  0.00  0.00    +0.152 C 
ATOM      8  C   UNL     1      34.604 -15.238 -20.504  0.00  0.00    +0.031 C 
ATOM      9  C   UNL     1      33.147 -15.528 -20.152  0.00  0.00    +0.024 C 
ATOM     10  C   UNL     1      32.373 -14.679 -21.147  0.00  0.00    +0.094 C 
ATOM     11  C   UNL     1      32.815 -13.938 -23.468  0.00  0.00    +0.226 C 
BRANCH  11  12
ATOM     12  C   UNL     1      33.803 -13.899 -24.606  0.00  0.00    +0.090 C 
BRANCH  12  13
ATOM     13  C   UNL     1      33.460 -12.777 -25.575  0.00  0.00    +0.036 C 
BRANCH  13  14
ATOM     14  C   UNL     1      33.972 -11.428 -25.131  0.00  0.00    -0.022 C 
ATOM     15  C   UNL     1      33.361 -10.766 -24.066  0.00  0.00    -0.004 C 
ATOM     16  C   UNL     1      35.055 -10.844 -25.786  0.00  0.00    -0.004 C 
ATOM     17  C   UNL     1      33.834  -9.519 -23.655  0.00  0.00    -0.000 C 
ATOM     18  C   UNL     1      35.528  -9.597 -25.376  0.00  0.00    -0.000 C 
ATOM     19  C   UNL     1      34.917  -8.935 -24.310  0.00  0.00    -0.000 C 
ENDBRANCH  13  14
ENDBRANCH  12  13
ENDBRANCH  11  12
ENDBRANCH   3   7
BRANCH   2  20
ATOM     20  C   UNL     1      35.505 -18.740 -22.247  0.00  0.00    +0.116 C 
BRANCH  20  21
ATOM     21  C   UNL     1      34.996 -19.712 -21.222  0.00  0.00    -0.003 C 
ATOM     22  C   UNL     1      35.883 -20.577 -20.581  0.00  0.00    -0.003 C 
ATOM     23  C   UNL     1      33.636 -19.753 -20.912  0.00  0.00    -0.003 C 
ATOM     24  C   UNL     1      35.410 -21.482 -19.630  0.00  0.00    +0.002 C 
ATOM     25  C   UNL     1      33.164 -20.657 -19.962  0.00  0.00    +0.002 C 
ATOM     26  C   UNL     1      34.051 -21.522 -19.321  0.00  0.00    +0.031 C 
BRANCH  26  29
ATOM     27  N   UNL     1      32.207 -22.534 -18.002  0.00  0.00    -0.343 N 
ATOM     28  N   UNL     1      34.404 -23.274 -17.714  0.00  0.00    -0.285 NA
ATOM     29  C   UNL     1      33.560 -22.464 -18.328  0.00  0.00    +0.117 C 
ATOM     30  H   UNL     1      31.896 -23.179 -17.327  0.00  0.00    +0.144 HD
ATOM     31  H   UNL     1      31.562 -21.937 -18.446  0.00  0.00    +0.144 HD
ATOM     32  H   UNL     1      34.073 -23.912 -17.042  0.00  0.00    +0.188 HD
ENDBRANCH  26  29
ENDBRANCH  20  21
ENDBRANCH   2  20
TORSDOF 7
ENDMDL
MODEL 7
REMARK VINA RESULT:      -9.8     11.258     15.276
REMARK  Name = 25113615
REMARK  7 active torsions:
REMARK  status: ('A' for Active; 'I' for Inactive)
REMARK    1  A    between atoms: N_2  and  C_20
REMARK    2  A    between atoms: C_3  and  C_7
REMARK    3  A    between atoms: C_11  and  C_12
REMARK    4  A    between atoms: C_12  and  C_13
REMARK    5  A    between atoms: C_13  and  C_14
REMARK    6  A    between atoms: C_20  and  C_21
REMARK    7  A    between atoms: C_26  and  C_29
REMARK                            x       y       z     vdW  Elec       q    Type
REMARK                         _______ _______ _______ _____ _____    ______ ____
ROOT
ATOM      1  O   UNL     1      33.479 -11.602 -23.646  0.00  0.00    -0.273 OA
ATOM      2  N   UNL     1      32.500  -9.775 -22.585  0.00  0.00    -0.299 N 
ATOM      3  C   UNL     1      32.619 -11.114 -22.917  0.00  0.00    +0.241 C 
ATOM      4  H   UNL     1      31.765  -9.503 -21.989  0.00  0.00    +0.150 HD
ENDROOT
BRANCH   3   7
ATOM      5  O   UNL     1      33.318 -14.719 -20.579  0.00  0.00    -0.275 OA
ATOM      6  N   UNL     1      32.226 -12.801 -21.262  0.00  0.00    -0.273 N 
ATOM      7  C   UNL     1      31.569 -11.957 -22.258  0.00  0.00    +0.152 C 
ATOM      8  C   UNL     1      30.609 -11.089 -21.449  0.00  0.00    +0.031 C 
ATOM      9  C   UNL     1      31.300 -10.966 -20.093  0.00  0.00    +0.024 C 
ATOM     10  C   UNL     1      31.954 -12.327 -19.912  0.00  0.00    +0.094 C 
ATOM     11  C   UNL     1      32.904 -13.989 -21.482  0.00  0.00    +0.226 C 
BRANCH  11  12
ATOM     12  C   UNL     1      33.121 -14.372 -22.924  0.00  0.00    +0.090 C 
BRANCH  12  13
ATOM     13  C   UNL     1      34.550 -14.847 -23.142  0.00  0.00    +0.036 C 
BRANCH  13  14
ATOM     14  C   UNL     1      34.646 -16.314 -23.484  0.00  0.00    -0.022 C 
ATOM     15  C   UNL     1      35.004 -17.236 -22.501  0.00  0.00    -0.004 C 
ATOM     16  C   UNL     1      34.377 -16.746 -24.782  0.00  0.00    -0.004 C 
ATOM     17  C   UNL     1      35.093 -18.593 -22.816  0.00  0.00    -0.000 C 
ATOM     18  C   UNL     1      34.466 -18.102 -25.097  0.00  0.00    -0.000 C 
ATOM     19  C   UNL     1      34.823 -19.026 -24.114  0.00  0.00    -0.000 C 
ENDBRANCH  13  14
ENDBRANCH  12  13
ENDBRANCH  11  12
ENDBRANCH   3   7
BRANCH   2  20
ATOM     20  C   UNL     1      33.403  -8.757 -23.072  0.00  0.00    +0.116 C 
BRANCH  20  21
ATOM     21  C   UNL     1      32.734  -7.418 -23.179  0.00  0.00    -0.003 C 
ATOM     22  C   UNL     1      31.907  -6.968 -22.149  0.00  0.00    -0.003 C 
ATOM     23  C   UNL     1      32.935  -6.624 -24.309  0.00  0.00    -0.003 C 
ATOM     24  C   UNL     1      31.283  -5.724 -22.249  0.00  0.00    +0.002 C 
ATOM     25  C   UNL     1      32.311  -5.381 -24.408  0.00  0.00    +0.002 C 
ATOM     26  C   UNL     1      31.485  -4.931 -23.378  0.00  0.00    +0.031 C 
BRANCH  26  29
ATOM     27  N   UNL     1      30.550  -3.062 -24.719  0.00  0.00    -0.343 N 
ATOM     28  N   UNL     1      30.506  -2.974 -22.385  0.00  0.00    -0.285 NA
ATOM     29  C   UNL     1      30.834  -3.634 -23.481  0.00  0.00    +0.117 C 
ATOM     30  H   UNL     1      30.110  -2.183 -24.766  0.00  0.00    +0.144 HD
ATOM     31  H   UNL     1      30.790  -3.536 -25.547  0.00  0.00    +0.144 HD
ATOM     32  H   UNL     1      30.066  -2.096 -22.452  0.00  0.00    +0.188 HD
ENDBRANCH  26  29
ENDBRANCH  20  21
ENDBRANCH   2  20
TORSDOF 7
ENDMDL
MODEL 8
REMARK VINA RESULT:      -9.8      8.362     12.650
REMARK  Name = 25113615
REMARK  7 active torsions:
REMARK  status: ('A' for Active; 'I' for Inactive)
REMARK    1  A    between atoms: N_2  and  C_20
REMARK    2  A    between atoms: C_3  and  C_7
REMARK    3  A    between atoms: C_11  and  C_12
REMARK    4  A    between atoms: C_12  and  C_13
REMARK    5  A    between atoms: C_13  and  C_14
REMARK    6  A    between atoms: C_20  and  C_21
REMARK    7  A    between atoms: C_26  and  C_29
REMARK                            x       y       z     vdW  Elec       q    Type
REMARK                         _______ _______ _______ _____ _____    ______ ____
ROOT
ATOM      1  O   UNL     1      35.246 -15.273 -23.737  0.00  0.00    -0.273 OA
ATOM      2  N   UNL     1      33.273 -14.102 -24.138  0.00  0.00    -0.299 N 
ATOM      3  C   UNL     1      34.064 -15.039 -23.495  0.00  0.00    +0.241 C 
ATOM      4  H   UNL     1      32.335 -14.006 -23.854  0.00  0.00    +0.150 HD
ENDROOT
BRANCH   3   7
ATOM      5  O   UNL     1      35.838 -17.453 -20.336  0.00  0.00    -0.275 OA
ATOM      6  N   UNL     1      34.273 -16.091 -21.352  0.00  0.00    -0.273 N 
ATOM      7  C   UNL     1      33.321 -15.760 -22.411  0.00  0.00    +0.152 C 
ATOM      8  C   UNL     1      32.312 -14.833 -21.739  0.00  0.00    +0.031 C 
ATOM      9  C   UNL     1      33.134 -14.140 -20.655  0.00  0.00    +0.024 C 
ATOM     10  C   UNL     1      34.086 -15.230 -20.192  0.00  0.00    +0.094 C 
ATOM     11  C   UNL     1      35.157 -17.156 -21.321  0.00  0.00    +0.226 C 
BRANCH  11  12
ATOM     12  C   UNL     1      35.259 -17.973 -22.584  0.00  0.00    +0.090 C 
BRANCH  12  13
ATOM     13  C   UNL     1      34.212 -19.078 -22.592  0.00  0.00    +0.036 C 
BRANCH  13  14
ATOM     14  C   UNL     1      34.284 -19.977 -21.382  0.00  0.00    -0.022 C 
ATOM     15  C   UNL     1      33.128 -20.262 -20.655  0.00  0.00    -0.004 C 
ATOM     16  C   UNL     1      35.506 -20.523 -20.991  0.00  0.00    -0.004 C 
ATOM     17  C   UNL     1      33.193 -21.094 -19.537  0.00  0.00    -0.000 C 
ATOM     18  C   UNL     1      35.572 -21.354 -19.872  0.00  0.00    -0.000 C 
ATOM     19  C   UNL     1      34.416 -21.639 -19.145  0.00  0.00    -0.000 C 
ENDBRANCH  13  14
ENDBRANCH  12  13
ENDBRANCH  11  12
ENDBRANCH   3   7
BRANCH   2  20
ATOM     20  C   UNL     1      33.759 -13.258 -25.205  0.00  0.00    +0.116 C 
BRANCH  20  21
ATOM     21  C   UNL     1      33.894 -11.827 -24.771  0.00  0.00    -0.003 C 
ATOM     22  C   UNL     1      33.087 -11.330 -23.748  0.00  0.00    -0.003 C 
ATOM     23  C   UNL     1      34.825 -10.993 -25.392  0.00  0.00    -0.003 C 
ATOM     24  C   UNL     1      33.210 -10.000 -23.346  0.00  0.00    +0.002 C 
ATOM     25  C   UNL     1      34.948  -9.663 -24.989  0.00  0.00    +0.002 C 
ATOM     26  C   UNL     1      34.141  -9.167 -23.966  0.00  0.00    +0.031 C 
BRANCH  26  29
ATOM     27  N   UNL     1      34.688  -6.790 -24.431  0.00  0.00    -0.343 N 
ATOM     28  N   UNL     1      33.992  -7.443 -22.299  0.00  0.00    -0.285 NA
ATOM     29  C   UNL     1      34.270  -7.781 -23.545  0.00  0.00    +0.117 C 
ATOM     30  H   UNL     1      34.769  -5.858 -24.125  0.00  0.00    +0.144 HD
ATOM     31  H   UNL     1      34.903  -7.022 -25.363  0.00  0.00    +0.144 HD
ATOM     32  H   UNL     1      34.079  -6.506 -22.012  0.00  0.00    +0.188 HD
ENDBRANCH  26  29
ENDBRANCH  20  21
ENDBRANCH   2  20
TORSDOF 7
ENDMDL
MODEL 9
REMARK VINA RESULT:      -9.6      7.588     11.374
REMARK  Name = 25113615
REMARK  7 active torsions:
REMARK  status: ('A' for Active; 'I' for Inactive)
REMARK    1  A    between atoms: N_2  and  C_20
REMARK    2  A    between atoms: C_3  and  C_7
REMARK    3  A    between atoms: C_11  and  C_12
REMARK    4  A    between atoms: C_12  and  C_13
REMARK    5  A    between atoms: C_13  and  C_14
REMARK    6  A    between atoms: C_20  and  C_21
REMARK    7  A    between atoms: C_26  and  C_29
REMARK                            x       y       z     vdW  Elec       q    Type
REMARK                         _______ _______ _______ _____ _____    ______ ____
ROOT
ATOM      1  O   UNL     1      33.094 -16.755 -21.042  0.00  0.00    -0.273 OA
ATOM      2  N   UNL     1      33.393 -14.525 -21.641  0.00  0.00    -0.299 N 
ATOM      3  C   UNL     1      33.697 -15.875 -21.652  0.00  0.00    +0.241 C 
ATOM      4  H   UNL     1      33.953 -13.914 -22.173  0.00  0.00    +0.150 HD
ENDROOT
BRANCH   3   7
ATOM      5  O   UNL     1      34.795 -19.805 -23.171  0.00  0.00    -0.275 OA
ATOM      6  N   UNL     1      34.646 -17.500 -23.136  0.00  0.00    -0.273 N 
ATOM      7  C   UNL     1      34.868 -16.186 -22.535  0.00  0.00    +0.152 C 
ATOM      8  C   UNL     1      34.918 -15.228 -23.722  0.00  0.00    +0.031 C 
ATOM      9  C   UNL     1      34.015 -15.897 -24.756  0.00  0.00    +0.024 C 
ATOM     10  C   UNL     1      34.281 -17.378 -24.541  0.00  0.00    +0.094 C 
ATOM     11  C   UNL     1      34.877 -18.737 -22.559  0.00  0.00    +0.226 C 
BRANCH  11  12
ATOM     12  C   UNL     1      35.250 -18.730 -21.098  0.00  0.00    +0.090 C 
BRANCH  12  13
ATOM     13  C   UNL     1      36.119 -19.933 -20.762  0.00  0.00    +0.036 C 
BRANCH  13  14
ATOM     14  C   UNL     1      35.475 -20.876 -19.775  0.00  0.00    -0.022 C 
ATOM     15  C   UNL     1      34.122 -21.192 -19.893  0.00  0.00    -0.004 C 
ATOM     16  C   UNL     1      36.234 -21.431 -18.744  0.00  0.00    -0.004 C 
ATOM     17  C   UNL     1      33.526 -22.065 -18.981  0.00  0.00    -0.000 C 
ATOM     18  C   UNL     1      35.638 -22.303 -17.833  0.00  0.00    -0.000 C 
ATOM     19  C   UNL     1      34.285 -22.620 -17.951  0.00  0.00    -0.000 C 
ENDBRANCH  13  14
ENDBRANCH  12  13
ENDBRANCH  11  12
ENDBRANCH   3   7
BRANCH   2  20
ATOM     20  C   UNL     1      32.293 -13.969 -20.886  0.00  0.00    +0.116 C 
BRANCH  20  21
ATOM     21  C   UNL     1      32.132 -12.496 -21.131  0.00  0.00    -0.003 C 
ATOM     22  C   UNL     1      32.345 -11.976 -22.408  0.00  0.00    -0.003 C 
ATOM     23  C   UNL     1      31.774 -11.648 -20.083  0.00  0.00    -0.003 C 
ATOM     24  C   UNL     1      32.198 -10.607 -22.636  0.00  0.00    +0.002 C 
ATOM     25  C   UNL     1      31.627 -10.280 -20.312  0.00  0.00    +0.002 C 
ATOM     26  C   UNL     1      31.839  -9.760 -21.588  0.00  0.00    +0.031 C 
BRANCH  26  29
ATOM     27  N   UNL     1      31.095  -7.853 -22.995  0.00  0.00    -0.343 N 
ATOM     28  N   UNL     1      32.112  -7.465 -20.927  0.00  0.00    -0.285 NA
ATOM     29  C   UNL     1      31.685  -8.333 -21.827  0.00  0.00    +0.117 C 
ATOM     30  H   UNL     1      31.002  -6.884 -23.136  0.00  0.00    +0.144 HD
ATOM     31  H   UNL     1      30.774  -8.483 -23.679  0.00  0.00    +0.144 HD
ATOM     32  H   UNL     1      32.008  -6.500 -21.087  0.00  0.00    +0.188 HD
ENDBRANCH  26  29
ENDBRANCH  20  21
ENDBRANCH   2  20
TORSDOF 7
ENDMDL
