MODEL 1
REMARK VINA RESULT:      -9.1      0.000      0.000
REMARK  Name = 124075
REMARK  1 active torsions:
REMARK  status: ('A' for Active; 'I' for Inactive)
REMARK    1  A    between atoms: C_9  and  O_16
REMARK                            x       y       z     vdW  Elec       q    Type
REMARK                         _______ _______ _______ _____ _____    ______ ____
ROOT
ATOM      1  O   UNL     1      35.272 -18.247 -22.819  0.00  0.00    -0.433 OA
ATOM      2  O   UNL     1      35.539 -17.785 -20.482  0.00  0.00    -0.435 OA
ATOM      3  O   UNL     1      33.335 -15.411 -26.824  0.00  0.00    -0.269 OA
ATOM      4  N   UNL     1      34.081 -16.266 -24.783  0.00  0.00    -0.250 N 
ATOM      5  C   UNL     1      34.266 -16.055 -23.375  0.00  0.00    +0.094 C 
ATOM      6  C   UNL     1      33.871 -14.823 -22.806  0.00  0.00    +0.051 C 
ATOM      7  C   UNL     1      34.822 -16.997 -22.509  0.00  0.00    +0.190 C 
ATOM      8  C   UNL     1      34.981 -16.744 -21.159  0.00  0.00    +0.178 C 
ATOM      9  C   UNL     1      33.280 -13.796 -23.670  0.00  0.00    +0.144 C 
ATOM     10  C   UNL     1      34.044 -14.586 -21.420  0.00  0.00    +0.008 C 
ATOM     11  C   UNL     1      34.603 -15.552 -20.586  0.00  0.00    +0.040 C 
ATOM     12  C   UNL     1      33.518 -15.291 -25.612  0.00  0.00    +0.256 C 
ATOM     13  C   UNL     1      33.115 -14.014 -24.976  0.00  0.00    +0.095 C 
ATOM     14  C   UNL     1      35.719 -18.737 -21.544  0.00  0.00    +0.429 C 
ATOM     15  C   UNL     1      34.486 -17.531 -25.387  0.00  0.00    +0.120 C 
ENDROOT
BRANCH   9  16
ATOM     16  O   UNL     1      32.915 -12.569 -23.146  0.00  0.00    -0.471 OA
ATOM     17  C   UNL     1      33.508 -11.517 -23.881  0.00  0.00    +0.252 C 
ENDBRANCH   9  16
TORSDOF 1
ENDMDL
MODEL 2
REMARK VINA RESULT:      -8.5      1.366      4.401
REMARK  Name = 124075
REMARK  1 active torsions:
REMARK  status: ('A' for Active; 'I' for Inactive)
REMARK    1  A    between atoms: C_9  and  O_16
REMARK                            x       y       z     vdW  Elec       q    Type
REMARK                         _______ _______ _______ _____ _____    ______ ____
ROOT
ATOM      1  O   UNL     1      32.357 -13.181 -23.433  0.00  0.00    -0.433 OA
ATOM      2  O   UNL     1      32.025 -12.705 -21.107  0.00  0.00    -0.435 OA
ATOM      3  O   UNL     1      34.768 -17.132 -25.964  0.00  0.00    -0.269 OA
ATOM      4  N   UNL     1      33.840 -15.628 -24.437  0.00  0.00    -0.250 N 
ATOM      5  C   UNL     1      33.609 -15.283 -23.062  0.00  0.00    +0.094 C 
ATOM      6  C   UNL     1      34.101 -16.134 -22.047  0.00  0.00    +0.051 C 
ATOM      7  C   UNL     1      32.918 -14.145 -22.647  0.00  0.00    +0.190 C 
ATOM      8  C   UNL     1      32.720 -13.859 -21.310  0.00  0.00    +0.178 C 
ATOM      9  C   UNL     1      34.837 -17.345 -22.427  0.00  0.00    +0.144 C 
ATOM     10  C   UNL     1      33.886 -15.820 -20.683  0.00  0.00    +0.008 C 
ATOM     11  C   UNL     1      33.191 -14.673 -20.307  0.00  0.00    +0.040 C 
ATOM     12  C   UNL     1      34.540 -16.781 -24.806  0.00  0.00    +0.256 C 
ATOM     13  C   UNL     1      35.041 -17.646 -23.711  0.00  0.00    +0.095 C 
ATOM     14  C   UNL     1      31.800 -12.280 -22.461  0.00  0.00    +0.429 C 
ATOM     15  C   UNL     1      33.336 -14.762 -25.498  0.00  0.00    +0.120 C 
ENDROOT
BRANCH   9  16
ATOM     16  O   UNL     1      35.300 -18.213 -21.456  0.00  0.00    -0.471 OA
ATOM     17  C   UNL     1      34.652 -19.465 -21.555  0.00  0.00    +0.252 C 
ENDBRANCH   9  16
TORSDOF 1
ENDMDL
MODEL 3
REMARK VINA RESULT:      -8.5      1.138      3.219
REMARK  Name = 124075
REMARK  1 active torsions:
REMARK  status: ('A' for Active; 'I' for Inactive)
REMARK    1  A    between atoms: C_9  and  O_16
REMARK                            x       y       z     vdW  Elec       q    Type
REMARK                         _______ _______ _______ _____ _____    ______ ____
ROOT
ATOM      1  O   UNL     1      35.057 -17.373 -21.115  0.00  0.00    -0.433 OA
ATOM      2  O   UNL     1      35.487 -19.430 -22.267  0.00  0.00    -0.435 OA
ATOM      3  O   UNL     1      33.319 -12.664 -22.737  0.00  0.00    -0.269 OA
ATOM      4  N   UNL     1      34.042 -14.871 -22.496  0.00  0.00    -0.250 N 
ATOM      5  C   UNL     1      34.323 -16.131 -23.125  0.00  0.00    +0.094 C 
ATOM      6  C   UNL     1      34.122 -16.264 -24.518  0.00  0.00    +0.051 C 
ATOM      7  C   UNL     1      34.787 -17.258 -22.448  0.00  0.00    +0.190 C 
ATOM      8  C   UNL     1      35.040 -18.449 -23.100  0.00  0.00    +0.178 C 
ATOM      9  C   UNL     1      33.636 -15.110 -25.282  0.00  0.00    +0.144 C 
ATOM     10  C   UNL     1      34.388 -17.495 -25.165  0.00  0.00    +0.008 C 
ATOM     11  C   UNL     1      34.851 -18.600 -24.454  0.00  0.00    +0.040 C 
ATOM     12  C   UNL     1      33.578 -13.767 -23.219  0.00  0.00    +0.256 C 
ATOM     13  C   UNL     1      33.383 -13.947 -24.676  0.00  0.00    +0.095 C 
ATOM     14  C   UNL     1      35.497 -18.738 -21.009  0.00  0.00    +0.429 C 
ATOM     15  C   UNL     1      34.242 -14.717 -21.059  0.00  0.00    +0.120 C 
ENDROOT
BRANCH   9  16
ATOM     16  O   UNL     1      33.398 -15.221 -26.639  0.00  0.00    -0.471 OA
ATOM     17  C   UNL     1      33.263 -13.944 -27.229  0.00  0.00    +0.252 C 
ENDBRANCH   9  16
TORSDOF 1
ENDMDL
MODEL 4
REMARK VINA RESULT:      -8.3      1.575      5.178
REMARK  Name = 124075
REMARK  1 active torsions:
REMARK  status: ('A' for Active; 'I' for Inactive)
REMARK    1  A    between atoms: C_9  and  O_16
REMARK                            x       y       z     vdW  Elec       q    Type
REMARK                         _______ _______ _______ _____ _____    ______ ____
ROOT
ATOM      1  O   UNL     1      32.670 -13.953 -25.222  0.00  0.00    -0.433 OA
ATOM      2  O   UNL     1      33.687 -15.438 -26.805  0.00  0.00    -0.435 OA
ATOM      3  O   UNL     1      32.703 -13.781 -19.949  0.00  0.00    -0.269 OA
ATOM      4  N   UNL     1      32.975 -14.254 -22.220  0.00  0.00    -0.250 N 
ATOM      5  C   UNL     1      33.553 -15.108 -23.220  0.00  0.00    +0.094 C 
ATOM      6  C   UNL     1      34.346 -16.205 -22.813  0.00  0.00    +0.051 C 
ATOM      7  C   UNL     1      33.387 -14.928 -24.593  0.00  0.00    +0.190 C 
ATOM      8  C   UNL     1      33.967 -15.778 -25.515  0.00  0.00    +0.178 C 
ATOM      9  C   UNL     1      34.553 -16.442 -21.381  0.00  0.00    +0.144 C 
ATOM     10  C   UNL     1      34.931 -17.062 -23.778  0.00  0.00    +0.008 C 
ATOM     11  C   UNL     1      34.742 -16.850 -25.141  0.00  0.00    +0.040 C 
ATOM     12  C   UNL     1      33.169 -14.476 -20.853  0.00  0.00    +0.256 C 
ATOM     13  C   UNL     1      34.005 -15.637 -20.468  0.00  0.00    +0.095 C 
ATOM     14  C   UNL     1      32.861 -14.279 -26.609  0.00  0.00    +0.429 C 
ATOM     15  C   UNL     1      32.155 -13.116 -22.622  0.00  0.00    +0.120 C 
ENDROOT
BRANCH   9  16
ATOM     16  O   UNL     1      35.352 -17.487 -20.955  0.00  0.00    -0.471 OA
ATOM     17  C   UNL     1      34.638 -18.707 -20.985  0.00  0.00    +0.252 C 
ENDBRANCH   9  16
TORSDOF 1
ENDMDL
MODEL 5
REMARK VINA RESULT:      -8.3      1.398      4.687
REMARK  Name = 124075
REMARK  1 active torsions:
REMARK  status: ('A' for Active; 'I' for Inactive)
REMARK    1  A    between atoms: C_9  and  O_16
REMARK                            x       y       z     vdW  Elec       q    Type
REMARK                         _______ _______ _______ _____ _____    ______ ____
ROOT
ATOM      1  O   UNL     1      33.823 -14.690 -24.462  0.00  0.00    -0.433 OA
ATOM      2  O   UNL     1      33.805 -13.198 -22.586  0.00  0.00    -0.435 OA
ATOM      3  O   UNL     1      34.865 -19.841 -24.922  0.00  0.00    -0.269 OA
ATOM      4  N   UNL     1      34.499 -17.638 -24.239  0.00  0.00    -0.250 N 
ATOM      5  C   UNL     1      34.473 -16.691 -23.160  0.00  0.00    +0.094 C 
ATOM      6  C   UNL     1      34.785 -17.130 -21.853  0.00  0.00    +0.051 C 
ATOM      7  C   UNL     1      34.153 -15.342 -23.310  0.00  0.00    +0.190 C 
ATOM      8  C   UNL     1      34.140 -14.471 -22.237  0.00  0.00    +0.178 C 
ATOM      9  C   UNL     1      35.129 -18.538 -21.637  0.00  0.00    +0.144 C 
ATOM     10  C   UNL     1      34.764 -16.218 -20.769  0.00  0.00    +0.008 C 
ATOM     11  C   UNL     1      34.440 -14.877 -20.958  0.00  0.00    +0.040 C 
ATOM     12  C   UNL     1      34.826 -18.983 -24.040  0.00  0.00    +0.256 C 
ATOM     13  C   UNL     1      35.149 -19.401 -22.655  0.00  0.00    +0.095 C 
ATOM     14  C   UNL     1      33.607 -13.345 -24.001  0.00  0.00    +0.429 C 
ATOM     15  C   UNL     1      34.177 -17.203 -25.595  0.00  0.00    +0.120 C 
ENDROOT
BRANCH   9  16
ATOM     16  O   UNL     1      35.406 -19.002 -20.364  0.00  0.00    -0.471 OA
ATOM     17  C   UNL     1      35.421 -20.415 -20.339  0.00  0.00    +0.252 C 
ENDBRANCH   9  16
TORSDOF 1
ENDMDL
MODEL 6
REMARK VINA RESULT:      -8.0      9.095     11.927
REMARK  Name = 124075
REMARK  1 active torsions:
REMARK  status: ('A' for Active; 'I' for Inactive)
REMARK    1  A    between atoms: C_9  and  O_16
REMARK                            x       y       z     vdW  Elec       q    Type
REMARK                         _______ _______ _______ _____ _____    ______ ____
ROOT
ATOM      1  O   UNL     1      32.339 -24.427 -13.169  0.00  0.00    -0.433 OA
ATOM      2  O   UNL     1      30.460 -24.307 -14.651  0.00  0.00    -0.435 OA
ATOM      3  O   UNL     1      37.459 -23.316 -13.791  0.00  0.00    -0.269 OA
ATOM      4  N   UNL     1      35.159 -23.669 -13.988  0.00  0.00    -0.250 N 
ATOM      5  C   UNL     1      33.993 -23.623 -14.825  0.00  0.00    +0.094 C 
ATOM      6  C   UNL     1      34.123 -23.191 -16.165  0.00  0.00    +0.051 C 
ATOM      7  C   UNL     1      32.712 -23.980 -14.403  0.00  0.00    +0.190 C 
ATOM      8  C   UNL     1      31.621 -23.917 -15.248  0.00  0.00    +0.178 C 
ATOM      9  C   UNL     1      35.447 -22.804 -16.663  0.00  0.00    +0.144 C 
ATOM     10  C   UNL     1      32.990 -23.134 -17.012  0.00  0.00    +0.008 C 
ATOM     11  C   UNL     1      31.726 -23.499 -16.554  0.00  0.00    +0.040 C 
ATOM     12  C   UNL     1      36.424 -23.301 -14.458  0.00  0.00    +0.256 C 
ATOM     13  C   UNL     1      36.518 -22.856 -15.868  0.00  0.00    +0.095 C 
ATOM     14  C   UNL     1      30.926 -24.631 -13.332  0.00  0.00    +0.429 C 
ATOM     15  C   UNL     1      35.042 -24.110 -12.603  0.00  0.00    +0.120 C 
ENDROOT
BRANCH   9  16
ATOM     16  O   UNL     1      35.598 -22.345 -17.958  0.00  0.00    -0.471 OA
ATOM     17  C   UNL     1      36.768 -21.560 -18.077  0.00  0.00    +0.252 C 
ENDBRANCH   9  16
TORSDOF 1
ENDMDL
MODEL 7
REMARK VINA RESULT:      -7.8      9.628     12.225
REMARK  Name = 124075
REMARK  1 active torsions:
REMARK  status: ('A' for Active; 'I' for Inactive)
REMARK    1  A    between atoms: C_9  and  O_16
REMARK                            x       y       z     vdW  Elec       q    Type
REMARK                         _______ _______ _______ _____ _____    ______ ____
ROOT
ATOM      1  O   UNL     1      30.254 -22.941 -17.095  0.00  0.00    -0.433 OA
ATOM      2  O   UNL     1      28.557 -23.514 -15.503  0.00  0.00    -0.435 OA
ATOM      3  O   UNL     1      35.525 -23.026 -16.887  0.00  0.00    -0.269 OA
ATOM      4  N   UNL     1      33.223 -23.155 -16.515  0.00  0.00    -0.250 N 
ATOM      5  C   UNL     1      32.158 -23.478 -15.608  0.00  0.00    +0.094 C 
ATOM      6  C   UNL     1      32.475 -23.944 -14.312  0.00  0.00    +0.051 C 
ATOM      7  C   UNL     1      30.803 -23.366 -15.921  0.00  0.00    +0.190 C 
ATOM      8  C   UNL     1      29.815 -23.692 -15.012  0.00  0.00    +0.178 C 
ATOM      9  C   UNL     1      33.884 -24.081 -13.929  0.00  0.00    +0.144 C 
ATOM     10  C   UNL     1      31.444 -24.272 -13.398  0.00  0.00    +0.008 C 
ATOM     11  C   UNL     1      30.102 -24.146 -13.746  0.00  0.00    +0.040 C 
ATOM     12  C   UNL     1      34.569 -23.284 -16.156  0.00  0.00    +0.256 C 
ATOM     13  C   UNL     1      34.859 -23.773 -14.787  0.00  0.00    +0.095 C 
ATOM     14  C   UNL     1      28.845 -23.034 -16.827  0.00  0.00    +0.429 C 
ATOM     15  C   UNL     1      32.914 -22.676 -17.858  0.00  0.00    +0.120 C 
ENDROOT
BRANCH   9  16
ATOM     16  O   UNL     1      34.223 -24.566 -12.679  0.00  0.00    -0.471 OA
ATOM     17  C   UNL     1      35.375 -23.912 -12.185  0.00  0.00    +0.252 C 
ENDBRANCH   9  16
TORSDOF 1
ENDMDL
MODEL 8
REMARK VINA RESULT:      -7.8      8.834     11.703
REMARK  Name = 124075
REMARK  1 active torsions:
REMARK  status: ('A' for Active; 'I' for Inactive)
REMARK    1  A    between atoms: C_9  and  O_16
REMARK                            x       y       z     vdW  Elec       q    Type
REMARK                         _______ _______ _______ _____ _____    ______ ____
ROOT
ATOM      1  O   UNL     1      34.468 -24.253 -12.308  0.00  0.00    -0.433 OA
ATOM      2  O   UNL     1      36.841 -23.918 -12.267  0.00  0.00    -0.435 OA
ATOM      3  O   UNL     1      30.858 -23.784 -16.127  0.00  0.00    -0.269 OA
ATOM      4  N   UNL     1      32.772 -23.853 -14.790  0.00  0.00    -0.250 N 
ATOM      5  C   UNL     1      34.193 -23.667 -14.697  0.00  0.00    +0.094 C 
ATOM      6  C   UNL     1      34.910 -23.259 -15.844  0.00  0.00    +0.051 C 
ATOM      7  C   UNL     1      34.933 -23.865 -13.531  0.00  0.00    +0.190 C 
ATOM      8  C   UNL     1      36.301 -23.675 -13.494  0.00  0.00    +0.178 C 
ATOM      9  C   UNL     1      34.183 -23.034 -17.097  0.00  0.00    +0.144 C 
ATOM     10  C   UNL     1      36.313 -23.070 -15.781  0.00  0.00    +0.008 C 
ATOM     11  C   UNL     1      37.018 -23.278 -14.598  0.00  0.00    +0.040 C 
ATOM     12  C   UNL     1      32.072 -23.640 -15.983  0.00  0.00    +0.256 C 
ATOM     13  C   UNL     1      32.861 -23.211 -17.161  0.00  0.00    +0.095 C 
ATOM     14  C   UNL     1      35.670 -24.282 -11.519  0.00  0.00    +0.429 C 
ATOM     15  C   UNL     1      32.016 -24.276 -13.616  0.00  0.00    +0.120 C 
ENDROOT
BRANCH   9  16
ATOM     16  O   UNL     1      34.864 -22.667 -18.243  0.00  0.00    -0.471 OA
ATOM     17  C   UNL     1      33.996 -22.027 -19.157  0.00  0.00    +0.252 C 
ENDBRANCH   9  16
TORSDOF 1
ENDMDL
MODEL 9
REMARK VINA RESULT:      -7.8      8.420     11.638
REMARK  Name = 124075
REMARK  1 active torsions:
REMARK  status: ('A' for Active; 'I' for Inactive)
REMARK    1  A    between atoms: C_9  and  O_16
REMARK                            x       y       z     vdW  Elec       q    Type
REMARK                         _______ _______ _______ _____ _____    ______ ____
ROOT
ATOM      1  O   UNL     1      33.430 -22.739 -17.935  0.00  0.00    -0.433 OA
ATOM      2  O   UNL     1      35.221 -21.810 -19.229  0.00  0.00    -0.435 OA
ATOM      3  O   UNL     1      33.143 -24.489 -12.966  0.00  0.00    -0.269 OA
ATOM      4  N   UNL     1      33.742 -23.623 -15.051  0.00  0.00    -0.250 N 
ATOM      5  C   UNL     1      34.772 -23.064 -15.881  0.00  0.00    +0.094 C 
ATOM      6  C   UNL     1      36.069 -22.891 -15.347  0.00  0.00    +0.051 C 
ATOM      7  C   UNL     1      34.580 -22.668 -17.205  0.00  0.00    +0.190 C 
ATOM      8  C   UNL     1      35.605 -22.132 -17.962  0.00  0.00    +0.178 C 
ATOM      9  C   UNL     1      36.327 -23.290 -13.960  0.00  0.00    +0.144 C 
ATOM     10  C   UNL     1      37.102 -22.339 -16.142  0.00  0.00    +0.008 C 
ATOM     11  C   UNL     1      36.873 -21.955 -17.461  0.00  0.00    +0.040 C 
ATOM     12  C   UNL     1      33.982 -24.006 -13.727  0.00  0.00    +0.256 C 
ATOM     13  C   UNL     1      35.356 -23.810 -13.206  0.00  0.00    +0.095 C 
ATOM     14  C   UNL     1      33.838 -22.200 -19.203  0.00  0.00    +0.429 C 
ATOM     15  C   UNL     1      32.397 -23.807 -15.586  0.00  0.00    +0.120 C 
ENDROOT
BRANCH   9  16
ATOM     16  O   UNL     1      37.577 -23.101 -13.400  0.00  0.00    -0.471 OA
ATOM     17  C   UNL     1      37.490 -23.046 -11.991  0.00  0.00    +0.252 C 
ENDBRANCH   9  16
TORSDOF 1
ENDMDL
