MODEL 1
REMARK VINA RESULT:      -9.6      0.000      0.000
REMARK  Name = 5082818
REMARK  8 active torsions:
REMARK  status: ('A' for Active; 'I' for Inactive)
REMARK    1  A    between atoms: N_2  and  C_15
REMARK    2  A    between atoms: N_3  and  C_8
REMARK    3  A    between atoms: C_15  and  C_16
REMARK    4  A    between atoms: C_16  and  S_17
REMARK    5  A    between atoms: S_17  and  C_18
REMARK    6  A    between atoms: C_18  and  C_21
REMARK    7  A    between atoms: C_20  and  C_24
REMARK    8  A    between atoms: C_24  and  N_25
REMARK                            x       y       z     vdW  Elec       q    Type
REMARK                         _______ _______ _______ _____ _____    ______ ____
ROOT
ATOM      1  O   UNL     1      34.437 -16.693 -20.967  0.00  0.00    -0.252 OA
ATOM      2  N   UNL     1      34.719 -16.673 -23.261  0.00  0.00    -0.288 N 
ATOM      3  N   UNL     1      34.518 -18.697 -22.186  0.00  0.00    -0.268 N 
ATOM      4  C   UNL     1      34.546 -17.310 -22.023  0.00  0.00    +0.304 C 
ATOM      5  H   UNL     1      34.800 -17.234 -24.067  0.00  0.00    +0.151 HD
ATOM      6  H   UNL     1      34.620 -19.028 -23.107  0.00  0.00    +0.156 HD
ENDROOT
BRANCH   3   8
ATOM      7 CL   UNL     1      36.733 -21.796 -18.764  0.00  0.00    -0.083 Cl
ATOM      8  C   UNL     1      34.361 -19.685 -21.185  0.00  0.00    +0.052 C 
ATOM      9  C   UNL     1      34.050 -21.629 -19.208  0.00  0.00    -0.011 C 
ATOM     10  C   UNL     1      35.481 -20.205 -20.536  0.00  0.00    +0.026 C 
ATOM     11  C   UNL     1      33.086 -20.137 -20.845  0.00  0.00    +0.014 C 
ATOM     12  C   UNL     1      35.326 -21.176 -19.547  0.00  0.00    +0.055 C 
ATOM     13  C   UNL     1      32.931 -21.109 -19.857  0.00  0.00    -0.002 C 
ATOM     14  C   UNL     1      33.841 -22.670 -18.157  0.00  0.00    +0.032 C 
ENDBRANCH   3   8
BRANCH   2  15
ATOM     15  C   UNL     1      34.787 -15.245 -23.412  0.00  0.00    +0.103 C 
BRANCH  15  16
ATOM     16  C   UNL     1      33.607 -14.672 -24.184  0.00  0.00    +0.079 C 
BRANCH  16  17
ATOM     17  S   UNL     1      33.063 -13.083 -23.520  0.00  0.00    -0.130 S 
BRANCH  17  18
ATOM     18  C   UNL     1      33.847 -12.004 -24.770  0.00  0.00    +0.122 C 
BRANCH  18  21
ATOM     19  O   UNL     1      32.994 -10.140 -23.517  0.00  0.00    -0.463 OA
ATOM     20  C   UNL     1      33.333  -8.865 -23.191  0.00  0.00    +0.102 C 
ATOM     21  C   UNL     1      34.000 -10.623 -24.293  0.00  0.00    +0.133 C 
ATOM     22  C   UNL     1      34.544  -8.528 -23.751  0.00  0.00    +0.034 C 
ATOM     23  C   UNL     1      34.977  -9.670 -24.466  0.00  0.00    +0.037 C 
BRANCH  20  24
ATOM     24  C   UNL     1      32.357  -8.119 -22.323  0.00  0.00    -0.011 C 
BRANCH  24  25
ATOM     25  N   UNL     1      32.686  -8.273 -20.907  0.00  0.00    +0.389 N 
ATOM     26  C   UNL     1      32.396  -7.040 -20.177  0.00  0.00    -0.100 C 
ATOM     27  C   UNL     1      31.947  -9.395 -20.330  0.00  0.00    -0.100 C 
ATOM     28  H   UNL     1      33.684  -8.468 -20.827  0.00  0.00    -0.079 HD
ENDBRANCH  24  25
ENDBRANCH  20  24
ENDBRANCH  18  21
ENDBRANCH  17  18
ENDBRANCH  16  17
ENDBRANCH  15  16
ENDBRANCH   2  15
TORSDOF 8
ENDMDL
MODEL 2
REMARK VINA RESULT:      -9.5      1.385      2.355
REMARK  Name = 5082818
REMARK  8 active torsions:
REMARK  status: ('A' for Active; 'I' for Inactive)
REMARK    1  A    between atoms: N_2  and  C_15
REMARK    2  A    between atoms: N_3  and  C_8
REMARK    3  A    between atoms: C_15  and  C_16
REMARK    4  A    between atoms: C_16  and  S_17
REMARK    5  A    between atoms: S_17  and  C_18
REMARK    6  A    between atoms: C_18  and  C_21
REMARK    7  A    between atoms: C_20  and  C_24
REMARK    8  A    between atoms: C_24  and  N_25
REMARK                            x       y       z     vdW  Elec       q    Type
REMARK                         _______ _______ _______ _____ _____    ______ ____
ROOT
ATOM      1  O   UNL     1      34.231 -16.435 -20.869  0.00  0.00    -0.252 OA
ATOM      2  N   UNL     1      34.592 -16.268 -23.146  0.00  0.00    -0.288 N 
ATOM      3  N   UNL     1      34.461 -18.358 -22.195  0.00  0.00    -0.268 N 
ATOM      4  C   UNL     1      34.409 -16.983 -21.954  0.00  0.00    +0.304 C 
ATOM      5  H   UNL     1      34.731 -16.775 -23.979  0.00  0.00    +0.151 HD
ATOM      6  H   UNL     1      34.613 -18.629 -23.129  0.00  0.00    +0.156 HD
ENDROOT
BRANCH   3   8
ATOM      7 CL   UNL     1      36.737 -21.683 -19.036  0.00  0.00    -0.083 Cl
ATOM      8  C   UNL     1      34.322 -19.409 -21.258  0.00  0.00    +0.052 C 
ATOM      9  C   UNL     1      34.046 -21.478 -19.407  0.00  0.00    -0.011 C 
ATOM     10  C   UNL     1      35.453 -19.975 -20.670  0.00  0.00    +0.026 C 
ATOM     11  C   UNL     1      33.053 -19.878 -20.920  0.00  0.00    +0.014 C 
ATOM     12  C   UNL     1      35.316 -21.009 -19.744  0.00  0.00    +0.055 C 
ATOM     13  C   UNL     1      32.915 -20.913 -19.995  0.00  0.00    -0.002 C 
ATOM     14  C   UNL     1      33.855 -22.586 -18.422  0.00  0.00    +0.032 C 
ENDBRANCH   3   8
BRANCH   2  15
ATOM     15  C   UNL     1      34.590 -14.832 -23.214  0.00  0.00    +0.103 C 
BRANCH  15  16
ATOM     16  C   UNL     1      33.360 -14.272 -23.915  0.00  0.00    +0.079 C 
BRANCH  16  17
ATOM     17  S   UNL     1      33.023 -12.562 -23.443  0.00  0.00    -0.130 S 
BRANCH  17  18
ATOM     18  C   UNL     1      32.003 -12.904 -21.964  0.00  0.00    +0.122 C 
BRANCH  18  21
ATOM     19  O   UNL     1      32.027 -10.514 -21.712  0.00  0.00    -0.463 OA
ATOM     20  C   UNL     1      31.848  -9.569 -20.752  0.00  0.00    +0.102 C 
ATOM     21  C   UNL     1      31.855 -11.719 -21.107  0.00  0.00    +0.133 C 
ATOM     22  C   UNL     1      31.564 -10.157 -19.541  0.00  0.00    +0.034 C 
ATOM     23  C   UNL     1      31.568 -11.553 -19.772  0.00  0.00    +0.037 C 
BRANCH  20  24
ATOM     24  C   UNL     1      31.992  -8.138 -21.193  0.00  0.00    -0.011 C 
BRANCH  24  25
ATOM     25  N   UNL     1      32.211  -8.052 -22.636  0.00  0.00    +0.389 N 
ATOM     26  C   UNL     1      31.096  -7.359 -23.282  0.00  0.00    -0.100 C 
ATOM     27  C   UNL     1      33.471  -7.368 -22.921  0.00  0.00    -0.100 C 
ATOM     28  H   UNL     1      32.264  -8.998 -23.012  0.00  0.00    -0.079 HD
ENDBRANCH  24  25
ENDBRANCH  20  24
ENDBRANCH  18  21
ENDBRANCH  17  18
ENDBRANCH  16  17
ENDBRANCH  15  16
ENDBRANCH   2  15
TORSDOF 8
ENDMDL
MODEL 3
REMARK VINA RESULT:      -9.4      1.755      2.361
REMARK  Name = 5082818
REMARK  8 active torsions:
REMARK  status: ('A' for Active; 'I' for Inactive)
REMARK    1  A    between atoms: N_2  and  C_15
REMARK    2  A    between atoms: N_3  and  C_8
REMARK    3  A    between atoms: C_15  and  C_16
REMARK    4  A    between atoms: C_16  and  S_17
REMARK    5  A    between atoms: S_17  and  C_18
REMARK    6  A    between atoms: C_18  and  C_21
REMARK    7  A    between atoms: C_20  and  C_24
REMARK    8  A    between atoms: C_24  and  N_25
REMARK                            x       y       z     vdW  Elec       q    Type
REMARK                         _______ _______ _______ _____ _____    ______ ____
ROOT
ATOM      1  O   UNL     1      34.665 -15.487 -21.088  0.00  0.00    -0.252 OA
ATOM      2  N   UNL     1      34.218 -15.200 -23.337  0.00  0.00    -0.288 N 
ATOM      3  N   UNL     1      34.733 -17.306 -22.569  0.00  0.00    -0.268 N 
ATOM      4  C   UNL     1      34.554 -15.968 -22.213  0.00  0.00    +0.304 C 
ATOM      5  H   UNL     1      34.148 -15.654 -24.209  0.00  0.00    +0.151 HD
ATOM      6  H   UNL     1      34.604 -17.522 -23.521  0.00  0.00    +0.156 HD
ENDROOT
BRANCH   3   8
ATOM      7 CL   UNL     1      33.154 -21.255 -19.718  0.00  0.00    -0.083 Cl
ATOM      8  C   UNL     1      35.076 -18.390 -21.727  0.00  0.00    +0.052 C 
ATOM      9  C   UNL     1      35.756 -20.529 -20.069  0.00  0.00    -0.011 C 
ATOM     10  C   UNL     1      34.077 -19.202 -21.190  0.00  0.00    +0.026 C 
ATOM     11  C   UNL     1      36.416 -18.648 -21.435  0.00  0.00    +0.014 C 
ATOM     12  C   UNL     1      34.416 -20.272 -20.362  0.00  0.00    +0.055 C 
ATOM     13  C   UNL     1      36.755 -19.717 -20.606  0.00  0.00    -0.002 C 
ATOM     14  C   UNL     1      36.161 -21.663 -19.185  0.00  0.00    +0.032 C 
ENDBRANCH   3   8
BRANCH   2  15
ATOM     15  C   UNL     1      33.972 -13.785 -23.283  0.00  0.00    +0.103 C 
BRANCH  15  16
ATOM     16  C   UNL     1      32.528 -13.444 -22.944  0.00  0.00    +0.079 C 
BRANCH  16  17
ATOM     17  S   UNL     1      32.286 -11.673 -22.683  0.00  0.00    -0.130 S 
BRANCH  17  18
ATOM     18  C   UNL     1      33.509 -11.068 -23.901  0.00  0.00    +0.122 C 
BRANCH  18  21
ATOM     19  O   UNL     1      32.941  -8.924 -22.977  0.00  0.00    -0.463 OA
ATOM     20  C   UNL     1      33.428  -7.656 -22.917  0.00  0.00    +0.102 C 
ATOM     21  C   UNL     1      33.833  -9.648 -23.702  0.00  0.00    +0.133 C 
ATOM     22  C   UNL     1      34.621  -7.564 -23.595  0.00  0.00    +0.034 C 
ATOM     23  C   UNL     1      34.884  -8.858 -24.105  0.00  0.00    +0.037 C 
BRANCH  20  24
ATOM     24  C   UNL     1      32.598  -6.661 -22.153  0.00  0.00    -0.011 C 
BRANCH  24  25
ATOM     25  N   UNL     1      31.318  -6.422 -22.819  0.00  0.00    +0.389 N 
ATOM     26  C   UNL     1      30.509  -5.478 -22.048  0.00  0.00    -0.100 C 
ATOM     27  C   UNL     1      31.534  -5.921 -24.175  0.00  0.00    -0.100 C 
ATOM     28  H   UNL     1      30.815  -7.306 -22.877  0.00  0.00    -0.079 HD
ENDBRANCH  24  25
ENDBRANCH  20  24
ENDBRANCH  18  21
ENDBRANCH  17  18
ENDBRANCH  16  17
ENDBRANCH  15  16
ENDBRANCH   2  15
TORSDOF 8
ENDMDL
MODEL 4
REMARK VINA RESULT:      -9.2      4.943     11.406
REMARK  Name = 5082818
REMARK  8 active torsions:
REMARK  status: ('A' for Active; 'I' for Inactive)
REMARK    1  A    between atoms: N_2  and  C_15
REMARK    2  A    between atoms: N_3  and  C_8
REMARK    3  A    between atoms: C_15  and  C_16
REMARK    4  A    between atoms: C_16  and  S_17
REMARK    5  A    between atoms: S_17  and  C_18
REMARK    6  A    between atoms: C_18  and  C_21
REMARK    7  A    between atoms: C_20  and  C_24
REMARK    8  A    between atoms: C_24  and  N_25
REMARK                            x       y       z     vdW  Elec       q    Type
REMARK                         _______ _______ _______ _____ _____    ______ ____
ROOT
ATOM      1  O   UNL     1      34.426 -19.603 -21.733  0.00  0.00    -0.252 OA
ATOM      2  N   UNL     1      36.185 -19.848 -20.254  0.00  0.00    -0.288 N 
ATOM      3  N   UNL     1      35.606 -17.733 -20.948  0.00  0.00    -0.268 N 
ATOM      4  C   UNL     1      35.313 -19.094 -21.052  0.00  0.00    +0.304 C 
ATOM      5  H   UNL     1      36.873 -19.371 -19.736  0.00  0.00    +0.151 HD
ATOM      6  H   UNL     1      36.354 -17.495 -20.354  0.00  0.00    +0.156 HD
ENDROOT
BRANCH   3   8
ATOM      7 CL   UNL     1      32.490 -13.688 -20.567  0.00  0.00    -0.083 Cl
ATOM      8  C   UNL     1      34.958 -16.654 -21.594  0.00  0.00    +0.052 C 
ATOM      9  C   UNL     1      33.685 -14.523 -22.869  0.00  0.00    -0.011 C 
ATOM     10  C   UNL     1      34.135 -15.796 -20.865  0.00  0.00    +0.026 C 
ATOM     11  C   UNL     1      35.145 -16.446 -22.961  0.00  0.00    +0.014 C 
ATOM     12  C   UNL     1      33.499 -14.730 -21.501  0.00  0.00    +0.055 C 
ATOM     13  C   UNL     1      34.508 -15.381 -23.598  0.00  0.00    -0.002 C 
ATOM     14  C   UNL     1      33.020 -13.395 -23.589  0.00  0.00    +0.032 C 
ENDBRANCH   3   8
BRANCH   2  15
ATOM     15  C   UNL     1      36.127 -21.282 -20.156  0.00  0.00    +0.103 C 
BRANCH  15  16
ATOM     16  C   UNL     1      35.444 -21.764 -18.884  0.00  0.00    +0.079 C 
BRANCH  16  17
ATOM     17  S   UNL     1      33.670 -22.012 -19.114  0.00  0.00    -0.130 S 
BRANCH  17  18
ATOM     18  C   UNL     1      33.516 -23.592 -18.207  0.00  0.00    +0.122 C 
BRANCH  18  21
ATOM     19  O   UNL     1      31.824 -23.280 -16.529  0.00  0.00    -0.463 OA
ATOM     20  C   UNL     1      31.713 -23.099 -15.187  0.00  0.00    +0.102 C 
ATOM     21  C   UNL     1      33.152 -23.389 -16.797  0.00  0.00    +0.133 C 
ATOM     22  C   UNL     1      32.955 -23.091 -14.595  0.00  0.00    +0.034 C 
ATOM     23  C   UNL     1      33.889 -23.279 -15.641  0.00  0.00    +0.037 C 
BRANCH  20  24
ATOM     24  C   UNL     1      30.315 -22.952 -14.649  0.00  0.00    -0.011 C 
BRANCH  24  25
ATOM     25  N   UNL     1      29.330 -23.468 -15.597  0.00  0.00    +0.389 N 
ATOM     26  C   UNL     1      28.832 -24.772 -15.159  0.00  0.00    -0.100 C 
ATOM     27  C   UNL     1      28.224 -22.524 -15.749  0.00  0.00    -0.100 C 
ATOM     28  H   UNL     1      29.783 -23.584 -16.503  0.00  0.00    -0.079 HD
ENDBRANCH  24  25
ENDBRANCH  20  24
ENDBRANCH  18  21
ENDBRANCH  17  18
ENDBRANCH  16  17
ENDBRANCH  15  16
ENDBRANCH   2  15
TORSDOF 8
ENDMDL
MODEL 5
REMARK VINA RESULT:      -9.2      5.314     11.564
REMARK  Name = 5082818
REMARK  8 active torsions:
REMARK  status: ('A' for Active; 'I' for Inactive)
REMARK    1  A    between atoms: N_2  and  C_15
REMARK    2  A    between atoms: N_3  and  C_8
REMARK    3  A    between atoms: C_15  and  C_16
REMARK    4  A    between atoms: C_16  and  S_17
REMARK    5  A    between atoms: S_17  and  C_18
REMARK    6  A    between atoms: C_18  and  C_21
REMARK    7  A    between atoms: C_20  and  C_24
REMARK    8  A    between atoms: C_24  and  N_25
REMARK                            x       y       z     vdW  Elec       q    Type
REMARK                         _______ _______ _______ _____ _____    ______ ____
ROOT
ATOM      1  O   UNL     1      33.892 -20.099 -20.935  0.00  0.00    -0.252 OA
ATOM      2  N   UNL     1      35.831 -20.707 -19.834  0.00  0.00    -0.288 N 
ATOM      3  N   UNL     1      35.704 -18.615 -20.782  0.00  0.00    -0.268 N 
ATOM      4  C   UNL     1      35.028 -19.817 -20.562  0.00  0.00    +0.304 C 
ATOM      5  H   UNL     1      36.733 -20.413 -19.570  0.00  0.00    +0.151 HD
ATOM      6  H   UNL     1      36.615 -18.556 -20.412  0.00  0.00    +0.156 HD
ENDROOT
BRANCH   3   8
ATOM      7 CL   UNL     1      34.663 -16.382 -25.271  0.00  0.00    -0.083 Cl
ATOM      8  C   UNL     1      35.238 -17.471 -21.473  0.00  0.00    +0.052 C 
ATOM      9  C   UNL     1      34.315 -15.217 -22.832  0.00  0.00    -0.011 C 
ATOM     10  C   UNL     1      35.182 -17.471 -22.866  0.00  0.00    +0.026 C 
ATOM     11  C   UNL     1      34.832 -16.344 -20.759  0.00  0.00    +0.014 C 
ATOM     12  C   UNL     1      34.720 -16.345 -23.547  0.00  0.00    +0.055 C 
ATOM     13  C   UNL     1      34.371 -15.217 -21.439  0.00  0.00    -0.002 C 
ATOM     14  C   UNL     1      33.817 -13.989 -23.523  0.00  0.00    +0.032 C 
ENDBRANCH   3   8
BRANCH   2  15
ATOM     15  C   UNL     1      35.405 -22.027 -19.456  0.00  0.00    +0.103 C 
BRANCH  15  16
ATOM     16  C   UNL     1      35.024 -22.130 -17.986  0.00  0.00    +0.079 C 
BRANCH  16  17
ATOM     17  S   UNL     1      33.492 -23.056 -17.740  0.00  0.00    -0.130 S 
BRANCH  17  18
ATOM     18  C   UNL     1      33.662 -23.355 -15.945  0.00  0.00    +0.122 C 
BRANCH  18  21
ATOM     19  O   UNL     1      31.328 -22.790 -15.851  0.00  0.00    -0.463 OA
ATOM     20  C   UNL     1      30.233 -23.023 -15.081  0.00  0.00    +0.102 C 
ATOM     21  C   UNL     1      32.358 -23.465 -15.275  0.00  0.00    +0.133 C 
ATOM     22  C   UNL     1      30.552 -23.840 -14.021  0.00  0.00    +0.034 C 
ATOM     23  C   UNL     1      31.932 -24.126 -14.147  0.00  0.00    +0.037 C 
BRANCH  20  24
ATOM     24  C   UNL     1      28.954 -22.370 -15.530  0.00  0.00    -0.011 C 
BRANCH  24  25
ATOM     25  N   UNL     1      28.554 -22.848 -16.852  0.00  0.00    +0.389 N 
ATOM     26  C   UNL     1      28.386 -24.302 -16.841  0.00  0.00    -0.100 C 
ATOM     27  C   UNL     1      27.318 -22.195 -17.280  0.00  0.00    -0.100 C 
ATOM     28  H   UNL     1      29.290 -22.613 -17.517  0.00  0.00    -0.079 HD
ENDBRANCH  24  25
ENDBRANCH  20  24
ENDBRANCH  18  21
ENDBRANCH  17  18
ENDBRANCH  16  17
ENDBRANCH  15  16
ENDBRANCH   2  15
TORSDOF 8
ENDMDL
MODEL 6
REMARK VINA RESULT:      -9.1      4.915     12.289
REMARK  Name = 5082818
REMARK  8 active torsions:
REMARK  status: ('A' for Active; 'I' for Inactive)
REMARK    1  A    between atoms: N_2  and  C_15
REMARK    2  A    between atoms: N_3  and  C_8
REMARK    3  A    between atoms: C_15  and  C_16
REMARK    4  A    between atoms: C_16  and  S_17
REMARK    5  A    between atoms: S_17  and  C_18
REMARK    6  A    between atoms: C_18  and  C_21
REMARK    7  A    between atoms: C_20  and  C_24
REMARK    8  A    between atoms: C_24  and  N_25
REMARK                            x       y       z     vdW  Elec       q    Type
REMARK                         _______ _______ _______ _____ _____    ______ ____
ROOT
ATOM      1  O   UNL     1      34.197 -19.408 -21.799  0.00  0.00    -0.252 OA
ATOM      2  N   UNL     1      35.913 -19.757 -20.290  0.00  0.00    -0.288 N 
ATOM      3  N   UNL     1      35.429 -17.604 -20.941  0.00  0.00    -0.268 N 
ATOM      4  C   UNL     1      35.087 -18.950 -21.087  0.00  0.00    +0.304 C 
ATOM      5  H   UNL     1      36.607 -19.319 -19.745  0.00  0.00    +0.151 HD
ATOM      6  H   UNL     1      36.172 -17.410 -20.325  0.00  0.00    +0.156 HD
ENDROOT
BRANCH   3   8
ATOM      7 CL   UNL     1      32.416 -13.484 -20.533  0.00  0.00    -0.083 Cl
ATOM      8  C   UNL     1      34.837 -16.485 -21.572  0.00  0.00    +0.052 C 
ATOM      9  C   UNL     1      33.673 -14.276 -22.817  0.00  0.00    -0.011 C 
ATOM     10  C   UNL     1      34.011 -15.628 -20.844  0.00  0.00    +0.026 C 
ATOM     11  C   UNL     1      35.080 -16.237 -22.923  0.00  0.00    +0.014 C 
ATOM     12  C   UNL     1      33.430 -14.523 -21.466  0.00  0.00    +0.055 C 
ATOM     13  C   UNL     1      34.498 -15.133 -23.546  0.00  0.00    -0.002 C 
ATOM     14  C   UNL     1      33.067 -13.106 -23.521  0.00  0.00    +0.032 C 
ENDBRANCH   3   8
BRANCH   2  15
ATOM     15  C   UNL     1      35.800 -21.188 -20.231  0.00  0.00    +0.103 C 
BRANCH  15  16
ATOM     16  C   UNL     1      35.228 -21.686 -18.910  0.00  0.00    +0.079 C 
BRANCH  16  17
ATOM     17  S   UNL     1      34.133 -23.105 -19.131  0.00  0.00    -0.130 S 
BRANCH  17  18
ATOM     18  C   UNL     1      32.992 -22.763 -17.744  0.00  0.00    +0.122 C 
BRANCH  18  21
ATOM     19  O   UNL     1      34.763 -23.747 -16.451  0.00  0.00    -0.463 OA
ATOM     20  C   UNL     1      34.986 -24.251 -15.209  0.00  0.00    +0.102 C 
ATOM     21  C   UNL     1      33.464 -23.348 -16.480  0.00  0.00    +0.133 C 
ATOM     22  C   UNL     1      33.844 -24.178 -14.445  0.00  0.00    +0.034 C 
ATOM     23  C   UNL     1      32.856 -23.591 -15.271  0.00  0.00    +0.037 C 
BRANCH  20  24
ATOM     24  C   UNL     1      36.375 -24.762 -14.938  0.00  0.00    -0.011 C 
BRANCH  24  25
ATOM     25  N   UNL     1      36.355 -25.841 -13.952  0.00  0.00    +0.389 N 
ATOM     26  C   UNL     1      37.197 -26.953 -14.394  0.00  0.00    -0.100 C 
ATOM     27  C   UNL     1      36.801 -25.350 -12.649  0.00  0.00    -0.100 C 
ATOM     28  H   UNL     1      35.398 -26.178 -13.860  0.00  0.00    -0.079 HD
ENDBRANCH  24  25
ENDBRANCH  20  24
ENDBRANCH  18  21
ENDBRANCH  17  18
ENDBRANCH  16  17
ENDBRANCH  15  16
ENDBRANCH   2  15
TORSDOF 8
ENDMDL
MODEL 7
REMARK VINA RESULT:      -8.9      4.534     11.533
REMARK  Name = 5082818
REMARK  8 active torsions:
REMARK  status: ('A' for Active; 'I' for Inactive)
REMARK    1  A    between atoms: N_2  and  C_15
REMARK    2  A    between atoms: N_3  and  C_8
REMARK    3  A    between atoms: C_15  and  C_16
REMARK    4  A    between atoms: C_16  and  S_17
REMARK    5  A    between atoms: S_17  and  C_18
REMARK    6  A    between atoms: C_18  and  C_21
REMARK    7  A    between atoms: C_20  and  C_24
REMARK    8  A    between atoms: C_24  and  N_25
REMARK                            x       y       z     vdW  Elec       q    Type
REMARK                         _______ _______ _______ _____ _____    ______ ____
ROOT
ATOM      1  O   UNL     1      34.944 -15.853 -20.580  0.00  0.00    -0.252 OA
ATOM      2  N   UNL     1      34.747 -17.684 -21.977  0.00  0.00    -0.288 N 
ATOM      3  N   UNL     1      33.791 -15.692 -22.618  0.00  0.00    -0.268 N 
ATOM      4  C   UNL     1      34.528 -16.344 -21.626  0.00  0.00    +0.304 C 
ATOM      5  H   UNL     1      34.382 -18.009 -22.832  0.00  0.00    +0.151 HD
ATOM      6  H   UNL     1      33.536 -16.237 -23.397  0.00  0.00    +0.156 HD
ENDROOT
BRANCH   3   8
ATOM      7 CL   UNL     1      34.191 -11.051 -24.743  0.00  0.00    -0.083 Cl
ATOM      8  C   UNL     1      33.368 -14.342 -22.638  0.00  0.00    +0.052 C 
ATOM      9  C   UNL     1      32.527 -11.682 -22.680  0.00  0.00    -0.011 C 
ATOM     10  C   UNL     1      33.914 -13.452 -23.563  0.00  0.00    +0.026 C 
ATOM     11  C   UNL     1      32.400 -13.902 -21.735  0.00  0.00    +0.014 C 
ATOM     12  C   UNL     1      33.494 -12.123 -23.585  0.00  0.00    +0.055 C 
ATOM     13  C   UNL     1      31.981 -12.572 -21.756  0.00  0.00    -0.002 C 
ATOM     14  C   UNL     1      32.052 -10.265 -22.668  0.00  0.00    +0.032 C 
ENDBRANCH   3   8
BRANCH   2  15
ATOM     15  C   UNL     1      35.476 -18.608 -21.151  0.00  0.00    +0.103 C 
BRANCH  15  16
ATOM     16  C   UNL     1      35.008 -20.047 -21.312  0.00  0.00    +0.079 C 
BRANCH  16  17
ATOM     17  S   UNL     1      35.334 -21.041 -19.840  0.00  0.00    -0.130 S 
BRANCH  17  18
ATOM     18  C   UNL     1      33.681 -21.804 -19.678  0.00  0.00    +0.122 C 
BRANCH  18  21
ATOM     19  O   UNL     1      32.210 -22.596 -17.950  0.00  0.00    -0.463 OA
ATOM     20  C   UNL     1      32.266 -23.206 -16.737  0.00  0.00    +0.102 C 
ATOM     21  C   UNL     1      33.494 -22.450 -18.371  0.00  0.00    +0.133 C 
ATOM     22  C   UNL     1      33.571 -23.452 -16.379  0.00  0.00    +0.034 C 
ATOM     23  C   UNL     1      34.368 -22.961 -17.440  0.00  0.00    +0.037 C 
BRANCH  20  24
ATOM     24  C   UNL     1      30.946 -23.476 -16.067  0.00  0.00    -0.011 C 
BRANCH  24  25
ATOM     25  N   UNL     1      31.116 -24.338 -14.899  0.00  0.00    +0.389 N 
ATOM     26  C   UNL     1      31.041 -23.552 -13.668  0.00  0.00    -0.100 C 
ATOM     27  C   UNL     1      30.105 -25.395 -14.892  0.00  0.00    -0.100 C 
ATOM     28  H   UNL     1      32.037 -24.772 -14.949  0.00  0.00    -0.079 HD
ENDBRANCH  24  25
ENDBRANCH  20  24
ENDBRANCH  18  21
ENDBRANCH  17  18
ENDBRANCH  16  17
ENDBRANCH  15  16
ENDBRANCH   2  15
TORSDOF 8
ENDMDL
MODEL 8
REMARK VINA RESULT:      -8.9      4.645     11.825
REMARK  Name = 5082818
REMARK  8 active torsions:
REMARK  status: ('A' for Active; 'I' for Inactive)
REMARK    1  A    between atoms: N_2  and  C_15
REMARK    2  A    between atoms: N_3  and  C_8
REMARK    3  A    between atoms: C_15  and  C_16
REMARK    4  A    between atoms: C_16  and  S_17
REMARK    5  A    between atoms: S_17  and  C_18
REMARK    6  A    between atoms: C_18  and  C_21
REMARK    7  A    between atoms: C_20  and  C_24
REMARK    8  A    between atoms: C_24  and  N_25
REMARK                            x       y       z     vdW  Elec       q    Type
REMARK                         _______ _______ _______ _____ _____    ______ ____
ROOT
ATOM      1  O   UNL     1      35.233 -16.417 -20.218  0.00  0.00    -0.252 OA
ATOM      2  N   UNL     1      35.230 -18.294 -21.568  0.00  0.00    -0.288 N 
ATOM      3  N   UNL     1      34.127 -16.407 -22.288  0.00  0.00    -0.268 N 
ATOM      4  C   UNL     1      34.888 -16.969 -21.260  0.00  0.00    +0.304 C 
ATOM      5  H   UNL     1      34.917 -18.670 -22.423  0.00  0.00    +0.151 HD
ATOM      6  H   UNL     1      33.940 -16.992 -23.057  0.00  0.00    +0.156 HD
ENDROOT
BRANCH   3   8
ATOM      7 CL   UNL     1      33.991 -11.895 -24.705  0.00  0.00    -0.083 Cl
ATOM      8  C   UNL     1      33.591 -15.100 -22.356  0.00  0.00    +0.052 C 
ATOM      9  C   UNL     1      32.531 -12.522 -22.492  0.00  0.00    -0.011 C 
ATOM     10  C   UNL     1      33.997 -14.230 -23.369  0.00  0.00    +0.026 C 
ATOM     11  C   UNL     1      32.654 -14.680 -21.412  0.00  0.00    +0.014 C 
ATOM     12  C   UNL     1      33.467 -12.943 -23.438  0.00  0.00    +0.055 C 
ATOM     13  C   UNL     1      32.125 -13.391 -21.479  0.00  0.00    -0.002 C 
ATOM     14  C   UNL     1      31.941 -11.150 -22.528  0.00  0.00    +0.032 C 
ENDBRANCH   3   8
BRANCH   2  15
ATOM     15  C   UNL     1      36.012 -19.130 -20.699  0.00  0.00    +0.103 C 
BRANCH  15  16
ATOM     16  C   UNL     1      35.643 -20.604 -20.802  0.00  0.00    +0.079 C 
BRANCH  16  17
ATOM     17  S   UNL     1      35.885 -21.480 -19.242  0.00  0.00    -0.130 S 
BRANCH  17  18
ATOM     18  C   UNL     1      34.248 -22.290 -19.149  0.00  0.00    +0.122 C 
BRANCH  18  21
ATOM     19  O   UNL     1      34.991 -22.860 -16.936  0.00  0.00    -0.463 OA
ATOM     20  C   UNL     1      34.489 -23.310 -15.756  0.00  0.00    +0.102 C 
ATOM     21  C   UNL     1      33.940 -22.763 -17.792  0.00  0.00    +0.133 C 
ATOM     22  C   UNL     1      33.130 -23.502 -15.850  0.00  0.00    +0.034 C 
ATOM     23  C   UNL     1      32.774 -23.146 -17.172  0.00  0.00    +0.037 C 
BRANCH  20  24
ATOM     24  C   UNL     1      35.481 -23.497 -14.640  0.00  0.00    -0.011 C 
BRANCH  24  25
ATOM     25  N   UNL     1      35.415 -24.854 -14.099  0.00  0.00    +0.389 N 
ATOM     26  C   UNL     1      36.174 -25.778 -14.941  0.00  0.00    -0.100 C 
ATOM     27  C   UNL     1      35.918 -24.882 -12.727  0.00  0.00    -0.100 C 
ATOM     28  H   UNL     1      34.440 -25.151 -14.092  0.00  0.00    -0.079 HD
ENDBRANCH  24  25
ENDBRANCH  20  24
ENDBRANCH  18  21
ENDBRANCH  17  18
ENDBRANCH  16  17
ENDBRANCH  15  16
ENDBRANCH   2  15
TORSDOF 8
ENDMDL
MODEL 9
REMARK VINA RESULT:      -8.9      3.863     11.021
REMARK  Name = 5082818
REMARK  8 active torsions:
REMARK  status: ('A' for Active; 'I' for Inactive)
REMARK    1  A    between atoms: N_2  and  C_15
REMARK    2  A    between atoms: N_3  and  C_8
REMARK    3  A    between atoms: C_15  and  C_16
REMARK    4  A    between atoms: C_16  and  S_17
REMARK    5  A    between atoms: S_17  and  C_18
REMARK    6  A    between atoms: C_18  and  C_21
REMARK    7  A    between atoms: C_20  and  C_24
REMARK    8  A    between atoms: C_24  and  N_25
REMARK                            x       y       z     vdW  Elec       q    Type
REMARK                         _______ _______ _______ _____ _____    ______ ____
ROOT
ATOM      1  O   UNL     1      34.322 -13.669 -22.486  0.00  0.00    -0.252 OA
ATOM      2  N   UNL     1      33.716 -15.007 -24.271  0.00  0.00    -0.288 N 
ATOM      3  N   UNL     1      33.752 -12.725 -24.557  0.00  0.00    -0.268 N 
ATOM      4  C   UNL     1      33.966 -13.771 -23.657  0.00  0.00    +0.304 C 
ATOM      5  H   UNL     1      33.431 -15.011 -25.214  0.00  0.00    +0.151 HD
ATOM      6  H   UNL     1      33.466 -12.984 -25.463  0.00  0.00    +0.156 HD
ENDROOT
BRANCH   3   8
ATOM      7 CL   UNL     1      32.001  -8.510 -22.235  0.00  0.00    -0.083 Cl
ATOM      8  C   UNL     1      33.895 -11.337 -24.325  0.00  0.00    +0.052 C 
ATOM      9  C   UNL     1      34.184  -8.600 -23.863  0.00  0.00    -0.011 C 
ATOM     10  C   UNL     1      32.992 -10.670 -23.497  0.00  0.00    +0.026 C 
ATOM     11  C   UNL     1      34.943 -10.635 -24.921  0.00  0.00    +0.014 C 
ATOM     12  C   UNL     1      33.136  -9.302 -23.266  0.00  0.00    +0.055 C 
ATOM     13  C   UNL     1      35.087  -9.267 -24.691  0.00  0.00    -0.002 C 
ATOM     14  C   UNL     1      34.371  -7.134 -23.644  0.00  0.00    +0.032 C 
ENDBRANCH   3   8
BRANCH   2  15
ATOM     15  C   UNL     1      33.851 -16.268 -23.593  0.00  0.00    +0.103 C 
BRANCH  15  16
ATOM     16  C   UNL     1      35.140 -16.997 -23.945  0.00  0.00    +0.079 C 
BRANCH  16  17
ATOM     17  S   UNL     1      35.008 -18.780 -23.691  0.00  0.00    -0.130 S 
BRANCH  17  18
ATOM     18  C   UNL     1      35.584 -18.833 -21.957  0.00  0.00    +0.122 C 
BRANCH  18  21
ATOM     19  O   UNL     1      35.307 -20.692 -20.459  0.00  0.00    -0.463 OA
ATOM     20  C   UNL     1      34.334 -21.312 -19.742  0.00  0.00    +0.102 C 
ATOM     21  C   UNL     1      34.712 -19.656 -21.108  0.00  0.00    +0.133 C 
ATOM     22  C   UNL     1      33.124 -20.684 -19.925  0.00  0.00    +0.034 C 
ATOM     23  C   UNL     1      33.369 -19.609 -20.812  0.00  0.00    +0.037 C 
BRANCH  20  24
ATOM     24  C   UNL     1      34.763 -22.504 -18.931  0.00  0.00    -0.011 C 
BRANCH  24  25
ATOM     25  N   UNL     1      35.255 -22.097 -17.616  0.00  0.00    +0.389 N 
ATOM     26  C   UNL     1      34.849 -23.064 -16.596  0.00  0.00    -0.100 C 
ATOM     27  C   UNL     1      36.710 -21.956 -17.636  0.00  0.00    -0.100 C 
ATOM     28  H   UNL     1      34.845 -21.192 -17.384  0.00  0.00    -0.079 HD
ENDBRANCH  24  25
ENDBRANCH  20  24
ENDBRANCH  18  21
ENDBRANCH  17  18
ENDBRANCH  16  17
ENDBRANCH  15  16
ENDBRANCH   2  15
TORSDOF 8
ENDMDL
