MODEL 1
REMARK VINA RESULT:     -11.9      0.000      0.000
REMARK  Name = 10156987
REMARK  5 active torsions:
REMARK  status: ('A' for Active; 'I' for Inactive)
REMARK    1  A    between atoms: C_2  and  C_23
REMARK    2  A    between atoms: C_9  and  C_13
REMARK    3  A    between atoms: C_23  and  N_24
REMARK    4  A    between atoms: C_25  and  C_31
REMARK    5  A    between atoms: C_31  and  N_32
REMARK                            x       y       z     vdW  Elec       q    Type
REMARK                         _______ _______ _______ _____ _____    ______ ____
ROOT
ATOM      1  N   UNL     1      35.659 -18.069 -21.385  0.00  0.00    -0.312 N 
ATOM      2  C   UNL     1      34.922 -21.649 -19.499  0.00  0.00    -0.043 C 
ATOM      3  C   UNL     1      33.904 -20.834 -19.995  0.00  0.00    -0.005 C 
ATOM      4  C   UNL     1      36.259 -21.290 -19.618  0.00  0.00    -0.005 C 
ATOM      5  C   UNL     1      34.249 -19.622 -20.628  0.00  0.00    +0.014 C 
ATOM      6  C   UNL     1      35.599 -19.282 -20.736  0.00  0.00    +0.048 C 
ATOM      7  C   UNL     1      36.625 -20.094 -20.241  0.00  0.00    +0.014 C 
ATOM      8  C   UNL     1      33.504 -18.573 -21.234  0.00  0.00    +0.016 C 
ATOM      9  C   UNL     1      34.398 -17.633 -21.690  0.00  0.00    +0.053 C 
ATOM     10  H   UNL     1      36.490 -17.585 -21.599  0.00  0.00    +0.152 HD
ENDROOT
BRANCH   9  13
ATOM     11  O   UNL     1      34.889 -15.101 -20.461  0.00  0.00    -0.270 OA
ATOM     12  N   UNL     1      34.410 -13.934 -22.375  0.00  0.00    -0.280 N 
ATOM     13  C   UNL     1      34.261 -16.382 -22.370  0.00  0.00    +0.067 C 
ATOM     14  C   UNL     1      33.879 -16.363 -23.658  0.00  0.00    +0.007 C 
ATOM     15  C   UNL     1      34.551 -15.099 -21.644  0.00  0.00    +0.251 C 
ATOM     16  C   UNL     1      33.738 -15.103 -24.385  0.00  0.00    +0.014 C 
ATOM     17  C   UNL     1      34.012 -13.903 -23.721  0.00  0.00    +0.051 C 
ATOM     18  C   UNL     1      33.339 -15.071 -25.724  0.00  0.00    +0.001 C 
ATOM     19  C   UNL     1      33.891 -12.679 -24.383  0.00  0.00    +0.015 C 
ATOM     20  C   UNL     1      33.218 -13.848 -26.388  0.00  0.00    +0.000 C 
ATOM     21  C   UNL     1      33.492 -12.655 -25.719  0.00  0.00    +0.001 C 
ATOM     22  H   UNL     1      34.600 -13.078 -21.926  0.00  0.00    +0.155 HD
ENDBRANCH   9  13
BRANCH   2  23
ATOM     23  C   UNL     1      34.562 -22.939 -18.823  0.00  0.00    -0.050 C 
BRANCH  23  24
ATOM     24  N   UNL     1      33.889 -22.718 -17.543  0.00  0.00    +0.390 N 
ATOM     25  C   UNL     1      32.530 -23.553 -15.083  0.00  0.00    -0.026 C 
ATOM     26  C   UNL     1      31.777 -22.956 -16.276  0.00  0.00    -0.025 C 
ATOM     27  C   UNL     1      33.984 -23.073 -15.096  0.00  0.00    -0.025 C 
ATOM     28  C   UNL     1      32.512 -23.228 -17.590  0.00  0.00    -0.077 C 
ATOM     29  C   UNL     1      34.647 -23.341 -16.449  0.00  0.00    -0.077 C 
ATOM     30  H   UNL     1      33.847 -21.715 -17.365  0.00  0.00    -0.079 HD
BRANCH  25  31
ATOM     31  C   UNL     1      31.845 -23.193 -13.766  0.00  0.00    -0.086 C 
BRANCH  31  32
ATOM     32  N   UNL     1      30.836 -24.181 -13.419  0.00  0.00    +0.380 N 
ATOM     33  H   UNL     1      30.757 -24.865 -14.171  0.00  0.00    -0.089 HD
ATOM     34  H   UNL     1      29.937 -23.717 -13.286  0.00  0.00    -0.089 HD
ATOM     35  H   UNL     1      31.105 -24.655 -12.556  0.00  0.00    -0.089 HD
ENDBRANCH  31  32
ENDBRANCH  25  31
ENDBRANCH  23  24
ENDBRANCH   2  23
TORSDOF 5
ENDMDL
MODEL 2
REMARK VINA RESULT:     -11.7      3.034     10.383
REMARK  Name = 10156987
REMARK  5 active torsions:
REMARK  status: ('A' for Active; 'I' for Inactive)
REMARK    1  A    between atoms: C_2  and  C_23
REMARK    2  A    between atoms: C_9  and  C_13
REMARK    3  A    between atoms: C_23  and  N_24
REMARK    4  A    between atoms: C_25  and  C_31
REMARK    5  A    between atoms: C_31  and  N_32
REMARK                            x       y       z     vdW  Elec       q    Type
REMARK                         _______ _______ _______ _____ _____    ______ ____
ROOT
ATOM      1  N   UNL     1      34.072 -16.873 -23.679  0.00  0.00    -0.312 N 
ATOM      2  C   UNL     1      33.652 -12.890 -24.613  0.00  0.00    -0.043 C 
ATOM      3  C   UNL     1      34.086 -13.330 -23.362  0.00  0.00    -0.005 C 
ATOM      4  C   UNL     1      33.334 -13.786 -25.625  0.00  0.00    -0.005 C 
ATOM      5  C   UNL     1      34.201 -14.715 -23.129  0.00  0.00    +0.014 C 
ATOM      6  C   UNL     1      33.876 -15.598 -24.161  0.00  0.00    +0.048 C 
ATOM      7  C   UNL     1      33.440 -15.164 -25.418  0.00  0.00    +0.014 C 
ATOM      8  C   UNL     1      34.598 -15.504 -22.014  0.00  0.00    +0.016 C 
ATOM      9  C   UNL     1      34.508 -16.826 -22.382  0.00  0.00    +0.053 C 
ATOM     10  H   UNL     1      33.920 -17.699 -24.193  0.00  0.00    +0.152 HD
ENDROOT
BRANCH   9  13
ATOM     11  O   UNL     1      37.094 -18.031 -22.219  0.00  0.00    -0.270 OA
ATOM     12  N   UNL     1      36.331 -19.806 -20.986  0.00  0.00    -0.280 N 
ATOM     13  C   UNL     1      34.766 -18.062 -21.711  0.00  0.00    +0.067 C 
ATOM     14  C   UNL     1      33.755 -18.719 -21.116  0.00  0.00    +0.007 C 
ATOM     15  C   UNL     1      36.162 -18.615 -21.667  0.00  0.00    +0.251 C 
ATOM     16  C   UNL     1      33.985 -19.980 -20.414  0.00  0.00    +0.014 C 
ATOM     17  C   UNL     1      35.282 -20.500 -20.361  0.00  0.00    +0.051 C 
ATOM     18  C   UNL     1      32.943 -20.673 -19.793  0.00  0.00    +0.001 C 
ATOM     19  C   UNL     1      35.542 -21.702 -19.697  0.00  0.00    +0.015 C 
ATOM     20  C   UNL     1      33.200 -21.875 -19.127  0.00  0.00    +0.000 C 
ATOM     21  C   UNL     1      34.496 -22.387 -19.081  0.00  0.00    +0.001 C 
ATOM     22  H   UNL     1      37.237 -20.189 -20.937  0.00  0.00    +0.155 HD
ENDBRANCH   9  13
BRANCH   2  23
ATOM     23  C   UNL     1      33.526 -11.416 -24.866  0.00  0.00    -0.050 C 
BRANCH  23  24
ATOM     24  N   UNL     1      33.409 -10.654 -23.623  0.00  0.00    +0.390 N 
ATOM     25  C   UNL     1      32.307  -8.562 -21.888  0.00  0.00    -0.026 C 
ATOM     26  C   UNL     1      33.686  -8.443 -22.546  0.00  0.00    -0.025 C 
ATOM     27  C   UNL     1      31.933 -10.039 -21.734  0.00  0.00    -0.025 C 
ATOM     28  C   UNL     1      33.752  -9.243 -23.848  0.00  0.00    -0.077 C 
ATOM     29  C   UNL     1      32.056 -10.787 -23.064  0.00  0.00    -0.077 C 
ATOM     30  H   UNL     1      34.068 -11.034 -22.943  0.00  0.00    -0.079 HD
BRANCH  25  31
ATOM     31  C   UNL     1      32.278  -7.845 -20.541  0.00  0.00    -0.086 C 
BRANCH  31  32
ATOM     32  N   UNL     1      32.593  -8.764 -19.458  0.00  0.00    +0.380 N 
ATOM     33  H   UNL     1      31.835  -8.757 -18.776  0.00  0.00    -0.089 HD
ATOM     34  H   UNL     1      33.459  -8.472 -19.005  0.00  0.00    -0.089 HD
ATOM     35  H   UNL     1      32.706  -9.706 -19.832  0.00  0.00    -0.089 HD
ENDBRANCH  31  32
ENDBRANCH  25  31
ENDBRANCH  23  24
ENDBRANCH   2  23
TORSDOF 5
ENDMDL
MODEL 3
REMARK VINA RESULT:     -11.6      1.347      1.778
REMARK  Name = 10156987
REMARK  5 active torsions:
REMARK  status: ('A' for Active; 'I' for Inactive)
REMARK    1  A    between atoms: C_2  and  C_23
REMARK    2  A    between atoms: C_9  and  C_13
REMARK    3  A    between atoms: C_23  and  N_24
REMARK    4  A    between atoms: C_25  and  C_31
REMARK    5  A    between atoms: C_31  and  N_32
REMARK                            x       y       z     vdW  Elec       q    Type
REMARK                         _______ _______ _______ _____ _____    ______ ____
ROOT
ATOM      1  N   UNL     1      35.406 -18.600 -21.035  0.00  0.00    -0.312 N 
ATOM      2  C   UNL     1      34.497 -22.125 -19.120  0.00  0.00    -0.043 C 
ATOM      3  C   UNL     1      33.521 -21.275 -19.640  0.00  0.00    -0.005 C 
ATOM      4  C   UNL     1      35.850 -21.823 -19.224  0.00  0.00    -0.005 C 
ATOM      5  C   UNL     1      33.923 -20.086 -20.281  0.00  0.00    +0.014 C 
ATOM      6  C   UNL     1      35.287 -19.802 -20.373  0.00  0.00    +0.048 C 
ATOM      7  C   UNL     1      36.272 -20.649 -19.855  0.00  0.00    +0.014 C 
ATOM      8  C   UNL     1      33.230 -19.015 -20.910  0.00  0.00    +0.016 C 
ATOM      9  C   UNL     1      34.168 -18.117 -21.363  0.00  0.00    +0.053 C 
ATOM     10  H   UNL     1      36.259 -18.153 -21.242  0.00  0.00    +0.152 HD
ENDROOT
BRANCH   9  13
ATOM     11  O   UNL     1      35.524 -17.589 -23.822  0.00  0.00    -0.270 OA
ATOM     12  N   UNL     1      34.695 -15.457 -23.970  0.00  0.00    -0.280 N 
ATOM     13  C   UNL     1      34.092 -16.870 -22.058  0.00  0.00    +0.067 C 
ATOM     14  C   UNL     1      33.351 -15.869 -21.551  0.00  0.00    +0.007 C 
ATOM     15  C   UNL     1      34.832 -16.686 -23.353  0.00  0.00    +0.251 C 
ATOM     16  C   UNL     1      33.245 -14.585 -22.240  0.00  0.00    +0.014 C 
ATOM     17  C   UNL     1      33.924 -14.406 -23.449  0.00  0.00    +0.051 C 
ATOM     18  C   UNL     1      32.479 -13.537 -21.722  0.00  0.00    +0.001 C 
ATOM     19  C   UNL     1      33.844 -13.193 -24.139  0.00  0.00    +0.015 C 
ATOM     20  C   UNL     1      32.398 -12.324 -22.410  0.00  0.00    +0.000 C 
ATOM     21  C   UNL     1      33.079 -12.153 -23.615  0.00  0.00    +0.001 C 
ATOM     22  H   UNL     1      35.165 -15.311 -24.824  0.00  0.00    +0.155 HD
ENDBRANCH   9  13
BRANCH   2  23
ATOM     23  C   UNL     1      34.075 -23.392 -18.435  0.00  0.00    -0.050 C 
BRANCH  23  24
ATOM     24  N   UNL     1      33.440 -23.130 -17.144  0.00  0.00    +0.390 N 
ATOM     25  C   UNL     1      31.952 -23.861 -14.724  0.00  0.00    -0.026 C 
ATOM     26  C   UNL     1      31.310 -23.094 -15.884  0.00  0.00    -0.025 C 
ATOM     27  C   UNL     1      33.465 -23.617 -14.718  0.00  0.00    -0.025 C 
ATOM     28  C   UNL     1      31.999 -23.413 -17.212  0.00  0.00    -0.077 C 
ATOM     29  C   UNL     1      34.084 -23.919 -16.084  0.00  0.00    -0.077 C 
ATOM     30  H   UNL     1      33.556 -22.143 -16.915  0.00  0.00    -0.079 HD
BRANCH  25  31
ATOM     31  C   UNL     1      31.327 -23.463 -13.389  0.00  0.00    -0.086 C 
BRANCH  31  32
ATOM     32  N   UNL     1      30.433 -24.502 -12.905  0.00  0.00    +0.380 N 
ATOM     33  H   UNL     1      30.706 -24.773 -11.961  0.00  0.00    -0.089 HD
ATOM     34  H   UNL     1      30.490 -25.314 -13.521  0.00  0.00    -0.089 HD
ATOM     35  H   UNL     1      29.475 -24.150 -12.894  0.00  0.00    -0.089 HD
ENDBRANCH  31  32
ENDBRANCH  25  31
ENDBRANCH  23  24
ENDBRANCH   2  23
TORSDOF 5
ENDMDL
MODEL 4
REMARK VINA RESULT:     -11.5      4.778      8.522
REMARK  Name = 10156987
REMARK  5 active torsions:
REMARK  status: ('A' for Active; 'I' for Inactive)
REMARK    1  A    between atoms: C_2  and  C_23
REMARK    2  A    between atoms: C_9  and  C_13
REMARK    3  A    between atoms: C_23  and  N_24
REMARK    4  A    between atoms: C_25  and  C_31
REMARK    5  A    between atoms: C_31  and  N_32
REMARK                            x       y       z     vdW  Elec       q    Type
REMARK                         _______ _______ _______ _____ _____    ______ ____
ROOT
ATOM      1  N   UNL     1      32.027 -10.909 -22.232  0.00  0.00    -0.312 N 
ATOM      2  C   UNL     1      33.608 -14.432 -23.648  0.00  0.00    -0.043 C 
ATOM      3  C   UNL     1      33.925 -13.189 -24.197  0.00  0.00    -0.005 C 
ATOM      4  C   UNL     1      32.731 -14.549 -22.578  0.00  0.00    -0.005 C 
ATOM      5  C   UNL     1      33.335 -12.032 -23.648  0.00  0.00    +0.014 C 
ATOM      6  C   UNL     1      32.455 -12.173 -22.573  0.00  0.00    +0.048 C 
ATOM      7  C   UNL     1      32.134 -13.416 -22.018  0.00  0.00    +0.014 C 
ATOM      8  C   UNL     1      33.419 -10.642 -23.939  0.00  0.00    +0.016 C 
ATOM      9  C   UNL     1      32.604  -9.978 -23.052  0.00  0.00    +0.053 C 
ATOM     10  H   UNL     1      31.396 -10.705 -21.504  0.00  0.00    +0.152 HD
ENDROOT
BRANCH   9  13
ATOM     11  O   UNL     1      32.420  -8.759 -20.475  0.00  0.00    -0.270 OA
ATOM     12  N   UNL     1      31.903  -6.702 -21.343  0.00  0.00    -0.280 N 
ATOM     13  C   UNL     1      32.276  -8.602 -22.848  0.00  0.00    +0.067 C 
ATOM     14  C   UNL     1      32.031  -7.811 -23.908  0.00  0.00    +0.007 C 
ATOM     15  C   UNL     1      32.212  -8.044 -21.455  0.00  0.00    +0.251 C 
ATOM     16  C   UNL     1      31.702  -6.398 -23.735  0.00  0.00    +0.014 C 
ATOM     17  C   UNL     1      31.646  -5.868 -22.443  0.00  0.00    +0.051 C 
ATOM     18  C   UNL     1      31.444  -5.568 -24.829  0.00  0.00    +0.001 C 
ATOM     19  C   UNL     1      31.337  -4.521 -22.238  0.00  0.00    +0.015 C 
ATOM     20  C   UNL     1      31.135  -4.220 -24.627  0.00  0.00    +0.000 C 
ATOM     21  C   UNL     1      31.081  -3.699 -23.334  0.00  0.00    +0.001 C 
ATOM     22  H   UNL     1      31.860  -6.309 -20.441  0.00  0.00    +0.155 HD
ENDBRANCH   9  13
BRANCH   2  23
ATOM     23  C   UNL     1      34.232 -15.668 -24.230  0.00  0.00    -0.050 C 
BRANCH  23  24
ATOM     24  N   UNL     1      34.258 -16.771 -23.270  0.00  0.00    +0.390 N 
ATOM     25  C   UNL     1      35.538 -18.905 -21.717  0.00  0.00    -0.026 C 
ATOM     26  C   UNL     1      34.668 -19.190 -22.946  0.00  0.00    -0.025 C 
ATOM     27  C   UNL     1      35.130 -17.566 -21.095  0.00  0.00    -0.025 C 
ATOM     28  C   UNL     1      34.686 -18.014 -23.926  0.00  0.00    -0.077 C 
ATOM     29  C   UNL     1      35.132 -16.443 -22.135  0.00  0.00    -0.077 C 
ATOM     30  H   UNL     1      33.315 -16.914 -22.909  0.00  0.00    -0.079 HD
BRANCH  25  31
ATOM     31  C   UNL     1      35.437 -20.037 -20.699  0.00  0.00    -0.086 C 
BRANCH  31  32
ATOM     32  N   UNL     1      36.634 -20.101 -19.874  0.00  0.00    +0.380 N 
ATOM     33  H   UNL     1      37.459 -20.117 -20.473  0.00  0.00    -0.089 HD
ATOM     34  H   UNL     1      36.610 -20.949 -19.306  0.00  0.00    -0.089 HD
ATOM     35  H   UNL     1      36.672 -19.284 -19.264  0.00  0.00    -0.089 HD
ENDBRANCH  31  32
ENDBRANCH  25  31
ENDBRANCH  23  24
ENDBRANCH   2  23
TORSDOF 5
ENDMDL
MODEL 5
REMARK VINA RESULT:     -11.4      2.954     10.813
REMARK  Name = 10156987
REMARK  5 active torsions:
REMARK  status: ('A' for Active; 'I' for Inactive)
REMARK    1  A    between atoms: C_2  and  C_23
REMARK    2  A    between atoms: C_9  and  C_13
REMARK    3  A    between atoms: C_23  and  N_24
REMARK    4  A    between atoms: C_25  and  C_31
REMARK    5  A    between atoms: C_31  and  N_32
REMARK                            x       y       z     vdW  Elec       q    Type
REMARK                         _______ _______ _______ _____ _____    ______ ____
ROOT
ATOM      1  N   UNL     1      34.438 -22.129 -17.952  0.00  0.00    -0.312 N 
ATOM      2  C   UNL     1      35.067 -19.869 -21.331  0.00  0.00    -0.043 C 
ATOM      3  C   UNL     1      36.105 -20.281 -20.494  0.00  0.00    -0.005 C 
ATOM      4  C   UNL     1      33.746 -20.206 -21.065  0.00  0.00    -0.005 C 
ATOM      5  C   UNL     1      35.798 -21.054 -19.356  0.00  0.00    +0.014 C 
ATOM      6  C   UNL     1      34.463 -21.380 -19.108  0.00  0.00    +0.048 C 
ATOM      7  C   UNL     1      33.417 -20.971 -19.942  0.00  0.00    +0.014 C 
ATOM      8  C   UNL     1      36.570 -21.632 -18.312  0.00  0.00    +0.016 C 
ATOM      9  C   UNL     1      35.707 -22.286 -17.464  0.00  0.00    +0.053 C 
ATOM     10  H   UNL     1      33.625 -22.497 -17.537  0.00  0.00    +0.152 HD
ENDROOT
BRANCH   9  13
ATOM     11  O   UNL     1      33.544 -23.123 -15.795  0.00  0.00    -0.270 OA
ATOM     12  N   UNL     1      34.931 -24.184 -14.310  0.00  0.00    -0.280 N 
ATOM     13  C   UNL     1      35.880 -23.039 -16.261  0.00  0.00    +0.067 C 
ATOM     14  C   UNL     1      37.116 -23.386 -15.865  0.00  0.00    +0.007 C 
ATOM     15  C   UNL     1      34.681 -23.445 -15.451  0.00  0.00    +0.251 C 
ATOM     16  C   UNL     1      37.328 -24.164 -14.646  0.00  0.00    +0.014 C 
ATOM     17  C   UNL     1      36.218 -24.552 -13.888  0.00  0.00    +0.051 C 
ATOM     18  C   UNL     1      38.609 -24.529 -14.223  0.00  0.00    +0.001 C 
ATOM     19  C   UNL     1      36.380 -25.298 -12.718  0.00  0.00    +0.015 C 
ATOM     20  C   UNL     1      38.773 -25.275 -13.053  0.00  0.00    +0.000 C 
ATOM     21  C   UNL     1      37.662 -25.658 -12.303  0.00  0.00    +0.001 C 
ATOM     22  H   UNL     1      34.163 -24.468 -13.764  0.00  0.00    +0.155 HD
ENDBRANCH   9  13
BRANCH   2  23
ATOM     23  C   UNL     1      35.388 -19.045 -22.543  0.00  0.00    -0.050 C 
BRANCH  23  24
ATOM     24  N   UNL     1      34.663 -17.775 -22.550  0.00  0.00    +0.390 N 
ATOM     25  C   UNL     1      34.427 -14.857 -22.718  0.00  0.00    -0.026 C 
ATOM     26  C   UNL     1      34.310 -15.616 -21.392  0.00  0.00    -0.025 C 
ATOM     27  C   UNL     1      34.046 -15.781 -23.879  0.00  0.00    -0.025 C 
ATOM     28  C   UNL     1      35.098 -16.927 -21.431  0.00  0.00    -0.077 C 
ATOM     29  C   UNL     1      34.842 -17.087 -23.836  0.00  0.00    -0.077 C 
ATOM     30  H   UNL     1      33.668 -17.966 -22.432  0.00  0.00    -0.079 HD
BRANCH  25  31
ATOM     31  C   UNL     1      33.560 -13.601 -22.710  0.00  0.00    -0.086 C 
BRANCH  31  32
ATOM     32  N   UNL     1      34.027 -12.640 -23.697  0.00  0.00    +0.380 N 
ATOM     33  H   UNL     1      33.353 -11.880 -23.777  0.00  0.00    -0.089 HD
ATOM     34  H   UNL     1      34.125 -13.103 -24.601  0.00  0.00    -0.089 HD
ATOM     35  H   UNL     1      34.931 -12.266 -23.407  0.00  0.00    -0.089 HD
ENDBRANCH  31  32
ENDBRANCH  25  31
ENDBRANCH  23  24
ENDBRANCH   2  23
TORSDOF 5
ENDMDL
MODEL 6
REMARK VINA RESULT:     -11.4      3.269      5.889
REMARK  Name = 10156987
REMARK  5 active torsions:
REMARK  status: ('A' for Active; 'I' for Inactive)
REMARK    1  A    between atoms: C_2  and  C_23
REMARK    2  A    between atoms: C_9  and  C_13
REMARK    3  A    between atoms: C_23  and  N_24
REMARK    4  A    between atoms: C_25  and  C_31
REMARK    5  A    between atoms: C_31  and  N_32
REMARK                            x       y       z     vdW  Elec       q    Type
REMARK                         _______ _______ _______ _____ _____    ______ ____
ROOT
ATOM      1  N   UNL     1      32.828 -12.888 -21.667  0.00  0.00    -0.312 N 
ATOM      2  C   UNL     1      34.240 -16.731 -22.065  0.00  0.00    -0.043 C 
ATOM      3  C   UNL     1      34.409 -15.759 -23.052  0.00  0.00    -0.005 C 
ATOM      4  C   UNL     1      33.577 -16.449 -20.877  0.00  0.00    -0.005 C 
ATOM      5  C   UNL     1      33.892 -14.466 -22.831  0.00  0.00    +0.014 C 
ATOM      6  C   UNL     1      33.228 -14.206 -21.630  0.00  0.00    +0.048 C 
ATOM      7  C   UNL     1      33.056 -15.175 -20.636  0.00  0.00    +0.014 C 
ATOM      8  C   UNL     1      33.875 -13.262 -23.587  0.00  0.00    +0.016 C 
ATOM      9  C   UNL     1      33.214 -12.310 -22.846  0.00  0.00    +0.053 C 
ATOM     10  H   UNL     1      32.334 -12.429 -20.949  0.00  0.00    +0.152 HD
ENDROOT
BRANCH   9  13
ATOM     11  O   UNL     1      30.692 -11.159 -22.151  0.00  0.00    -0.270 OA
ATOM     12  N   UNL     1      31.295  -9.075 -22.890  0.00  0.00    -0.280 N 
ATOM     13  C   UNL     1      32.882 -10.937 -23.065  0.00  0.00    +0.067 C 
ATOM     14  C   UNL     1      33.784 -10.117 -23.631  0.00  0.00    +0.007 C 
ATOM     15  C   UNL     1      31.533 -10.417 -22.658  0.00  0.00    +0.251 C 
ATOM     16  C   UNL     1      33.481  -8.706 -23.861  0.00  0.00    +0.014 C 
ATOM     17  C   UNL     1      32.231  -8.210 -23.479  0.00  0.00    +0.051 C 
ATOM     18  C   UNL     1      34.411  -7.844 -24.450  0.00  0.00    +0.001 C 
ATOM     19  C   UNL     1      31.906  -6.866 -23.681  0.00  0.00    +0.015 C 
ATOM     20  C   UNL     1      34.088  -6.500 -24.652  0.00  0.00    +0.000 C 
ATOM     21  C   UNL     1      32.838  -6.013 -24.269  0.00  0.00    +0.001 C 
ATOM     22  H   UNL     1      30.421  -8.706 -22.627  0.00  0.00    +0.155 HD
ENDBRANCH   9  13
BRANCH   2  23
ATOM     23  C   UNL     1      34.787 -18.109 -22.295  0.00  0.00    -0.050 C 
BRANCH  23  24
ATOM     24  N   UNL     1      34.574 -18.983 -21.142  0.00  0.00    +0.390 N 
ATOM     25  C   UNL     1      34.189 -21.565 -19.806  0.00  0.00    -0.026 C 
ATOM     26  C   UNL     1      33.038 -20.583 -20.045  0.00  0.00    -0.025 C 
ATOM     27  C   UNL     1      35.517 -20.802 -19.755  0.00  0.00    -0.025 C 
ATOM     28  C   UNL     1      33.301 -19.705 -21.270  0.00  0.00    -0.077 C 
ATOM     29  C   UNL     1      35.699 -19.916 -20.990  0.00  0.00    -0.077 C 
ATOM     30  H   UNL     1      34.527 -18.408 -20.301  0.00  0.00    -0.079 HD
BRANCH  25  31
ATOM     31  C   UNL     1      33.969 -22.369 -18.527  0.00  0.00    -0.086 C 
BRANCH  31  32
ATOM     32  N   UNL     1      32.557 -22.417 -18.182  0.00  0.00    +0.380 N 
ATOM     33  H   UNL     1      32.293 -23.377 -17.964  0.00  0.00    -0.089 HD
ATOM     34  H   UNL     1      32.002 -22.082 -18.970  0.00  0.00    -0.089 HD
ATOM     35  H   UNL     1      32.385 -21.824 -17.369  0.00  0.00    -0.089 HD
ENDBRANCH  31  32
ENDBRANCH  25  31
ENDBRANCH  23  24
ENDBRANCH   2  23
TORSDOF 5
ENDMDL
MODEL 7
REMARK VINA RESULT:     -11.4      2.351     10.191
REMARK  Name = 10156987
REMARK  5 active torsions:
REMARK  status: ('A' for Active; 'I' for Inactive)
REMARK    1  A    between atoms: C_2  and  C_23
REMARK    2  A    between atoms: C_9  and  C_13
REMARK    3  A    between atoms: C_23  and  N_24
REMARK    4  A    between atoms: C_25  and  C_31
REMARK    5  A    between atoms: C_31  and  N_32
REMARK                            x       y       z     vdW  Elec       q    Type
REMARK                         _______ _______ _______ _____ _____    ______ ____
ROOT
ATOM      1  N   UNL     1      36.228 -20.609 -19.510  0.00  0.00    -0.312 N 
ATOM      2  C   UNL     1      35.308 -18.523 -22.934  0.00  0.00    -0.043 C 
ATOM      3  C   UNL     1      34.382 -19.328 -22.269  0.00  0.00    -0.005 C 
ATOM      4  C   UNL     1      36.609 -18.380 -22.468  0.00  0.00    -0.005 C 
ATOM      5  C   UNL     1      34.785 -20.007 -21.101  0.00  0.00    +0.014 C 
ATOM      6  C   UNL     1      36.097 -19.849 -20.652  0.00  0.00    +0.048 C 
ATOM      7  C   UNL     1      37.031 -19.044 -21.313  0.00  0.00    +0.014 C 
ATOM      8  C   UNL     1      34.135 -20.886 -20.191  0.00  0.00    +0.016 C 
ATOM      9  C   UNL     1      35.047 -21.239 -19.225  0.00  0.00    +0.053 C 
ATOM     10  H   UNL     1      37.053 -20.688 -18.977  0.00  0.00    +0.152 HD
ENDROOT
BRANCH   9  13
ATOM     11  O   UNL     1      32.722 -22.703 -18.440  0.00  0.00    -0.270 OA
ATOM     12  N   UNL     1      33.759 -23.621 -16.613  0.00  0.00    -0.280 N 
ATOM     13  C   UNL     1      34.992 -22.078 -18.068  0.00  0.00    +0.067 C 
ATOM     14  C   UNL     1      36.077 -22.205 -17.285  0.00  0.00    +0.007 C 
ATOM     15  C   UNL     1      33.727 -22.819 -17.739  0.00  0.00    +0.251 C 
ATOM     16  C   UNL     1      36.058 -23.061 -16.101  0.00  0.00    +0.014 C 
ATOM     17  C   UNL     1      34.887 -23.760 -15.789  0.00  0.00    +0.051 C 
ATOM     18  C   UNL     1      37.179 -23.199 -15.278  0.00  0.00    +0.001 C 
ATOM     19  C   UNL     1      34.831 -24.590 -14.667  0.00  0.00    +0.015 C 
ATOM     20  C   UNL     1      37.125 -24.029 -14.156  0.00  0.00    +0.000 C 
ATOM     21  C   UNL     1      35.954 -24.722 -13.851  0.00  0.00    +0.001 C 
ATOM     22  H   UNL     1      32.946 -24.123 -16.377  0.00  0.00    +0.155 HD
ENDBRANCH   9  13
BRANCH   2  23
ATOM     23  C   UNL     1      34.886 -17.798 -24.178  0.00  0.00    -0.050 C 
BRANCH  23  24
ATOM     24  N   UNL     1      34.168 -16.560 -23.874  0.00  0.00    +0.390 N 
ATOM     25  C   UNL     1      33.831 -13.649 -23.766  0.00  0.00    -0.026 C 
ATOM     26  C   UNL     1      34.150 -14.487 -22.523  0.00  0.00    -0.025 C 
ATOM     27  C   UNL     1      33.125 -14.521 -24.810  0.00  0.00    -0.025 C 
ATOM     28  C   UNL     1      34.914 -15.760 -22.892  0.00  0.00    -0.077 C 
ATOM     29  C   UNL     1      33.922 -15.794 -25.104  0.00  0.00    -0.077 C 
ATOM     30  H   UNL     1      33.264 -16.798 -23.466  0.00  0.00    -0.079 HD
BRANCH  25  31
ATOM     31  C   UNL     1      32.983 -12.432 -23.404  0.00  0.00    -0.086 C 
BRANCH  31  32
ATOM     32  N   UNL     1      31.885 -12.806 -22.527  0.00  0.00    +0.380 N 
ATOM     33  H   UNL     1      31.376 -13.589 -22.935  0.00  0.00    -0.089 HD
ATOM     34  H   UNL     1      31.254 -12.012 -22.415  0.00  0.00    -0.089 HD
ATOM     35  H   UNL     1      32.255 -13.078 -21.616  0.00  0.00    -0.089 HD
ENDBRANCH  31  32
ENDBRANCH  25  31
ENDBRANCH  23  24
ENDBRANCH   2  23
TORSDOF 5
ENDMDL
MODEL 8
REMARK VINA RESULT:     -11.4      2.243     10.075
REMARK  Name = 10156987
REMARK  5 active torsions:
REMARK  status: ('A' for Active; 'I' for Inactive)
REMARK    1  A    between atoms: C_2  and  C_23
REMARK    2  A    between atoms: C_9  and  C_13
REMARK    3  A    between atoms: C_23  and  N_24
REMARK    4  A    between atoms: C_25  and  C_31
REMARK    5  A    between atoms: C_31  and  N_32
REMARK                            x       y       z     vdW  Elec       q    Type
REMARK                         _______ _______ _______ _____ _____    ______ ____
ROOT
ATOM      1  N   UNL     1      35.160 -21.506 -18.722  0.00  0.00    -0.312 N 
ATOM      2  C   UNL     1      35.323 -19.243 -22.153  0.00  0.00    -0.043 C 
ATOM      3  C   UNL     1      34.130 -19.756 -21.642  0.00  0.00    -0.005 C 
ATOM      4  C   UNL     1      36.538 -19.472 -21.519  0.00  0.00    -0.005 C 
ATOM      5  C   UNL     1      34.167 -20.522 -20.460  0.00  0.00    +0.014 C 
ATOM      6  C   UNL     1      35.400 -20.740 -19.841  0.00  0.00    +0.048 C 
ATOM      7  C   UNL     1      36.600 -20.229 -20.346  0.00  0.00    +0.014 C 
ATOM      8  C   UNL     1      33.183 -21.183 -19.675  0.00  0.00    +0.016 C 
ATOM      9  C   UNL     1      33.824 -21.780 -18.614  0.00  0.00    +0.053 C 
ATOM     10  H   UNL     1      35.851 -21.814 -18.091  0.00  0.00    +0.152 HD
ENDROOT
BRANCH   9  13
ATOM     11  O   UNL     1      35.598 -23.100 -16.805  0.00  0.00    -0.270 OA
ATOM     12  N   UNL     1      33.884 -23.955 -15.545  0.00  0.00    -0.280 N 
ATOM     13  C   UNL     1      33.383 -22.570 -17.507  0.00  0.00    +0.067 C 
ATOM     14  C   UNL     1      32.067 -22.722 -17.280  0.00  0.00    +0.007 C 
ATOM     15  C   UNL     1      34.390 -23.220 -16.601  0.00  0.00    +0.251 C 
ATOM     16  C   UNL     1      31.582 -23.516 -16.153  0.00  0.00    +0.014 C 
ATOM     17  C   UNL     1      32.511 -24.119 -15.299  0.00  0.00    +0.051 C 
ATOM     18  C   UNL     1      30.217 -23.683 -15.907  0.00  0.00    +0.001 C 
ATOM     19  C   UNL     1      32.087 -24.884 -14.210  0.00  0.00    +0.015 C 
ATOM     20  C   UNL     1      29.790 -24.446 -14.818  0.00  0.00    +0.000 C 
ATOM     21  C   UNL     1      30.722 -25.046 -13.972  0.00  0.00    +0.001 C 
ATOM     22  H   UNL     1      34.522 -24.387 -14.932  0.00  0.00    +0.155 HD
ENDBRANCH   9  13
BRANCH   2  23
ATOM     23  C   UNL     1      35.289 -18.428 -23.412  0.00  0.00    -0.050 C 
BRANCH  23  24
ATOM     24  N   UNL     1      34.514 -17.198 -23.248  0.00  0.00    +0.390 N 
ATOM     25  C   UNL     1      34.115 -14.293 -23.265  0.00  0.00    -0.026 C 
ATOM     26  C   UNL     1      34.263 -15.096 -21.968  0.00  0.00    -0.025 C 
ATOM     27  C   UNL     1      33.586 -15.203 -24.378  0.00  0.00    -0.025 C 
ATOM     28  C   UNL     1      35.094 -16.361 -22.188  0.00  0.00    -0.077 C 
ATOM     29  C   UNL     1      34.438 -16.465 -24.519  0.00  0.00    -0.077 C 
ATOM     30  H   UNL     1      33.564 -17.445 -22.971  0.00  0.00    -0.079 HD
BRANCH  25  31
ATOM     31  C   UNL     1      33.204 -13.086 -23.063  0.00  0.00    -0.086 C 
BRANCH  31  32
ATOM     32  N   UNL     1      32.009 -13.456 -22.321  0.00  0.00    +0.380 N 
ATOM     33  H   UNL     1      32.083 -13.113 -21.364  0.00  0.00    -0.089 HD
ATOM     34  H   UNL     1      31.916 -14.472 -22.311  0.00  0.00    -0.089 HD
ATOM     35  H   UNL     1      31.189 -13.044 -22.768  0.00  0.00    -0.089 HD
ENDBRANCH  31  32
ENDBRANCH  25  31
ENDBRANCH  23  24
ENDBRANCH   2  23
TORSDOF 5
ENDMDL
MODEL 9
REMARK VINA RESULT:     -11.4      6.027     13.213
REMARK  Name = 10156987
REMARK  5 active torsions:
REMARK  status: ('A' for Active; 'I' for Inactive)
REMARK    1  A    between atoms: C_2  and  C_23
REMARK    2  A    between atoms: C_9  and  C_13
REMARK    3  A    between atoms: C_23  and  N_24
REMARK    4  A    between atoms: C_25  and  C_31
REMARK    5  A    between atoms: C_31  and  N_32
REMARK                            x       y       z     vdW  Elec       q    Type
REMARK                         _______ _______ _______ _____ _____    ______ ____
ROOT
ATOM      1  N   UNL     1      34.339 -11.764 -24.220  0.00  0.00    -0.312 N 
ATOM      2  C   UNL     1      32.713  -8.277 -22.767  0.00  0.00    -0.043 C 
ATOM      3  C   UNL     1      32.143  -9.529 -22.535  0.00  0.00    -0.005 C 
ATOM      4  C   UNL     1      33.878  -8.138 -23.511  0.00  0.00    -0.005 C 
ATOM      5  C   UNL     1      32.769 -10.672 -23.072  0.00  0.00    +0.014 C 
ATOM      6  C   UNL     1      33.938 -10.509 -23.817  0.00  0.00    +0.048 C 
ATOM      7  C   UNL     1      34.516  -9.257 -24.053  0.00  0.00    +0.014 C 
ATOM      8  C   UNL     1      32.483 -12.065 -23.042  0.00  0.00    +0.016 C 
ATOM      9  C   UNL     1      33.466 -12.710 -23.757  0.00  0.00    +0.053 C 
ATOM     10  H   UNL     1      35.139 -11.952 -24.763  0.00  0.00    +0.152 HD
ENDROOT
BRANCH   9  13
ATOM     11  O   UNL     1      32.748 -13.912 -26.247  0.00  0.00    -0.270 OA
ATOM     12  N   UNL     1      33.611 -15.952 -25.659  0.00  0.00    -0.280 N 
ATOM     13  C   UNL     1      33.721 -14.080 -24.078  0.00  0.00    +0.067 C 
ATOM     14  C   UNL     1      34.328 -14.873 -23.179  0.00  0.00    +0.007 C 
ATOM     15  C   UNL     1      33.316 -14.623 -25.419  0.00  0.00    +0.251 C 
ATOM     16  C   UNL     1      34.611 -16.275 -23.479  0.00  0.00    +0.014 C 
ATOM     17  C   UNL     1      34.245 -16.789 -24.726  0.00  0.00    +0.051 C 
ATOM     18  C   UNL     1      35.241 -17.109 -22.551  0.00  0.00    +0.001 C 
ATOM     19  C   UNL     1      34.502 -18.123 -25.050  0.00  0.00    +0.015 C 
ATOM     20  C   UNL     1      35.499 -18.444 -22.873  0.00  0.00    +0.000 C 
ATOM     21  C   UNL     1      35.129 -18.950 -24.119  0.00  0.00    +0.001 C 
ATOM     22  H   UNL     1      33.362 -16.333 -26.532  0.00  0.00    +0.155 HD
ENDBRANCH   9  13
BRANCH   2  23
ATOM     23  C   UNL     1      32.050  -7.055 -22.199  0.00  0.00    -0.050 C 
BRANCH  23  24
ATOM     24  N   UNL     1      32.123  -5.917 -23.115  0.00  0.00    +0.390 N 
ATOM     25  C   UNL     1      31.008  -3.862 -24.885  0.00  0.00    -0.026 C 
ATOM     26  C   UNL     1      31.707  -5.117 -25.419  0.00  0.00    -0.025 C 
ATOM     27  C   UNL     1      31.521  -3.545 -23.477  0.00  0.00    -0.025 C 
ATOM     28  C   UNL     1      31.588  -6.282 -24.434  0.00  0.00    -0.077 C 
ATOM     29  C   UNL     1      31.409  -4.761 -22.555  0.00  0.00    -0.077 C 
ATOM     30  H   UNL     1      33.102  -5.655 -23.234  0.00  0.00    -0.079 HD
BRANCH  25  31
ATOM     31  C   UNL     1      31.215  -2.677 -25.825  0.00  0.00    -0.086 C 
BRANCH  31  32
ATOM     32  N   UNL     1      32.251  -1.790 -25.321  0.00  0.00    +0.380 N 
ATOM     33  H   UNL     1      32.583  -2.132 -24.420  0.00  0.00    -0.089 HD
ATOM     34  H   UNL     1      31.868  -0.851 -25.207  0.00  0.00    -0.089 HD
ATOM     35  H   UNL     1      33.028  -1.762 -25.982  0.00  0.00    -0.089 HD
ENDBRANCH  31  32
ENDBRANCH  25  31
ENDBRANCH  23  24
ENDBRANCH   2  23
TORSDOF 5
ENDMDL
