MODEL 1
REMARK VINA RESULT:      -7.3      0.000      0.000
REMARK  Name = 11318905
REMARK  10 active torsions:
REMARK  status: ('A' for Active; 'I' for Inactive)
REMARK    1  A    between atoms: N_2  and  CA_18
REMARK    2  A    between atoms: C_3  and  C_7
REMARK    3  A    between atoms: C_12  and  C_13
REMARK    4  A    between atoms: C_13  and  N_14
REMARK    5  A    between atoms: CA_18  and  C_20
REMARK    6  A    between atoms: CA_18  and  CB_23
REMARK    7  A    between atoms: C_20  and  O_21
REMARK    8  A    between atoms: CB_23  and  CG_24
REMARK    9  A    between atoms: CG_24  and  CD_26
REMARK   10  A    between atoms: CD_26  and  OE1_27
REMARK                            x       y       z     vdW  Elec       q    Type
REMARK                         _______ _______ _______ _____ _____    ______ ____
ROOT
ATOM      1  O   UNL     1      34.119 -23.809 -12.549  0.00  0.00    -0.273 OA
ATOM      2  N   UNL     1      33.312 -24.249 -14.687  0.00  0.00    -0.295 N 
ATOM      3  C   ACE A   0      34.283 -24.201 -13.702  0.00  0.00    +0.239 C 
ATOM      4  H   UNL     1      33.565 -24.583 -15.579  0.00  0.00    +0.150 HD
ENDROOT
BRANCH   3   7
ATOM      5  O   UNL     1      35.108 -23.244 -16.658  0.00  0.00    -0.277 OA
ATOM      6  N   UNL     1      36.358 -23.568 -14.728  0.00  0.00    -0.277 N 
ATOM      7  C   UNL     1      35.613 -24.715 -14.186  0.00  0.00    +0.129 C 
ATOM      8  C   UNL     1      36.452 -25.170 -12.977  0.00  0.00    +0.029 C 
ATOM      9  C   UNL     1      37.169 -23.900 -12.535  0.00  0.00    +0.024 C 
ATOM     10  C   UNL     1      37.472 -23.208 -13.853  0.00  0.00    +0.094 C 
ATOM     11  C   UNL     1      35.418 -25.866 -15.171  0.00  0.00    +0.029 C 
ATOM     12  C   UNL     1      36.050 -22.935 -15.926  0.00  0.00    +0.204 C 
BRANCH  12  13
ATOM     13  C   UNL     1      36.947 -21.783 -16.304  0.00  0.00    +0.001 C 
BRANCH  13  14
ATOM     14  N   UNL     1      36.850 -21.650 -17.741  0.00  0.00    +0.386 N 
ATOM     15  H   UNL     1      35.885 -21.441 -17.999  0.00  0.00    -0.089 HD
ATOM     16  H   UNL     1      37.139 -22.522 -18.184  0.00  0.00    -0.089 HD
ATOM     17  H   UNL     1      37.456 -20.892 -18.055  0.00  0.00    -0.089 HD
ENDBRANCH  13  14
ENDBRANCH  12  13
ENDBRANCH   3   7
BRANCH   2  18
ATOM     18  CA  UNL     1      31.944 -23.834 -14.471  0.00  0.00    +0.172 C 
BRANCH  18  20
ATOM     19  OXT UNL     1      30.567 -25.808 -14.845  0.00  0.00    -0.248 OA
ATOM     20  C   UNL     1      31.151 -25.061 -14.071  0.00  0.00    +0.332 C 
BRANCH  20  21
ATOM     21  O   UNL     1      31.187 -25.272 -12.729  0.00  0.00    -0.479 OA
ATOM     22  H   UNL     1      32.001 -25.462 -12.306  0.00  0.00    +0.295 HD
ENDBRANCH  20  21
ENDBRANCH  18  20
BRANCH  18  23
ATOM     23  CB  UNL     1      31.358 -23.082 -15.673  0.00  0.00    +0.043 C 
BRANCH  23  24
ATOM     24  CG  UNL     1      29.998 -22.410 -15.443  0.00  0.00    +0.112 C 
BRANCH  24  26
ATOM     25  OE2 UNL     1      28.328 -21.972 -17.160  0.00  0.00    -0.250 OA
ATOM     26  CD  UNL     1      28.958 -22.770 -16.481  0.00  0.00    +0.314 C 
BRANCH  26  27
ATOM     27  OE1 UNL     1      28.764 -24.113 -16.551  0.00  0.00    -0.480 OA
ATOM     28  HE1 UNL     1      28.991 -24.658 -15.823  0.00  0.00    +0.295 HD
ENDBRANCH  26  27
ENDBRANCH  24  26
ENDBRANCH  23  24
ENDBRANCH  18  23
ENDBRANCH   2  18
TORSDOF 10
ENDMDL
MODEL 2
REMARK VINA RESULT:      -7.2      2.182      4.217
REMARK  Name = 11318905
REMARK  10 active torsions:
REMARK  status: ('A' for Active; 'I' for Inactive)
REMARK    1  A    between atoms: N_2  and  CA_18
REMARK    2  A    between atoms: C_3  and  C_7
REMARK    3  A    between atoms: C_12  and  C_13
REMARK    4  A    between atoms: C_13  and  N_14
REMARK    5  A    between atoms: CA_18  and  C_20
REMARK    6  A    between atoms: CA_18  and  CB_23
REMARK    7  A    between atoms: C_20  and  O_21
REMARK    8  A    between atoms: CB_23  and  CG_24
REMARK    9  A    between atoms: CG_24  and  CD_26
REMARK   10  A    between atoms: CD_26  and  OE1_27
REMARK                            x       y       z     vdW  Elec       q    Type
REMARK                         _______ _______ _______ _____ _____    ______ ____
ROOT
ATOM      1  O   UNL     1      35.246 -26.027 -15.772  0.00  0.00    -0.273 OA
ATOM      2  N   UNL     1      34.820 -23.740 -15.670  0.00  0.00    -0.295 N 
ATOM      3  C   ACE A   0      35.549 -24.890 -15.418  0.00  0.00    +0.239 C 
ATOM      4  H   UNL     1      35.166 -22.882 -15.332  0.00  0.00    +0.150 HD
ENDROOT
BRANCH   3   7
ATOM      5  O   UNL     1      35.160 -23.129 -12.756  0.00  0.00    -0.277 OA
ATOM      6  N   UNL     1      36.558 -24.918 -13.241  0.00  0.00    -0.277 N 
ATOM      7  C   UNL     1      36.816 -24.606 -14.655  0.00  0.00    +0.129 C 
ATOM      8  C   UNL     1      37.898 -25.620 -15.072  0.00  0.00    +0.029 C 
ATOM      9  C   UNL     1      37.667 -26.801 -14.137  0.00  0.00    +0.024 C 
ATOM     10  C   UNL     1      37.274 -26.127 -12.834  0.00  0.00    +0.094 C 
ATOM     11  C   UNL     1      37.289 -23.177 -14.912  0.00  0.00    +0.029 C 
ATOM     12  C   UNL     1      35.760 -24.147 -12.406  0.00  0.00    +0.204 C 
BRANCH  12  13
ATOM     13  C   UNL     1      35.635 -24.640 -10.986  0.00  0.00    +0.001 C 
BRANCH  13  14
ATOM     14  N   UNL     1      36.447 -23.757 -10.178  0.00  0.00    +0.386 N 
ATOM     15  H   UNL     1      35.895 -22.943  -9.903  0.00  0.00    -0.089 HD
ATOM     16  H   UNL     1      37.256 -23.451 -10.717  0.00  0.00    -0.089 HD
ATOM     17  H   UNL     1      36.761 -24.251  -9.343  0.00  0.00    -0.089 HD
ENDBRANCH  13  14
ENDBRANCH  12  13
ENDBRANCH   3   7
BRANCH   2  18
ATOM     18  CA  UNL     1      33.575 -23.738 -16.405  0.00  0.00    +0.172 C 
BRANCH  18  20
ATOM     19  OXT UNL     1      34.903 -22.803 -18.221  0.00  0.00    -0.248 OA
ATOM     20  C   UNL     1      33.810 -22.990 -17.701  0.00  0.00    +0.332 C 
BRANCH  20  21
ATOM     21  O   UNL     1      32.646 -22.567 -18.261  0.00  0.00    -0.479 OA
ATOM     22  H   UNL     1      32.191 -23.118 -18.867  0.00  0.00    +0.295 HD
ENDBRANCH  20  21
ENDBRANCH  18  20
BRANCH  18  23
ATOM     23  CB  UNL     1      32.402 -23.195 -15.580  0.00  0.00    +0.043 C 
BRANCH  23  24
ATOM     24  CG  UNL     1      31.385 -24.236 -15.097  0.00  0.00    +0.112 C 
BRANCH  24  26
ATOM     25  OE2 UNL     1      30.667 -24.472 -12.781  0.00  0.00    -0.250 OA
ATOM     26  CD  UNL     1      31.533 -24.599 -13.635  0.00  0.00    +0.314 C 
BRANCH  26  27
ATOM     27  OE1 UNL     1      32.781 -25.059 -13.357  0.00  0.00    -0.480 OA
ATOM     28  HE1 UNL     1      32.945 -25.512 -12.554  0.00  0.00    +0.295 HD
ENDBRANCH  26  27
ENDBRANCH  24  26
ENDBRANCH  23  24
ENDBRANCH  18  23
ENDBRANCH   2  18
TORSDOF 10
ENDMDL
MODEL 3
REMARK VINA RESULT:      -7.1      7.930     10.186
REMARK  Name = 11318905
REMARK  10 active torsions:
REMARK  status: ('A' for Active; 'I' for Inactive)
REMARK    1  A    between atoms: N_2  and  CA_18
REMARK    2  A    between atoms: C_3  and  C_7
REMARK    3  A    between atoms: C_12  and  C_13
REMARK    4  A    between atoms: C_13  and  N_14
REMARK    5  A    between atoms: CA_18  and  C_20
REMARK    6  A    between atoms: CA_18  and  CB_23
REMARK    7  A    between atoms: C_20  and  O_21
REMARK    8  A    between atoms: CB_23  and  CG_24
REMARK    9  A    between atoms: CG_24  and  CD_26
REMARK   10  A    between atoms: CD_26  and  OE1_27
REMARK                            x       y       z     vdW  Elec       q    Type
REMARK                         _______ _______ _______ _____ _____    ______ ____
ROOT
ATOM      1  O   UNL     1      35.540 -17.561 -20.355  0.00  0.00    -0.273 OA
ATOM      2  N   UNL     1      34.169 -16.979 -22.145  0.00  0.00    -0.295 N 
ATOM      3  C   ACE A   0      34.843 -17.864 -21.322  0.00  0.00    +0.239 C 
ATOM      4  H   UNL     1      33.641 -17.343 -22.892  0.00  0.00    +0.150 HD
ENDROOT
BRANCH   3   7
ATOM      5  O   UNL     1      37.336 -19.823 -20.787  0.00  0.00    -0.277 OA
ATOM      6  N   UNL     1      35.044 -20.141 -20.594  0.00  0.00    -0.277 N 
ATOM      7  C   UNL     1      34.618 -19.299 -21.721  0.00  0.00    +0.129 C 
ATOM      8  C   UNL     1      33.106 -19.562 -21.838  0.00  0.00    +0.029 C 
ATOM      9  C   UNL     1      32.696 -19.953 -20.423  0.00  0.00    +0.024 C 
ATOM     10  C   UNL     1      33.891 -20.754 -19.935  0.00  0.00    +0.094 C 
ATOM     11  C   UNL     1      35.322 -19.605 -23.042  0.00  0.00    +0.029 C 
ATOM     12  C   UNL     1      36.369 -20.343 -20.228  0.00  0.00    +0.204 C 
BRANCH  12  13
ATOM     13  C   UNL     1      36.588 -21.253 -19.045  0.00  0.00    +0.001 C 
BRANCH  13  14
ATOM     14  N   UNL     1      37.188 -20.436 -18.013  0.00  0.00    +0.386 N 
ATOM     15  H   UNL     1      38.193 -20.611 -17.981  0.00  0.00    -0.089 HD
ATOM     16  H   UNL     1      36.774 -20.670 -17.111  0.00  0.00    -0.089 HD
ATOM     17  H   UNL     1      37.022 -19.451 -18.218  0.00  0.00    -0.089 HD
ENDBRANCH  13  14
ENDBRANCH  12  13
ENDBRANCH   3   7
BRANCH   2  18
ATOM     18  CA  UNL     1      34.203 -15.545 -21.961  0.00  0.00    +0.172 C 
BRANCH  18  20
ATOM     19  OXT UNL     1      31.975 -15.892 -21.038  0.00  0.00    -0.248 OA
ATOM     20  C   UNL     1      32.911 -15.141 -21.281  0.00  0.00    +0.332 C 
BRANCH  20  21
ATOM     21  O   UNL     1      32.914 -13.828 -20.926  0.00  0.00    -0.479 OA
ATOM     22  H   UNL     1      33.123 -13.582 -20.047  0.00  0.00    +0.295 HD
ENDBRANCH  20  21
ENDBRANCH  18  20
BRANCH  18  23
ATOM     23  CB  UNL     1      34.480 -14.788 -23.266  0.00  0.00    +0.043 C 
BRANCH  23  24
ATOM     24  CG  UNL     1      33.409 -14.920 -24.356  0.00  0.00    +0.112 C 
BRANCH  24  26
ATOM     25  OE2 UNL     1      34.411 -16.884 -25.391  0.00  0.00    -0.250 OA
ATOM     26  CD  UNL     1      33.813 -15.823 -25.501  0.00  0.00    +0.314 C 
BRANCH  26  27
ATOM     27  OE1 UNL     1      33.465 -15.294 -26.703  0.00  0.00    -0.480 OA
ATOM     28  HE1 UNL     1      33.654 -15.760 -27.493  0.00  0.00    +0.295 HD
ENDBRANCH  26  27
ENDBRANCH  24  26
ENDBRANCH  23  24
ENDBRANCH  18  23
ENDBRANCH   2  18
TORSDOF 10
ENDMDL
MODEL 4
REMARK VINA RESULT:      -6.9      2.180      3.500
REMARK  Name = 11318905
REMARK  10 active torsions:
REMARK  status: ('A' for Active; 'I' for Inactive)
REMARK    1  A    between atoms: N_2  and  CA_18
REMARK    2  A    between atoms: C_3  and  C_7
REMARK    3  A    between atoms: C_12  and  C_13
REMARK    4  A    between atoms: C_13  and  N_14
REMARK    5  A    between atoms: CA_18  and  C_20
REMARK    6  A    between atoms: CA_18  and  CB_23
REMARK    7  A    between atoms: C_20  and  O_21
REMARK    8  A    between atoms: CB_23  and  CG_24
REMARK    9  A    between atoms: CG_24  and  CD_26
REMARK   10  A    between atoms: CD_26  and  OE1_27
REMARK                            x       y       z     vdW  Elec       q    Type
REMARK                         _______ _______ _______ _____ _____    ______ ____
ROOT
ATOM      1  O   UNL     1      35.115 -25.243 -15.759  0.00  0.00    -0.273 OA
ATOM      2  N   UNL     1      33.943 -23.255 -15.453  0.00  0.00    -0.295 N 
ATOM      3  C   ACE A   0      35.036 -24.094 -15.330  0.00  0.00    +0.239 C 
ATOM      4  H   UNL     1      33.998 -22.352 -15.065  0.00  0.00    +0.150 HD
ENDROOT
BRANCH   3   7
ATOM      5  O   UNL     1      36.906 -26.096 -13.646  0.00  0.00    -0.277 OA
ATOM      6  N   UNL     1      37.396 -24.210 -14.908  0.00  0.00    -0.277 N 
ATOM      7  C   UNL     1      36.183 -23.435 -14.608  0.00  0.00    +0.129 C 
ATOM      8  C   UNL     1      36.452 -22.055 -15.237  0.00  0.00    +0.029 C 
ATOM      9  C   UNL     1      37.419 -22.359 -16.376  0.00  0.00    +0.024 C 
ATOM     10  C   UNL     1      38.287 -23.462 -15.795  0.00  0.00    +0.094 C 
ATOM     11  C   UNL     1      35.871 -23.297 -13.119  0.00  0.00    +0.029 C 
ATOM     12  C   UNL     1      37.662 -25.472 -14.393  0.00  0.00    +0.204 C 
BRANCH  12  13
ATOM     13  C   UNL     1      38.970 -26.089 -14.821  0.00  0.00    +0.001 C 
BRANCH  13  14
ATOM     14  N   UNL     1      39.812 -26.107 -13.644  0.00  0.00    +0.386 N 
ATOM     15  H   UNL     1      40.222 -25.183 -13.505  0.00  0.00    -0.089 HD
ATOM     16  H   UNL     1      40.556 -26.793 -13.769  0.00  0.00    -0.089 HD
ATOM     17  H   UNL     1      39.252 -26.356 -12.829  0.00  0.00    -0.089 HD
ENDBRANCH  13  14
ENDBRANCH  12  13
ENDBRANCH   3   7
BRANCH   2  18
ATOM     18  CA  UNL     1      32.722 -23.641 -16.125  0.00  0.00    +0.172 C 
BRANCH  18  20
ATOM     19  OXT UNL     1      32.207 -22.252 -18.059  0.00  0.00    -0.248 OA
ATOM     20  C   UNL     1      32.828 -23.184 -17.566  0.00  0.00    +0.332 C 
BRANCH  20  21
ATOM     21  O   UNL     1      33.739 -23.914 -18.263  0.00  0.00    -0.479 OA
ATOM     22  H   UNL     1      33.486 -24.728 -18.653  0.00  0.00    +0.295 HD
ENDBRANCH  20  21
ENDBRANCH  18  20
BRANCH  18  23
ATOM     23  CB  UNL     1      31.466 -23.134 -15.406  0.00  0.00    +0.043 C 
BRANCH  23  24
ATOM     24  CG  UNL     1      30.206 -23.991 -15.576  0.00  0.00    +0.112 C 
BRANCH  24  26
ATOM     25  OE2 UNL     1      27.854 -23.364 -15.684  0.00  0.00    -0.250 OA
ATOM     26  CD  UNL     1      29.004 -23.218 -16.073  0.00  0.00    +0.314 C 
BRANCH  26  27
ATOM     27  OE1 UNL     1      29.344 -22.344 -17.057  0.00  0.00    -0.480 OA
ATOM     28  HE1 UNL     1      29.267 -21.421 -16.911  0.00  0.00    +0.295 HD
ENDBRANCH  26  27
ENDBRANCH  24  26
ENDBRANCH  23  24
ENDBRANCH  18  23
ENDBRANCH   2  18
TORSDOF 10
ENDMDL
MODEL 5
REMARK VINA RESULT:      -6.9      1.717      1.958
REMARK  Name = 11318905
REMARK  10 active torsions:
REMARK  status: ('A' for Active; 'I' for Inactive)
REMARK    1  A    between atoms: N_2  and  CA_18
REMARK    2  A    between atoms: C_3  and  C_7
REMARK    3  A    between atoms: C_12  and  C_13
REMARK    4  A    between atoms: C_13  and  N_14
REMARK    5  A    between atoms: CA_18  and  C_20
REMARK    6  A    between atoms: CA_18  and  CB_23
REMARK    7  A    between atoms: C_20  and  O_21
REMARK    8  A    between atoms: CB_23  and  CG_24
REMARK    9  A    between atoms: CG_24  and  CD_26
REMARK   10  A    between atoms: CD_26  and  OE1_27
REMARK                            x       y       z     vdW  Elec       q    Type
REMARK                         _______ _______ _______ _____ _____    ______ ____
ROOT
ATOM      1  O   UNL     1      34.931 -23.832 -12.238  0.00  0.00    -0.273 OA
ATOM      2  N   UNL     1      33.884 -24.165 -14.290  0.00  0.00    -0.295 N 
ATOM      3  C   ACE A   0      34.926 -24.270 -13.387  0.00  0.00    +0.239 C 
ATOM      4  H   UNL     1      33.998 -24.557 -15.186  0.00  0.00    +0.150 HD
ENDROOT
BRANCH   3   7
ATOM      5  O   UNL     1      35.820 -23.360 -16.338  0.00  0.00    -0.277 OA
ATOM      6  N   UNL     1      37.047 -24.032 -14.484  0.00  0.00    -0.277 N 
ATOM      7  C   UNL     1      36.100 -25.025 -13.954  0.00  0.00    +0.129 C 
ATOM      8  C   UNL     1      36.870 -25.704 -12.807  0.00  0.00    +0.029 C 
ATOM      9  C   UNL     1      37.854 -24.634 -12.348  0.00  0.00    +0.024 C 
ATOM     10  C   UNL     1      38.245 -23.956 -13.650  0.00  0.00    +0.094 C 
ATOM     11  C   UNL     1      35.630 -26.059 -14.974  0.00  0.00    +0.029 C 
ATOM     12  C   UNL     1      36.833 -23.290 -15.639  0.00  0.00    +0.204 C 
BRANCH  12  13
ATOM     13  C   UNL     1      37.936 -22.332 -16.013  0.00  0.00    +0.001 C 
BRANCH  13  14
ATOM     14  N   UNL     1      37.289 -21.178 -16.596  0.00  0.00    +0.386 N 
ATOM     15  H   UNL     1      36.561 -20.841 -15.965  0.00  0.00    -0.089 HD
ATOM     16  H   UNL     1      36.870 -21.437 -17.489  0.00  0.00    -0.089 HD
ATOM     17  H   UNL     1      37.977 -20.440 -16.744  0.00  0.00    -0.089 HD
ENDBRANCH  13  14
ENDBRANCH  12  13
ENDBRANCH   3   7
BRANCH   2  18
ATOM     18  CA  UNL     1      32.634 -23.506 -13.983  0.00  0.00    +0.172 C 
BRANCH  18  20
ATOM     19  OXT UNL     1      30.691 -24.364 -12.790  0.00  0.00    -0.248 OA
ATOM     20  C   UNL     1      31.663 -24.566 -13.506  0.00  0.00    +0.332 C 
BRANCH  20  21
ATOM     21  O   UNL     1      31.971 -25.795 -14.000  0.00  0.00    -0.479 OA
ATOM     22  H   UNL     1      31.588 -26.561 -13.621  0.00  0.00    +0.295 HD
ENDBRANCH  20  21
ENDBRANCH  18  20
BRANCH  18  23
ATOM     23  CB  UNL     1      32.106 -22.664 -15.151  0.00  0.00    +0.043 C 
BRANCH  23  24
ATOM     24  CG  UNL     1      31.761 -23.436 -16.430  0.00  0.00    +0.112 C 
BRANCH  24  26
ATOM     25  OE2 UNL     1      32.334 -22.076 -18.368  0.00  0.00    -0.250 OA
ATOM     26  CD  UNL     1      32.580 -23.021 -17.633  0.00  0.00    +0.314 C 
BRANCH  26  27
ATOM     27  OE1 UNL     1      33.629 -23.860 -17.838  0.00  0.00    -0.480 OA
ATOM     28  HE1 UNL     1      33.608 -24.472 -18.547  0.00  0.00    +0.295 HD
ENDBRANCH  26  27
ENDBRANCH  24  26
ENDBRANCH  23  24
ENDBRANCH  18  23
ENDBRANCH   2  18
TORSDOF 10
ENDMDL
MODEL 6
REMARK VINA RESULT:      -6.9     15.555     17.826
REMARK  Name = 11318905
REMARK  10 active torsions:
REMARK  status: ('A' for Active; 'I' for Inactive)
REMARK    1  A    between atoms: N_2  and  CA_18
REMARK    2  A    between atoms: C_3  and  C_7
REMARK    3  A    between atoms: C_12  and  C_13
REMARK    4  A    between atoms: C_13  and  N_14
REMARK    5  A    between atoms: CA_18  and  C_20
REMARK    6  A    between atoms: CA_18  and  CB_23
REMARK    7  A    between atoms: C_20  and  O_21
REMARK    8  A    between atoms: CB_23  and  CG_24
REMARK    9  A    between atoms: CG_24  and  CD_26
REMARK   10  A    between atoms: CD_26  and  OE1_27
REMARK                            x       y       z     vdW  Elec       q    Type
REMARK                         _______ _______ _______ _____ _____    ______ ____
ROOT
ATOM      1  O   UNL     1      31.169  -8.601 -23.360  0.00  0.00    -0.273 OA
ATOM      2  N   UNL     1      33.031  -9.922 -22.902  0.00  0.00    -0.295 N 
ATOM      3  C   ACE A   0      32.310  -8.741 -22.926  0.00  0.00    +0.239 C 
ATOM      4  H   UNL     1      33.942  -9.908 -22.528  0.00  0.00    +0.150 HD
ENDROOT
BRANCH   3   7
ATOM      5  O   UNL     1      32.405  -6.082 -24.730  0.00  0.00    -0.277 OA
ATOM      6  N   UNL     1      32.234  -6.393 -22.436  0.00  0.00    -0.277 N 
ATOM      7  C   UNL     1      33.077  -7.593 -22.323  0.00  0.00    +0.129 C 
ATOM      8  C   UNL     1      33.214  -7.815 -20.805  0.00  0.00    +0.029 C 
ATOM      9  C   UNL     1      31.946  -7.193 -20.232  0.00  0.00    +0.024 C 
ATOM     10  C   UNL     1      31.731  -5.983 -21.125  0.00  0.00    +0.094 C 
ATOM     11  C   UNL     1      34.452  -7.464 -22.975  0.00  0.00    +0.029 C 
ATOM     12  C   UNL     1      31.977  -5.730 -23.629  0.00  0.00    +0.204 C 
BRANCH  12  13
ATOM     13  C   UNL     1      31.094  -4.513 -23.523  0.00  0.00    +0.001 C 
BRANCH  13  14
ATOM     14  N   UNL     1      30.572  -4.275 -24.851  0.00  0.00    +0.386 N 
ATOM     15  H   UNL     1      31.002  -3.436 -25.240  0.00  0.00    -0.089 HD
ATOM     16  H   UNL     1      29.561  -4.147 -24.801  0.00  0.00    -0.089 HD
ATOM     17  H   UNL     1      30.784  -5.074 -25.448  0.00  0.00    -0.089 HD
ENDBRANCH  13  14
ENDBRANCH  12  13
ENDBRANCH   3   7
BRANCH   2  18
ATOM     18  CA  UNL     1      32.511 -11.176 -23.400  0.00  0.00    +0.172 C 
BRANCH  18  20
ATOM     19  OXT UNL     1      32.386 -12.776 -21.568  0.00  0.00    -0.248 OA
ATOM     20  C   UNL     1      31.860 -11.896 -22.237  0.00  0.00    +0.332 C 
BRANCH  20  21
ATOM     21  O   UNL     1      30.611 -11.424 -21.984  0.00  0.00    -0.479 OA
ATOM     22  H   UNL     1      30.006 -11.298 -22.688  0.00  0.00    +0.295 HD
ENDBRANCH  20  21
ENDBRANCH  18  20
BRANCH  18  23
ATOM     23  CB  UNL     1      33.573 -12.009 -24.129  0.00  0.00    +0.043 C 
BRANCH  23  24
ATOM     24  CG  UNL     1      33.922 -11.552 -25.550  0.00  0.00    +0.112 C 
BRANCH  24  26
ATOM     25  OE2 UNL     1      35.745 -10.364 -26.645  0.00  0.00    -0.250 OA
ATOM     26  CD  UNL     1      35.146 -10.666 -25.623  0.00  0.00    +0.314 C 
BRANCH  26  27
ATOM     27  OE1 UNL     1      35.545 -10.262 -24.388  0.00  0.00    -0.480 OA
ATOM     28  HE1 UNL     1      35.422  -9.372 -24.124  0.00  0.00    +0.295 HD
ENDBRANCH  26  27
ENDBRANCH  24  26
ENDBRANCH  23  24
ENDBRANCH  18  23
ENDBRANCH   2  18
TORSDOF 10
ENDMDL
MODEL 7
REMARK VINA RESULT:      -6.6     15.420     17.652
REMARK  Name = 11318905
REMARK  10 active torsions:
REMARK  status: ('A' for Active; 'I' for Inactive)
REMARK    1  A    between atoms: N_2  and  CA_18
REMARK    2  A    between atoms: C_3  and  C_7
REMARK    3  A    between atoms: C_12  and  C_13
REMARK    4  A    between atoms: C_13  and  N_14
REMARK    5  A    between atoms: CA_18  and  C_20
REMARK    6  A    between atoms: CA_18  and  CB_23
REMARK    7  A    between atoms: C_20  and  O_21
REMARK    8  A    between atoms: CB_23  and  CG_24
REMARK    9  A    between atoms: CG_24  and  CD_26
REMARK   10  A    between atoms: CD_26  and  OE1_27
REMARK                            x       y       z     vdW  Elec       q    Type
REMARK                         _______ _______ _______ _____ _____    ______ ____
ROOT
ATOM      1  O   UNL     1      31.352  -8.651 -23.681  0.00  0.00    -0.273 OA
ATOM      2  N   UNL     1      33.250  -9.917 -23.219  0.00  0.00    -0.295 N 
ATOM      3  C   ACE A   0      32.495  -8.758 -23.242  0.00  0.00    +0.239 C 
ATOM      4  H   UNL     1      34.159  -9.877 -22.841  0.00  0.00    +0.150 HD
ENDROOT
BRANCH   3   7
ATOM      5  O   UNL     1      32.630  -6.133 -25.094  0.00  0.00    -0.277 OA
ATOM      6  N   UNL     1      32.373  -6.402 -22.802  0.00  0.00    -0.277 N 
ATOM      7  C   UNL     1      33.225  -7.589 -22.633  0.00  0.00    +0.129 C 
ATOM      8  C   UNL     1      33.304  -7.780 -21.107  0.00  0.00    +0.029 C 
ATOM      9  C   UNL     1      32.008  -7.163 -20.596  0.00  0.00    +0.024 C 
ATOM     10  C   UNL     1      31.815  -5.973 -21.521  0.00  0.00    +0.094 C 
ATOM     11  C   UNL     1      34.622  -7.457 -23.234  0.00  0.00    +0.029 C 
ATOM     12  C   UNL     1      32.156  -5.766 -24.018  0.00  0.00    +0.204 C 
BRANCH  12  13
ATOM     13  C   UNL     1      31.255  -4.557 -23.970  0.00  0.00    +0.001 C 
BRANCH  13  14
ATOM     14  N   UNL     1      31.941  -3.512 -24.697  0.00  0.00    +0.386 N 
ATOM     15  H   UNL     1      31.421  -3.291 -25.547  0.00  0.00    -0.089 HD
ATOM     16  H   UNL     1      32.878  -3.830 -24.946  0.00  0.00    -0.089 HD
ATOM     17  H   UNL     1      32.009  -2.678 -24.114  0.00  0.00    -0.089 HD
ENDBRANCH  13  14
ENDBRANCH  12  13
ENDBRANCH   3   7
BRANCH   2  18
ATOM     18  CA  UNL     1      32.770 -11.184 -23.723  0.00  0.00    +0.172 C 
BRANCH  18  20
ATOM     19  OXT UNL     1      31.833 -11.435 -21.489  0.00  0.00    -0.248 OA
ATOM     20  C   UNL     1      32.147 -11.932 -22.563  0.00  0.00    +0.332 C 
BRANCH  20  21
ATOM     21  O   UNL     1      31.933 -13.241 -22.859  0.00  0.00    -0.479 OA
ATOM     22  H   UNL     1      31.143 -13.661 -22.581  0.00  0.00    +0.295 HD
ENDBRANCH  20  21
ENDBRANCH  18  20
BRANCH  18  23
ATOM     23  CB  UNL     1      33.857 -11.978 -24.459  0.00  0.00    +0.043 C 
BRANCH  23  24
ATOM     24  CG  UNL     1      33.786 -11.947 -25.991  0.00  0.00    +0.112 C 
BRANCH  24  26
ATOM     25  OE2 UNL     1      33.721 -13.625 -27.755  0.00  0.00    -0.250 OA
ATOM     26  CD  UNL     1      33.449 -13.284 -26.613  0.00  0.00    +0.314 C 
BRANCH  26  27
ATOM     27  OE1 UNL     1      32.757 -14.076 -25.753  0.00  0.00    -0.480 OA
ATOM     28  HE1 UNL     1      31.852 -13.901 -25.580  0.00  0.00    +0.295 HD
ENDBRANCH  26  27
ENDBRANCH  24  26
ENDBRANCH  23  24
ENDBRANCH  18  23
ENDBRANCH   2  18
TORSDOF 10
ENDMDL
MODEL 8
REMARK VINA RESULT:      -6.6      8.089     10.278
REMARK  Name = 11318905
REMARK  10 active torsions:
REMARK  status: ('A' for Active; 'I' for Inactive)
REMARK    1  A    between atoms: N_2  and  CA_18
REMARK    2  A    between atoms: C_3  and  C_7
REMARK    3  A    between atoms: C_12  and  C_13
REMARK    4  A    between atoms: C_13  and  N_14
REMARK    5  A    between atoms: CA_18  and  C_20
REMARK    6  A    between atoms: CA_18  and  CB_23
REMARK    7  A    between atoms: C_20  and  O_21
REMARK    8  A    between atoms: CB_23  and  CG_24
REMARK    9  A    between atoms: CG_24  and  CD_26
REMARK   10  A    between atoms: CD_26  and  OE1_27
REMARK                            x       y       z     vdW  Elec       q    Type
REMARK                         _______ _______ _______ _____ _____    ______ ____
ROOT
ATOM      1  O   UNL     1      35.699 -17.555 -20.274  0.00  0.00    -0.273 OA
ATOM      2  N   UNL     1      34.097 -16.906 -21.834  0.00  0.00    -0.295 N 
ATOM      3  C   ACE A   0      34.895 -17.818 -21.166  0.00  0.00    +0.239 C 
ATOM      4  H   UNL     1      33.489 -17.239 -22.533  0.00  0.00    +0.150 HD
ENDROOT
BRANCH   3   7
ATOM      5  O   UNL     1      37.353 -19.829 -20.671  0.00  0.00    -0.277 OA
ATOM      6  N   UNL     1      35.055 -20.128 -20.537  0.00  0.00    -0.277 N 
ATOM      7  C   UNL     1      34.662 -19.231 -21.634  0.00  0.00    +0.129 C 
ATOM      8  C   UNL     1      33.149 -19.470 -21.792  0.00  0.00    +0.029 C 
ATOM      9  C   UNL     1      32.706 -19.919 -20.405  0.00  0.00    +0.024 C 
ATOM     10  C   UNL     1      33.882 -20.755 -19.930  0.00  0.00    +0.094 C 
ATOM     11  C   UNL     1      35.389 -19.486 -22.952  0.00  0.00    +0.029 C 
ATOM     12  C   UNL     1      36.369 -20.362 -20.154  0.00  0.00    +0.204 C 
BRANCH  12  13
ATOM     13  C   UNL     1      36.554 -21.327 -19.010  0.00  0.00    +0.001 C 
BRANCH  13  14
ATOM     14  N   UNL     1      37.090 -20.553 -17.912  0.00  0.00    +0.386 N 
ATOM     15  H   UNL     1      37.861 -19.974 -18.247  0.00  0.00    -0.089 HD
ATOM     16  H   UNL     1      37.430 -21.184 -17.186  0.00  0.00    -0.089 HD
ATOM     17  H   UNL     1      36.359 -19.955 -17.528  0.00  0.00    -0.089 HD
ENDBRANCH  13  14
ENDBRANCH  12  13
ENDBRANCH   3   7
BRANCH   2  18
ATOM     18  CA  UNL     1      34.113 -15.487 -21.555  0.00  0.00    +0.172 C 
BRANCH  18  20
ATOM     19  OXT UNL     1      31.800 -15.875 -20.896  0.00  0.00    -0.248 OA
ATOM     20  C   UNL     1      32.756 -15.116 -20.993  0.00  0.00    +0.332 C 
BRANCH  20  21
ATOM     21  O   UNL     1      32.721 -13.827 -20.562  0.00  0.00    -0.479 OA
ATOM     22  H   UNL     1      32.787 -13.126 -21.179  0.00  0.00    +0.295 HD
ENDBRANCH  20  21
ENDBRANCH  18  20
BRANCH  18  23
ATOM     23  CB  UNL     1      34.530 -14.650 -22.770  0.00  0.00    +0.043 C 
BRANCH  23  24
ATOM     24  CG  UNL     1      33.407 -14.285 -23.749  0.00  0.00    +0.112 C 
BRANCH  24  26
ATOM     25  OE2 UNL     1      33.751 -12.223 -24.998  0.00  0.00    -0.250 OA
ATOM     26  CD  UNL     1      33.295 -12.801 -24.022  0.00  0.00    +0.314 C 
BRANCH  26  27
ATOM     27  OE1 UNL     1      32.648 -12.155 -23.017  0.00  0.00    -0.480 OA
ATOM     28  HE1 UNL     1      32.047 -11.464 -23.215  0.00  0.00    +0.295 HD
ENDBRANCH  26  27
ENDBRANCH  24  26
ENDBRANCH  23  24
ENDBRANCH  18  23
ENDBRANCH   2  18
TORSDOF 10
ENDMDL
MODEL 9
REMARK VINA RESULT:      -6.5     13.533     16.058
REMARK  Name = 11318905
REMARK  10 active torsions:
REMARK  status: ('A' for Active; 'I' for Inactive)
REMARK    1  A    between atoms: N_2  and  CA_18
REMARK    2  A    between atoms: C_3  and  C_7
REMARK    3  A    between atoms: C_12  and  C_13
REMARK    4  A    between atoms: C_13  and  N_14
REMARK    5  A    between atoms: CA_18  and  C_20
REMARK    6  A    between atoms: CA_18  and  CB_23
REMARK    7  A    between atoms: C_20  and  O_21
REMARK    8  A    between atoms: CB_23  and  CG_24
REMARK    9  A    between atoms: CG_24  and  CD_26
REMARK   10  A    between atoms: CD_26  and  OE1_27
REMARK                            x       y       z     vdW  Elec       q    Type
REMARK                         _______ _______ _______ _____ _____    ______ ____
ROOT
ATOM      1  O   UNL     1      34.647  -9.081 -23.388  0.00  0.00    -0.273 OA
ATOM      2  N   UNL     1      33.084 -10.794 -23.601  0.00  0.00    -0.295 N 
ATOM      3  C   ACE A   0      33.500  -9.513 -23.284  0.00  0.00    +0.239 C 
ATOM      4  H   UNL     1      32.135 -11.023 -23.473  0.00  0.00    +0.150 HD
ENDROOT
BRANCH   3   7
ATOM      5  O   UNL     1      30.942 -11.124 -22.191  0.00  0.00    -0.277 OA
ATOM      6  N   UNL     1      31.956  -9.160 -21.481  0.00  0.00    -0.277 N 
ATOM      7  C   UNL     1      32.367  -8.648 -22.797  0.00  0.00    +0.129 C 
ATOM      8  C   UNL     1      32.899  -7.234 -22.501  0.00  0.00    +0.029 C 
ATOM      9  C   UNL     1      33.376  -7.321 -21.056  0.00  0.00    +0.024 C 
ATOM     10  C   UNL     1      32.346  -8.236 -20.416  0.00  0.00    +0.094 C 
ATOM     11  C   UNL     1      31.248  -8.597 -23.834  0.00  0.00    +0.029 C 
ATOM     12  C   UNL     1      31.267 -10.351 -21.289  0.00  0.00    +0.204 C 
BRANCH  12  13
ATOM     13  C   UNL     1      30.933 -10.687 -19.857  0.00  0.00    +0.001 C 
BRANCH  13  14
ATOM     14  N   UNL     1      31.781 -11.802 -19.495  0.00  0.00    +0.386 N 
ATOM     15  H   UNL     1      31.776 -11.918 -18.482  0.00  0.00    -0.089 HD
ATOM     16  H   UNL     1      32.733 -11.621 -19.812  0.00  0.00    -0.089 HD
ATOM     17  H   UNL     1      31.431 -12.653 -19.936  0.00  0.00    -0.089 HD
ENDBRANCH  13  14
ENDBRANCH  12  13
ENDBRANCH   3   7
BRANCH   2  18
ATOM     18  CA  UNL     1      33.974 -11.811 -24.112  0.00  0.00    +0.172 C 
BRANCH  18  20
ATOM     19  OXT UNL     1      33.668 -11.806 -26.529  0.00  0.00    -0.248 OA
ATOM     20  C   UNL     1      34.306 -11.452 -25.546  0.00  0.00    +0.332 C 
BRANCH  20  21
ATOM     21  O   UNL     1      35.395 -10.641 -25.626  0.00  0.00    -0.479 OA
ATOM     22  H   UNL     1      35.811 -10.498 -26.453  0.00  0.00    +0.295 HD
ENDBRANCH  20  21
ENDBRANCH  18  20
BRANCH  18  23
ATOM     23  CB  UNL     1      33.412 -13.228 -23.944  0.00  0.00    +0.043 C 
BRANCH  23  24
ATOM     24  CG  UNL     1      34.164 -14.134 -22.961  0.00  0.00    +0.112 C 
BRANCH  24  26
ATOM     25  OE2 UNL     1      33.997 -14.739 -20.607  0.00  0.00    -0.250 OA
ATOM     26  CD  UNL     1      33.490 -14.263 -21.612  0.00  0.00    +0.314 C 
BRANCH  26  27
ATOM     27  OE1 UNL     1      32.208 -13.814 -21.649  0.00  0.00    -0.480 OA
ATOM     28  HE1 UNL     1      31.607 -14.162 -22.279  0.00  0.00    +0.295 HD
ENDBRANCH  26  27
ENDBRANCH  24  26
ENDBRANCH  23  24
ENDBRANCH  18  23
ENDBRANCH   2  18
TORSDOF 10
ENDMDL
