MODEL 1
REMARK VINA RESULT:      -7.2      0.000      0.000
REMARK  Name = 6420130
REMARK  2 active torsions:
REMARK  status: ('A' for Active; 'I' for Inactive)
REMARK    1  A    between atoms: C_1  and  N_11
REMARK    2  A    between atoms: C_2  and  O_15
REMARK                            x       y       z     vdW  Elec       q    Type
REMARK                         _______ _______ _______ _____ _____    ______ ____
ROOT
ATOM      1  C   UNL     1      35.488 -18.699 -21.523  0.00  0.00    -0.034 C 
ATOM      2  C   UNL     1      36.155 -19.890 -20.810  0.00  0.00    +0.113 C 
ATOM      3  C   UNL     1      34.168 -19.125 -22.165  0.00  0.00    -0.015 C 
ATOM      4  C   UNL     1      33.192 -19.599 -21.091  0.00  0.00    +0.024 C 
ATOM      5  C   UNL     1      35.190 -20.735 -20.002  0.00  0.00    -0.002 C 
ATOM      6  C   UNL     1      33.796 -20.615 -20.159  0.00  0.00    -0.024 C 
ATOM      7  C   UNL     1      35.693 -21.708 -19.120  0.00  0.00    -0.002 C 
ATOM      8  C   UNL     1      32.940 -21.427 -19.397  0.00  0.00    -0.005 C 
ATOM      9  C   UNL     1      34.832 -22.518 -18.378  0.00  0.00    -0.000 C 
ATOM     10  C   UNL     1      33.456 -22.373 -18.512  0.00  0.00    -0.000 C 
ENDROOT
BRANCH   1  11
ATOM     11  N   UNL     1      36.380 -18.172 -22.559  0.00  0.00    +0.384 N 
ATOM     12  H   UNL     1      35.824 -17.813 -23.336  0.00  0.00    -0.089 HD
ATOM     13  H   UNL     1      36.990 -18.918 -22.893  0.00  0.00    -0.089 HD
ATOM     14  H   UNL     1      36.946 -17.418 -22.169  0.00  0.00    -0.089 HD
ENDBRANCH   1  11
BRANCH   2  15
ATOM     15  O   UNL     1      37.167 -19.387 -19.937  0.00  0.00    -0.382 OA
ATOM     16  H   UNL     1      37.969 -19.193 -20.447  0.00  0.00    +0.211 HD
ENDBRANCH   2  15
TORSDOF 2
ENDMDL
MODEL 2
REMARK VINA RESULT:      -7.1      2.571      4.571
REMARK  Name = 6420130
REMARK  2 active torsions:
REMARK  status: ('A' for Active; 'I' for Inactive)
REMARK    1  A    between atoms: C_1  and  N_11
REMARK    2  A    between atoms: C_2  and  O_15
REMARK                            x       y       z     vdW  Elec       q    Type
REMARK                         _______ _______ _______ _____ _____    ______ ____
ROOT
ATOM      1  C   UNL     1      33.927 -21.608 -19.030  0.00  0.00    -0.034 C 
ATOM      2  C   UNL     1      33.449 -20.872 -20.296  0.00  0.00    +0.113 C 
ATOM      3  C   UNL     1      35.345 -22.145 -19.223  0.00  0.00    -0.015 C 
ATOM      4  C   UNL     1      36.316 -20.991 -19.456  0.00  0.00    +0.024 C 
ATOM      5  C   UNL     1      34.497 -19.963 -20.906  0.00  0.00    -0.002 C 
ATOM      6  C   UNL     1      35.851 -20.043 -20.529  0.00  0.00    -0.024 C 
ATOM      7  C   UNL     1      34.126 -19.061 -21.919  0.00  0.00    -0.002 C 
ATOM      8  C   UNL     1      36.790 -19.188 -21.129  0.00  0.00    -0.005 C 
ATOM      9  C   UNL     1      35.071 -18.226 -22.518  0.00  0.00    -0.000 C 
ATOM     10  C   UNL     1      36.402 -18.286 -22.118  0.00  0.00    -0.000 C 
ENDROOT
BRANCH   1  11
ATOM     11  N   UNL     1      33.026 -22.722 -18.728  0.00  0.00    +0.384 N 
ATOM     12  H   UNL     1      32.929 -22.816 -17.716  0.00  0.00    -0.089 HD
ATOM     13  H   UNL     1      33.410 -23.584 -19.114  0.00  0.00    -0.089 HD
ATOM     14  H   UNL     1      32.111 -22.541 -19.141  0.00  0.00    -0.089 HD
ENDBRANCH   1  11
BRANCH   2  15
ATOM     15  O   UNL     1      32.302 -20.089 -19.959  0.00  0.00    -0.382 OA
ATOM     16  H   UNL     1      31.506 -20.510 -20.318  0.00  0.00    +0.211 HD
ENDBRANCH   2  15
TORSDOF 2
ENDMDL
MODEL 3
REMARK VINA RESULT:      -6.9      3.471      5.828
REMARK  Name = 6420130
REMARK  2 active torsions:
REMARK  status: ('A' for Active; 'I' for Inactive)
REMARK    1  A    between atoms: C_1  and  N_11
REMARK    2  A    between atoms: C_2  and  O_15
REMARK                            x       y       z     vdW  Elec       q    Type
REMARK                         _______ _______ _______ _____ _____    ______ ____
ROOT
ATOM      1  C   UNL     1      35.516 -18.401 -21.619  0.00  0.00    -0.034 C 
ATOM      2  C   UNL     1      34.578 -17.232 -21.267  0.00  0.00    +0.113 C 
ATOM      3  C   UNL     1      35.069 -19.081 -22.913  0.00  0.00    -0.015 C 
ATOM      4  C   UNL     1      35.139 -18.093 -24.075  0.00  0.00    +0.024 C 
ATOM      5  C   UNL     1      34.209 -16.367 -22.455  0.00  0.00    -0.002 C 
ATOM      6  C   UNL     1      34.449 -16.789 -23.777  0.00  0.00    -0.024 C 
ATOM      7  C   UNL     1      33.555 -15.140 -22.242  0.00  0.00    -0.002 C 
ATOM      8  C   UNL     1      34.081 -15.959 -24.848  0.00  0.00    -0.005 C 
ATOM      9  C   UNL     1      33.182 -14.330 -23.316  0.00  0.00    -0.000 C 
ATOM     10  C   UNL     1      33.450 -14.737 -24.618  0.00  0.00    -0.000 C 
ENDROOT
BRANCH   1  11
ATOM     11  N   UNL     1      35.519 -19.385 -20.534  0.00  0.00    +0.384 N 
ATOM     12  H   UNL     1      35.939 -18.972 -19.701  0.00  0.00    -0.089 HD
ATOM     13  H   UNL     1      36.059 -20.202 -20.817  0.00  0.00    -0.089 HD
ATOM     14  H   UNL     1      34.560 -19.666 -20.327  0.00  0.00    -0.089 HD
ENDBRANCH   1  11
BRANCH   2  15
ATOM     15  O   UNL     1      35.220 -16.416 -20.285  0.00  0.00    -0.382 OA
ATOM     16  H   UNL     1      34.887 -15.507 -20.351  0.00  0.00    +0.211 HD
ENDBRANCH   2  15
TORSDOF 2
ENDMDL
MODEL 4
REMARK VINA RESULT:      -6.9      4.191      5.539
REMARK  Name = 6420130
REMARK  2 active torsions:
REMARK  status: ('A' for Active; 'I' for Inactive)
REMARK    1  A    between atoms: C_1  and  N_11
REMARK    2  A    between atoms: C_2  and  O_15
REMARK                            x       y       z     vdW  Elec       q    Type
REMARK                         _______ _______ _______ _____ _____    ______ ____
ROOT
ATOM      1  C   UNL     1      33.779 -14.842 -24.780  0.00  0.00    -0.034 C 
ATOM      2  C   UNL     1      33.964 -16.370 -24.822  0.00  0.00    +0.113 C 
ATOM      3  C   UNL     1      33.151 -14.412 -23.455  0.00  0.00    -0.015 C 
ATOM      4  C   UNL     1      34.072 -14.776 -22.294  0.00  0.00    +0.024 C 
ATOM      5  C   UNL     1      34.507 -16.955 -23.533  0.00  0.00    -0.002 C 
ATOM      6  C   UNL     1      34.529 -16.211 -22.339  0.00  0.00    -0.024 C 
ATOM      7  C   UNL     1      34.942 -18.292 -23.508  0.00  0.00    -0.002 C 
ATOM      8  C   UNL     1      35.031 -16.797 -21.165  0.00  0.00    -0.005 C 
ATOM      9  C   UNL     1      35.426 -18.867 -22.333  0.00  0.00    -0.000 C 
ATOM     10  C   UNL     1      35.476 -18.118 -21.163  0.00  0.00    -0.000 C 
ENDROOT
BRANCH   1  11
ATOM     11  N   UNL     1      32.918 -14.411 -25.884  0.00  0.00    +0.384 N 
ATOM     12  H   UNL     1      33.491 -13.993 -26.619  0.00  0.00    -0.089 HD
ATOM     13  H   UNL     1      32.247 -13.723 -25.544  0.00  0.00    -0.089 HD
ATOM     14  H   UNL     1      32.419 -15.217 -26.260  0.00  0.00    -0.089 HD
ENDBRANCH   1  11
BRANCH   2  15
ATOM     15  O   UNL     1      34.863 -16.689 -25.886  0.00  0.00    -0.382 OA
ATOM     16  H   UNL     1      35.325 -17.517 -25.683  0.00  0.00    +0.211 HD
ENDBRANCH   2  15
TORSDOF 2
ENDMDL
MODEL 5
REMARK VINA RESULT:      -6.8      4.196      6.205
REMARK  Name = 6420130
REMARK  2 active torsions:
REMARK  status: ('A' for Active; 'I' for Inactive)
REMARK    1  A    between atoms: C_1  and  N_11
REMARK    2  A    between atoms: C_2  and  O_15
REMARK                            x       y       z     vdW  Elec       q    Type
REMARK                         _______ _______ _______ _____ _____    ______ ____
ROOT
ATOM      1  C   UNL     1      35.445 -17.442 -22.340  0.00  0.00    -0.034 C 
ATOM      2  C   UNL     1      34.450 -16.777 -21.372  0.00  0.00    +0.113 C 
ATOM      3  C   UNL     1      34.851 -17.533 -23.745  0.00  0.00    -0.015 C 
ATOM      4  C   UNL     1      34.574 -16.134 -24.289  0.00  0.00    +0.024 C 
ATOM      5  C   UNL     1      33.756 -15.560 -21.950  0.00  0.00    -0.002 C 
ATOM      6  C   UNL     1      33.793 -15.277 -23.329  0.00  0.00    -0.024 C 
ATOM      7  C   UNL     1      33.004 -14.724 -21.105  0.00  0.00    -0.002 C 
ATOM      8  C   UNL     1      33.126 -14.143 -23.823  0.00  0.00    -0.005 C 
ATOM      9  C   UNL     1      32.335 -13.609 -21.610  0.00  0.00    -0.000 C 
ATOM     10  C   UNL     1      32.401 -13.315 -22.968  0.00  0.00    -0.000 C 
ENDROOT
BRANCH   1  11
ATOM     11  N   UNL     1      35.778 -18.789 -21.870  0.00  0.00    +0.384 N 
ATOM     12  H   UNL     1      35.079 -19.095 -21.192  0.00  0.00    -0.089 HD
ATOM     13  H   UNL     1      36.697 -18.777 -21.429  0.00  0.00    -0.089 HD
ATOM     14  H   UNL     1      35.788 -19.433 -22.661  0.00  0.00    -0.089 HD
ENDBRANCH   1  11
BRANCH   2  15
ATOM     15  O   UNL     1      35.157 -16.386 -20.193  0.00  0.00    -0.382 OA
ATOM     16  H   UNL     1      35.648 -15.567 -20.366  0.00  0.00    +0.211 HD
ENDBRANCH   2  15
TORSDOF 2
ENDMDL
MODEL 6
REMARK VINA RESULT:      -6.8      4.702      5.955
REMARK  Name = 6420130
REMARK  2 active torsions:
REMARK  status: ('A' for Active; 'I' for Inactive)
REMARK    1  A    between atoms: C_1  and  N_11
REMARK    2  A    between atoms: C_2  and  O_15
REMARK                            x       y       z     vdW  Elec       q    Type
REMARK                         _______ _______ _______ _____ _____    ______ ____
ROOT
ATOM      1  C   UNL     1      33.084 -13.867 -22.205  0.00  0.00    -0.034 C 
ATOM      2  C   UNL     1      33.254 -14.908 -23.328  0.00  0.00    +0.113 C 
ATOM      3  C   UNL     1      32.859 -14.557 -20.861  0.00  0.00    -0.015 C 
ATOM      4  C   UNL     1      34.074 -15.406 -20.496  0.00  0.00    +0.024 C 
ATOM      5  C   UNL     1      34.142 -16.075 -22.949  0.00  0.00    -0.002 C 
ATOM      6  C   UNL     1      34.502 -16.323 -21.611  0.00  0.00    -0.024 C 
ATOM      7  C   UNL     1      34.569 -16.972 -23.944  0.00  0.00    -0.002 C 
ATOM      8  C   UNL     1      35.319 -17.424 -21.304  0.00  0.00    -0.005 C 
ATOM      9  C   UNL     1      35.369 -18.070 -23.626  0.00  0.00    -0.000 C 
ATOM     10  C   UNL     1      35.749 -18.292 -22.306  0.00  0.00    -0.000 C 
ENDROOT
BRANCH   1  11
ATOM     11  N   UNL     1      31.944 -12.996 -22.498  0.00  0.00    +0.384 N 
ATOM     12  H   UNL     1      31.092 -13.412 -22.120  0.00  0.00    -0.089 HD
ATOM     13  H   UNL     1      31.850 -12.885 -23.507  0.00  0.00    -0.089 HD
ATOM     14  H   UNL     1      32.095 -12.083 -22.068  0.00  0.00    -0.089 HD
ENDBRANCH   1  11
BRANCH   2  15
ATOM     15  O   UNL     1      33.813 -14.256 -24.470  0.00  0.00    -0.382 OA
ATOM     16  H   UNL     1      34.396 -13.537 -24.179  0.00  0.00    +0.211 HD
ENDBRANCH   2  15
TORSDOF 2
ENDMDL
MODEL 7
REMARK VINA RESULT:      -6.8      3.948      6.408
REMARK  Name = 6420130
REMARK  2 active torsions:
REMARK  status: ('A' for Active; 'I' for Inactive)
REMARK    1  A    between atoms: C_1  and  N_11
REMARK    2  A    between atoms: C_2  and  O_15
REMARK                            x       y       z     vdW  Elec       q    Type
REMARK                         _______ _______ _______ _____ _____    ______ ____
ROOT
ATOM      1  C   UNL     1      34.723 -17.441 -21.410  0.00  0.00    -0.034 C 
ATOM      2  C   UNL     1      34.991 -17.466 -22.926  0.00  0.00    +0.113 C 
ATOM      3  C   UNL     1      34.790 -16.012 -20.874  0.00  0.00    -0.015 C 
ATOM      4  C   UNL     1      33.709 -15.155 -21.527  0.00  0.00    +0.024 C 
ATOM      5  C   UNL     1      34.281 -16.366 -23.689  0.00  0.00    -0.002 C 
ATOM      6  C   UNL     1      33.703 -15.265 -23.029  0.00  0.00    -0.024 C 
ATOM      7  C   UNL     1      34.248 -16.409 -25.095  0.00  0.00    -0.002 C 
ATOM      8  C   UNL     1      33.064 -14.264 -23.778  0.00  0.00    -0.005 C 
ATOM      9  C   UNL     1      33.621 -15.401 -25.828  0.00  0.00    -0.000 C 
ATOM     10  C   UNL     1      33.024 -14.331 -25.169  0.00  0.00    -0.000 C 
ENDROOT
BRANCH   1  11
ATOM     11  N   UNL     1      35.713 -18.265 -20.712  0.00  0.00    +0.384 N 
ATOM     12  H   UNL     1      35.237 -19.007 -20.199  0.00  0.00    -0.089 HD
ATOM     13  H   UNL     1      36.240 -17.684 -20.060  0.00  0.00    -0.089 HD
ATOM     14  H   UNL     1      36.352 -18.678 -21.392  0.00  0.00    -0.089 HD
ENDBRANCH   1  11
BRANCH   2  15
ATOM     15  O   UNL     1      34.568 -18.730 -23.440  0.00  0.00    -0.382 OA
ATOM     16  H   UNL     1      35.081 -18.944 -24.236  0.00  0.00    +0.211 HD
ENDBRANCH   2  15
TORSDOF 2
ENDMDL
MODEL 8
REMARK VINA RESULT:      -6.7      2.348      3.945
REMARK  Name = 6420130
REMARK  2 active torsions:
REMARK  status: ('A' for Active; 'I' for Inactive)
REMARK    1  A    between atoms: C_1  and  N_11
REMARK    2  A    between atoms: C_2  and  O_15
REMARK                            x       y       z     vdW  Elec       q    Type
REMARK                         _______ _______ _______ _____ _____    ______ ____
ROOT
ATOM      1  C   UNL     1      33.756 -21.918 -19.401  0.00  0.00    -0.034 C 
ATOM      2  C   UNL     1      35.156 -21.275 -19.390  0.00  0.00    +0.113 C 
ATOM      3  C   UNL     1      32.674 -20.851 -19.559  0.00  0.00    -0.015 C 
ATOM      4  C   UNL     1      32.839 -20.130 -20.894  0.00  0.00    +0.024 C 
ATOM      5  C   UNL     1      35.340 -20.199 -20.441  0.00  0.00    -0.002 C 
ATOM      6  C   UNL     1      34.244 -19.642 -21.126  0.00  0.00    -0.024 C 
ATOM      7  C   UNL     1      36.629 -19.695 -20.697  0.00  0.00    -0.002 C 
ATOM      8  C   UNL     1      34.462 -18.638 -22.084  0.00  0.00    -0.005 C 
ATOM      9  C   UNL     1      36.830 -18.688 -21.642  0.00  0.00    -0.000 C 
ATOM     10  C   UNL     1      35.748 -18.164 -22.340  0.00  0.00    -0.000 C 
ENDROOT
BRANCH   1  11
ATOM     11  N   UNL     1      33.532 -22.651 -18.153  0.00  0.00    +0.384 N 
ATOM     12  H   UNL     1      32.537 -22.636 -17.924  0.00  0.00    -0.089 HD
ATOM     13  H   UNL     1      34.060 -22.210 -17.400  0.00  0.00    -0.089 HD
ATOM     14  H   UNL     1      33.841 -23.616 -18.265  0.00  0.00    -0.089 HD
ENDBRANCH   1  11
BRANCH   2  15
ATOM     15  O   UNL     1      36.127 -22.300 -19.606  0.00  0.00    -0.382 OA
ATOM     16  H   UNL     1      36.918 -21.917 -20.016  0.00  0.00    +0.211 HD
ENDBRANCH   2  15
TORSDOF 2
ENDMDL
MODEL 9
REMARK VINA RESULT:      -6.7     11.741     13.535
REMARK  Name = 6420130
REMARK  2 active torsions:
REMARK  status: ('A' for Active; 'I' for Inactive)
REMARK    1  A    between atoms: C_1  and  N_11
REMARK    2  A    between atoms: C_2  and  O_15
REMARK                            x       y       z     vdW  Elec       q    Type
REMARK                         _______ _______ _______ _____ _____    ______ ____
ROOT
ATOM      1  C   UNL     1      32.365  -9.381 -20.197  0.00  0.00    -0.034 C 
ATOM      2  C   UNL     1      32.084  -7.867 -20.179  0.00  0.00    +0.113 C 
ATOM      3  C   UNL     1      31.415 -10.094 -21.159  0.00  0.00    -0.015 C 
ATOM      4  C   UNL     1      31.633  -9.588 -22.582  0.00  0.00    +0.024 C 
ATOM      5  C   UNL     1      31.857  -7.273 -21.554  0.00  0.00    -0.002 C 
ATOM      6  C   UNL     1      31.616  -8.085 -22.678  0.00  0.00    -0.024 C 
ATOM      7  C   UNL     1      31.823  -5.875 -21.707  0.00  0.00    -0.002 C 
ATOM      8  C   UNL     1      31.400  -7.490 -23.932  0.00  0.00    -0.005 C 
ATOM      9  C   UNL     1      31.593  -5.295 -22.956  0.00  0.00    -0.000 C 
ATOM     10  C   UNL     1      31.388  -6.103 -24.069  0.00  0.00    -0.000 C 
ENDROOT
BRANCH   1  11
ATOM     11  N   UNL     1      32.197  -9.938 -18.853  0.00  0.00    +0.384 N 
ATOM     12  H   UNL     1      31.235  -9.796 -18.544  0.00  0.00    -0.089 HD
ATOM     13  H   UNL     1      32.833  -9.470 -18.209  0.00  0.00    -0.089 HD
ATOM     14  H   UNL     1      32.404 -10.937 -18.870  0.00  0.00    -0.089 HD
ENDBRANCH   1  11
BRANCH   2  15
ATOM     15  O   UNL     1      33.196  -7.208 -19.571  0.00  0.00    -0.382 OA
ATOM     16  H   UNL     1      33.055  -7.150 -18.613  0.00  0.00    +0.211 HD
ENDBRANCH   2  15
TORSDOF 2
ENDMDL
