MODEL 1
REMARK VINA RESULT:     -10.2      0.000      0.000
REMARK  Name = 9913767
REMARK  11 active torsions:
REMARK  status: ('A' for Active; 'I' for Inactive)
REMARK    1  A    between atoms: N_1  and  C_20
REMARK    2  A    between atoms: N_1  and  C_23
REMARK    3  A    between atoms: C_6  and  C_8
REMARK    4  A    between atoms: C_7  and  C_14
REMARK    5  A    between atoms: C_23  and  C_24
REMARK    6  A    between atoms: C_24  and  C_25
REMARK    7  A    between atoms: C_25  and  C_26
REMARK    8  A    between atoms: C_26  and  O_27
REMARK    9  A    between atoms: O_27  and  C_28
REMARK   10  A    between atoms: C_28  and  C_31
REMARK   11  A    between atoms: N_30  and  S_33
REMARK                            x       y       z     vdW  Elec       q    Type
REMARK                         _______ _______ _______ _____ _____    ______ ____
ROOT
ATOM      1  N   UNL     1      34.001 -14.236 -24.119  0.00  0.00    -0.287 N 
ATOM      2  N   UNL     1      33.119 -12.429 -22.850  0.00  0.00    -0.388 NA
ATOM      3  N   UNL     1      33.608 -10.733 -25.029  0.00  0.00    -0.259 NA
ATOM      4  C   UNL     1      33.664 -12.881 -23.996  0.00  0.00    +0.185 C 
ATOM      5  C   UNL     1      33.904 -12.048 -25.067  0.00  0.00    +0.200 C 
ATOM      6  C   UNL     1      32.824 -11.115 -22.811  0.00  0.00    +0.150 C 
ATOM      7  C   UNL     1      33.064 -10.281 -23.881  0.00  0.00    +0.106 C 
ENDROOT
BRANCH   6   8
ATOM      8  C   UNL     1      32.242 -10.665 -21.568  0.00  0.00    +0.031 C 
ATOM      9  C   UNL     1      31.356 -11.489 -20.873  0.00  0.00    +0.003 C 
ATOM     10  C   UNL     1      32.566  -9.407 -21.061  0.00  0.00    +0.003 C 
ATOM     11  C   UNL     1      30.795 -11.055 -19.673  0.00  0.00    +0.000 C 
ATOM     12  C   UNL     1      32.005  -8.971 -19.860  0.00  0.00    +0.000 C 
ATOM     13  C   UNL     1      31.118  -9.796 -19.167  0.00  0.00    +0.000 C 
ENDBRANCH   6   8
BRANCH   7  14
ATOM     14  C   UNL     1      32.760  -8.870 -23.875  0.00  0.00    +0.020 C 
ATOM     15  C   UNL     1      31.432  -8.443 -23.930  0.00  0.00    +0.002 C 
ATOM     16  C   UNL     1      33.791  -7.932 -23.813  0.00  0.00    +0.002 C 
ATOM     17  C   UNL     1      31.136  -7.080 -23.924  0.00  0.00    +0.000 C 
ATOM     18  C   UNL     1      33.495  -6.569 -23.807  0.00  0.00    +0.000 C 
ATOM     19  C   UNL     1      32.168  -6.143 -23.862  0.00  0.00    +0.000 C 
ENDBRANCH   7  14
BRANCH   1  20
ATOM     20  C   UNL     1      33.944 -14.889 -25.429  0.00  0.00    +0.075 C 
ATOM     21  C   UNL     1      34.239 -16.374 -25.269  0.00  0.00    +0.021 C 
ATOM     22  C   UNL     1      32.572 -14.657 -26.046  0.00  0.00    +0.021 C 
ENDBRANCH   1  20
BRANCH   1  23
ATOM     23  C   UNL     1      34.395 -15.020 -22.973  0.00  0.00    +0.093 C 
BRANCH  23  24
ATOM     24  C   UNL     1      33.191 -15.346 -22.093  0.00  0.00    +0.024 C 
BRANCH  24  25
ATOM     25  C   UNL     1      33.485 -16.453 -21.081  0.00  0.00    +0.034 C 
BRANCH  25  26
ATOM     26  C   UNL     1      34.942 -16.890 -21.136  0.00  0.00    +0.143 C 
BRANCH  26  27
ATOM     27  O   UNL     1      35.034 -18.237 -20.692  0.00  0.00    -0.344 OA
BRANCH  27  28
ATOM     28  C   UNL     1      34.333 -19.121 -21.557  0.00  0.00    +0.228 C 
BRANCH  28  31
ATOM     29  O   UNL     1      32.350 -20.185 -20.691  0.00  0.00    -0.271 OA
ATOM     30  N   UNL     1      34.432 -21.080 -20.084  0.00  0.00    -0.187 N 
ATOM     31  C   UNL     1      33.573 -20.154 -20.757  0.00  0.00    +0.271 C 
ATOM     32  H   UNL     1      35.403 -20.963 -20.200  0.00  0.00    +0.176 HD
BRANCH  30  33
ATOM     33  S   UNL     1      33.910 -22.372 -19.096  0.00  0.00    +0.058 S 
ATOM     34  O   UNL     1      32.611 -22.071 -18.525  0.00  0.00    -0.154 OA
ATOM     35  O   UNL     1      34.145 -23.618 -19.798  0.00  0.00    -0.154 OA
ATOM     36  C   UNL     1      35.117 -22.254 -17.798  0.00  0.00    +0.200 C 
ENDBRANCH  30  33
ENDBRANCH  28  31
ENDBRANCH  27  28
ENDBRANCH  26  27
ENDBRANCH  25  26
ENDBRANCH  24  25
ENDBRANCH  23  24
ENDBRANCH   1  23
TORSDOF 11
ENDMDL
MODEL 2
REMARK VINA RESULT:     -10.0      1.608      3.410
REMARK  Name = 9913767
REMARK  11 active torsions:
REMARK  status: ('A' for Active; 'I' for Inactive)
REMARK    1  A    between atoms: N_1  and  C_20
REMARK    2  A    between atoms: N_1  and  C_23
REMARK    3  A    between atoms: C_6  and  C_8
REMARK    4  A    between atoms: C_7  and  C_14
REMARK    5  A    between atoms: C_23  and  C_24
REMARK    6  A    between atoms: C_24  and  C_25
REMARK    7  A    between atoms: C_25  and  C_26
REMARK    8  A    between atoms: C_26  and  O_27
REMARK    9  A    between atoms: O_27  and  C_28
REMARK   10  A    between atoms: C_28  and  C_31
REMARK   11  A    between atoms: N_30  and  S_33
REMARK                            x       y       z     vdW  Elec       q    Type
REMARK                         _______ _______ _______ _____ _____    ______ ____
ROOT
ATOM      1  N   UNL     1      32.924 -14.831 -21.966  0.00  0.00    -0.287 N 
ATOM      2  N   UNL     1      33.478 -12.813 -23.094  0.00  0.00    -0.388 NA
ATOM      3  N   UNL     1      31.568 -11.481 -21.530  0.00  0.00    -0.259 NA
ATOM      4  C   UNL     1      32.742 -13.456 -22.166  0.00  0.00    +0.185 C 
ATOM      5  C   UNL     1      31.804 -12.802 -21.398  0.00  0.00    +0.200 C 
ATOM      6  C   UNL     1      33.242 -11.493 -23.226  0.00  0.00    +0.150 C 
ATOM      7  C   UNL     1      32.304 -10.838 -22.458  0.00  0.00    +0.106 C 
ENDROOT
BRANCH   6   8
ATOM      8  C   UNL     1      34.048 -10.835 -24.228  0.00  0.00    +0.031 C 
ATOM      9  C   UNL     1      34.329 -11.479 -25.433  0.00  0.00    +0.003 C 
ATOM     10  C   UNL     1      34.547  -9.553 -23.991  0.00  0.00    +0.003 C 
ATOM     11  C   UNL     1      35.107 -10.843 -26.400  0.00  0.00    +0.000 C 
ATOM     12  C   UNL     1      35.325  -8.916 -24.958  0.00  0.00    +0.000 C 
ATOM     13  C   UNL     1      35.605  -9.562 -26.162  0.00  0.00    +0.000 C 
ENDBRANCH   6   8
BRANCH   7  14
ATOM     14  C   UNL     1      32.027  -9.425 -22.572  0.00  0.00    +0.020 C 
ATOM     15  C   UNL     1      31.230  -8.954 -23.616  0.00  0.00    +0.002 C 
ATOM     16  C   UNL     1      32.554  -8.532 -21.639  0.00  0.00    +0.002 C 
ATOM     17  C   UNL     1      30.961  -7.589 -23.727  0.00  0.00    +0.000 C 
ATOM     18  C   UNL     1      32.286  -7.168 -21.750  0.00  0.00    +0.000 C 
ATOM     19  C   UNL     1      31.489  -6.697 -22.794  0.00  0.00    +0.000 C 
ENDBRANCH   7  14
BRANCH   1  20
ATOM     20  C   UNL     1      32.704 -15.413 -20.640  0.00  0.00    +0.075 C 
ATOM     21  C   UNL     1      31.989 -16.750 -20.785  0.00  0.00    +0.021 C 
ATOM     22  C   UNL     1      34.043 -15.573 -19.933  0.00  0.00    +0.021 C 
ENDBRANCH   1  20
BRANCH   1  23
ATOM     23  C   UNL     1      33.343 -15.700 -23.040  0.00  0.00    +0.093 C 
BRANCH  23  24
ATOM     24  C   UNL     1      34.863 -15.826 -23.081  0.00  0.00    +0.024 C 
BRANCH  24  25
ATOM     25  C   UNL     1      35.351 -17.204 -22.636  0.00  0.00    +0.034 C 
BRANCH  25  26
ATOM     26  C   UNL     1      34.864 -18.301 -23.573  0.00  0.00    +0.143 C 
BRANCH  26  27
ATOM     27  O   UNL     1      34.580 -19.465 -22.810  0.00  0.00    -0.344 OA
BRANCH  27  28
ATOM     28  C   UNL     1      34.497 -19.172 -21.421  0.00  0.00    +0.228 C 
BRANCH  28  31
ATOM     29  O   UNL     1      32.458 -20.277 -20.759  0.00  0.00    -0.271 OA
ATOM     30  N   UNL     1      34.487 -21.136 -19.953  0.00  0.00    -0.187 N 
ATOM     31  C   UNL     1      33.681 -20.223 -20.704  0.00  0.00    +0.271 C 
ATOM     32  H   UNL     1      35.462 -21.001 -19.973  0.00  0.00    +0.176 HD
BRANCH  30  33
ATOM     33  S   UNL     1      33.894 -22.443 -19.026  0.00  0.00    +0.058 S 
ATOM     34  O   UNL     1      32.576 -22.131 -18.508  0.00  0.00    -0.154 OA
ATOM     35  O   UNL     1      34.137 -23.675 -19.751  0.00  0.00    -0.154 OA
ATOM     36  C   UNL     1      35.041 -22.385 -17.672  0.00  0.00    +0.200 C 
ENDBRANCH  30  33
ENDBRANCH  28  31
ENDBRANCH  27  28
ENDBRANCH  26  27
ENDBRANCH  25  26
ENDBRANCH  24  25
ENDBRANCH  23  24
ENDBRANCH   1  23
TORSDOF 11
ENDMDL
MODEL 3
REMARK VINA RESULT:      -9.3      2.046      4.092
REMARK  Name = 9913767
REMARK  11 active torsions:
REMARK  status: ('A' for Active; 'I' for Inactive)
REMARK    1  A    between atoms: N_1  and  C_20
REMARK    2  A    between atoms: N_1  and  C_23
REMARK    3  A    between atoms: C_6  and  C_8
REMARK    4  A    between atoms: C_7  and  C_14
REMARK    5  A    between atoms: C_23  and  C_24
REMARK    6  A    between atoms: C_24  and  C_25
REMARK    7  A    between atoms: C_25  and  C_26
REMARK    8  A    between atoms: C_26  and  O_27
REMARK    9  A    between atoms: O_27  and  C_28
REMARK   10  A    between atoms: C_28  and  C_31
REMARK   11  A    between atoms: N_30  and  S_33
REMARK                            x       y       z     vdW  Elec       q    Type
REMARK                         _______ _______ _______ _____ _____    ______ ____
ROOT
ATOM      1  N   UNL     1      32.770 -14.642 -21.884  0.00  0.00    -0.287 N 
ATOM      2  N   UNL     1      33.362 -12.629 -23.002  0.00  0.00    -0.388 NA
ATOM      3  N   UNL     1      31.493 -11.264 -21.419  0.00  0.00    -0.259 NA
ATOM      4  C   UNL     1      32.617 -13.261 -22.075  0.00  0.00    +0.185 C 
ATOM      5  C   UNL     1      31.699 -12.591 -21.297  0.00  0.00    +0.200 C 
ATOM      6  C   UNL     1      33.156 -11.302 -23.125  0.00  0.00    +0.150 C 
ATOM      7  C   UNL     1      32.238 -10.632 -22.347  0.00  0.00    +0.106 C 
ENDROOT
BRANCH   6   8
ATOM      8  C   UNL     1      33.972 -10.657 -24.127  0.00  0.00    +0.031 C 
ATOM      9  C   UNL     1      34.321 -11.341 -25.291  0.00  0.00    +0.003 C 
ATOM     10  C   UNL     1      34.411  -9.347 -23.931  0.00  0.00    +0.003 C 
ATOM     11  C   UNL     1      35.107 -10.716 -26.259  0.00  0.00    +0.000 C 
ATOM     12  C   UNL     1      35.198  -8.722 -24.898  0.00  0.00    +0.000 C 
ATOM     13  C   UNL     1      35.547  -9.407 -26.062  0.00  0.00    +0.000 C 
ENDBRANCH   6   8
BRANCH   7  14
ATOM     14  C   UNL     1      31.992  -9.212 -22.450  0.00  0.00    +0.020 C 
ATOM     15  C   UNL     1      32.556  -8.339 -21.519  0.00  0.00    +0.002 C 
ATOM     16  C   UNL     1      31.194  -8.714 -23.480  0.00  0.00    +0.002 C 
ATOM     17  C   UNL     1      32.319  -6.967 -21.618  0.00  0.00    +0.000 C 
ATOM     18  C   UNL     1      30.958  -7.344 -23.579  0.00  0.00    +0.000 C 
ATOM     19  C   UNL     1      31.521  -6.470 -22.648  0.00  0.00    +0.000 C 
ENDBRANCH   7  14
BRANCH   1  20
ATOM     20  C   UNL     1      32.544 -15.227 -20.562  0.00  0.00    +0.075 C 
ATOM     21  C   UNL     1      31.903 -16.599 -20.716  0.00  0.00    +0.021 C 
ATOM     22  C   UNL     1      33.869 -15.313 -19.817  0.00  0.00    +0.021 C 
ENDBRANCH   1  20
BRANCH   1  23
ATOM     23  C   UNL     1      33.162 -15.512 -22.967  0.00  0.00    +0.093 C 
BRANCH  23  24
ATOM     24  C   UNL     1      34.647 -15.354 -23.285  0.00  0.00    +0.024 C 
BRANCH  24  25
ATOM     25  C   UNL     1      34.956 -15.568 -24.767  0.00  0.00    +0.034 C 
BRANCH  25  26
ATOM     26  C   UNL     1      34.002 -16.571 -25.400  0.00  0.00    +0.143 C 
BRANCH  26  27
ATOM     27  O   UNL     1      34.723 -17.753 -25.719  0.00  0.00    -0.344 OA
BRANCH  27  28
ATOM     28  C   UNL     1      34.269 -18.864 -24.955  0.00  0.00    +0.228 C 
BRANCH  28  31
ATOM     29  O   UNL     1      36.164 -18.566 -23.494  0.00  0.00    -0.271 OA
ATOM     30  N   UNL     1      34.211 -19.498 -22.587  0.00  0.00    -0.187 N 
ATOM     31  C   UNL     1      35.006 -18.939 -23.638  0.00  0.00    +0.271 C 
ATOM     32  H   UNL     1      33.292 -19.771 -22.811  0.00  0.00    +0.176 HD
BRANCH  30  33
ATOM     33  S   UNL     1      34.728 -19.729 -20.975  0.00  0.00    +0.058 S 
ATOM     34  O   UNL     1      35.600 -20.884 -20.891  0.00  0.00    -0.154 OA
ATOM     35  O   UNL     1      35.133 -18.449 -20.429  0.00  0.00    -0.154 OA
ATOM     36  C   UNL     1      33.176 -20.161 -20.229  0.00  0.00    +0.200 C 
ENDBRANCH  30  33
ENDBRANCH  28  31
ENDBRANCH  27  28
ENDBRANCH  26  27
ENDBRANCH  25  26
ENDBRANCH  24  25
ENDBRANCH  23  24
ENDBRANCH   1  23
TORSDOF 11
ENDMDL
MODEL 4
REMARK VINA RESULT:      -8.5      4.902     13.183
REMARK  Name = 9913767
REMARK  11 active torsions:
REMARK  status: ('A' for Active; 'I' for Inactive)
REMARK    1  A    between atoms: N_1  and  C_20
REMARK    2  A    between atoms: N_1  and  C_23
REMARK    3  A    between atoms: C_6  and  C_8
REMARK    4  A    between atoms: C_7  and  C_14
REMARK    5  A    between atoms: C_23  and  C_24
REMARK    6  A    between atoms: C_24  and  C_25
REMARK    7  A    between atoms: C_25  and  C_26
REMARK    8  A    between atoms: C_26  and  O_27
REMARK    9  A    between atoms: O_27  and  C_28
REMARK   10  A    between atoms: C_28  and  C_31
REMARK   11  A    between atoms: N_30  and  S_33
REMARK                            x       y       z     vdW  Elec       q    Type
REMARK                         _______ _______ _______ _____ _____    ______ ____
ROOT
ATOM      1  N   UNL     1      35.137 -21.791 -18.844  0.00  0.00    -0.287 N 
ATOM      2  N   UNL     1      34.210 -22.700 -16.853  0.00  0.00    -0.388 NA
ATOM      3  N   UNL     1      36.813 -23.149 -15.912  0.00  0.00    -0.259 NA
ATOM      4  C   UNL     1      35.296 -22.373 -17.579  0.00  0.00    +0.185 C 
ATOM      5  C   UNL     1      36.575 -22.594 -17.118  0.00  0.00    +0.200 C 
ATOM      6  C   UNL     1      34.447 -23.255 -15.648  0.00  0.00    +0.150 C 
ATOM      7  C   UNL     1      35.726 -23.476 -15.186  0.00  0.00    +0.106 C 
ENDROOT
BRANCH   6   8
ATOM      8  C   UNL     1      33.260 -23.592 -14.896  0.00  0.00    +0.031 C 
ATOM      9  C   UNL     1      32.323 -22.605 -14.592  0.00  0.00    +0.003 C 
ATOM     10  C   UNL     1      33.051 -24.905 -14.474  0.00  0.00    +0.003 C 
ATOM     11  C   UNL     1      31.177 -22.930 -13.866  0.00  0.00    +0.000 C 
ATOM     12  C   UNL     1      31.905 -25.231 -13.749  0.00  0.00    +0.000 C 
ATOM     13  C   UNL     1      30.969 -24.244 -13.444  0.00  0.00    +0.000 C 
ENDBRANCH   6   8
BRANCH   7  14
ATOM     14  C   UNL     1      36.017 -24.068 -13.901  0.00  0.00    +0.020 C 
ATOM     15  C   UNL     1      35.664 -23.397 -12.729  0.00  0.00    +0.002 C 
ATOM     16  C   UNL     1      36.649 -25.309 -13.830  0.00  0.00    +0.002 C 
ATOM     17  C   UNL     1      35.945 -23.967 -11.487  0.00  0.00    +0.000 C 
ATOM     18  C   UNL     1      36.930 -25.879 -12.588  0.00  0.00    +0.000 C 
ATOM     19  C   UNL     1      36.576 -25.209 -11.417  0.00  0.00    +0.000 C 
ENDBRANCH   7  14
BRANCH   1  20
ATOM     20  C   UNL     1      36.141 -20.854 -19.351  0.00  0.00    +0.075 C 
ATOM     21  C   UNL     1      37.178 -20.586 -18.268  0.00  0.00    +0.021 C 
ATOM     22  C   UNL     1      36.783 -21.434 -20.604  0.00  0.00    +0.021 C 
ENDBRANCH   1  20
BRANCH   1  23
ATOM     23  C   UNL     1      33.987 -22.082 -19.668  0.00  0.00    +0.093 C 
BRANCH  23  24
ATOM     24  C   UNL     1      33.005 -20.914 -19.669  0.00  0.00    +0.024 C 
BRANCH  24  25
ATOM     25  C   UNL     1      32.959 -20.186 -21.013  0.00  0.00    +0.034 C 
BRANCH  25  26
ATOM     26  C   UNL     1      33.778 -18.903 -20.983  0.00  0.00    +0.143 C 
BRANCH  26  27
ATOM     27  O   UNL     1      34.594 -18.852 -22.146  0.00  0.00    -0.344 OA
BRANCH  27  28
ATOM     28  C   UNL     1      35.570 -17.823 -22.055  0.00  0.00    +0.228 C 
BRANCH  28  31
ATOM     29  O   UNL     1      34.896 -15.892 -20.775  0.00  0.00    -0.271 OA
ATOM     30  N   UNL     1      34.293 -15.976 -23.041  0.00  0.00    -0.187 N 
ATOM     31  C   UNL     1      34.907 -16.479 -21.851  0.00  0.00    +0.271 C 
ATOM     32  H   UNL     1      34.356 -16.530 -23.852  0.00  0.00    +0.176 HD
BRANCH  30  33
ATOM     33  S   UNL     1      33.458 -14.491 -23.168  0.00  0.00    +0.058 S 
ATOM     34  O   UNL     1      32.243 -14.531 -22.379  0.00  0.00    -0.154 OA
ATOM     35  O   UNL     1      34.410 -13.408 -23.016  0.00  0.00    -0.154 OA
ATOM     36  C   UNL     1      32.998 -14.559 -24.882  0.00  0.00    +0.200 C 
ENDBRANCH  30  33
ENDBRANCH  28  31
ENDBRANCH  27  28
ENDBRANCH  26  27
ENDBRANCH  25  26
ENDBRANCH  24  25
ENDBRANCH  23  24
ENDBRANCH   1  23
TORSDOF 11
ENDMDL
MODEL 5
REMARK VINA RESULT:      -8.0      2.858      6.060
REMARK  Name = 9913767
REMARK  11 active torsions:
REMARK  status: ('A' for Active; 'I' for Inactive)
REMARK    1  A    between atoms: N_1  and  C_20
REMARK    2  A    between atoms: N_1  and  C_23
REMARK    3  A    between atoms: C_6  and  C_8
REMARK    4  A    between atoms: C_7  and  C_14
REMARK    5  A    between atoms: C_23  and  C_24
REMARK    6  A    between atoms: C_24  and  C_25
REMARK    7  A    between atoms: C_25  and  C_26
REMARK    8  A    between atoms: C_26  and  O_27
REMARK    9  A    between atoms: O_27  and  C_28
REMARK   10  A    between atoms: C_28  and  C_31
REMARK   11  A    between atoms: N_30  and  S_33
REMARK                            x       y       z     vdW  Elec       q    Type
REMARK                         _______ _______ _______ _____ _____    ______ ____
ROOT
ATOM      1  N   UNL     1      31.848  -9.703 -22.355  0.00  0.00    -0.287 N 
ATOM      2  N   UNL     1      32.569  -7.897 -23.723  0.00  0.00    -0.388 NA
ATOM      3  N   UNL     1      30.551  -6.310 -22.593  0.00  0.00    -0.259 NA
ATOM      4  C   UNL     1      31.726  -8.375 -22.787  0.00  0.00    +0.185 C 
ATOM      5  C   UNL     1      30.734  -7.596 -22.232  0.00  0.00    +0.200 C 
ATOM      6  C   UNL     1      32.386  -6.612 -24.084  0.00  0.00    +0.150 C 
ATOM      7  C   UNL     1      31.394  -5.832 -23.530  0.00  0.00    +0.106 C 
ENDROOT
BRANCH   6   8
ATOM      8  C   UNL     1      33.307  -6.131 -25.088  0.00  0.00    +0.031 C 
ATOM      9  C   UNL     1      34.630  -6.573 -25.090  0.00  0.00    +0.003 C 
ATOM     10  C   UNL     1      32.874  -5.226 -26.057  0.00  0.00    +0.003 C 
ATOM     11  C   UNL     1      35.519  -6.109 -26.060  0.00  0.00    +0.000 C 
ATOM     12  C   UNL     1      33.762  -4.763 -27.027  0.00  0.00    +0.000 C 
ATOM     13  C   UNL     1      35.085  -5.204 -27.028  0.00  0.00    +0.000 C 
ENDBRANCH   6   8
BRANCH   7  14
ATOM     14  C   UNL     1      31.171  -4.452 -23.892  0.00  0.00    +0.020 C 
ATOM     15  C   UNL     1      30.493  -4.143 -25.073  0.00  0.00    +0.002 C 
ATOM     16  C   UNL     1      31.630  -3.428 -23.064  0.00  0.00    +0.002 C 
ATOM     17  C   UNL     1      30.276  -2.810 -25.424  0.00  0.00    +0.000 C 
ATOM     18  C   UNL     1      31.413  -2.096 -23.415  0.00  0.00    +0.000 C 
ATOM     19  C   UNL     1      30.735  -1.787 -24.595  0.00  0.00    +0.000 C 
ENDBRANCH   7  14
BRANCH   1  20
ATOM     20  C   UNL     1      31.479 -10.064 -20.985  0.00  0.00    +0.075 C 
ATOM     21  C   UNL     1      31.604 -11.571 -20.805  0.00  0.00    +0.021 C 
ATOM     22  C   UNL     1      32.374  -9.312 -20.009  0.00  0.00    +0.021 C 
ENDBRANCH   1  20
BRANCH   1  23
ATOM     23  C   UNL     1      32.347 -10.736 -23.231  0.00  0.00    +0.093 C 
BRANCH  23  24
ATOM     24  C   UNL     1      33.797 -10.467 -23.625  0.00  0.00    +0.024 C 
BRANCH  24  25
ATOM     25  C   UNL     1      34.174 -11.114 -24.958  0.00  0.00    +0.034 C 
BRANCH  25  26
ATOM     26  C   UNL     1      33.730 -12.569 -25.020  0.00  0.00    +0.143 C 
BRANCH  26  27
ATOM     27  O   UNL     1      34.193 -13.240 -23.855  0.00  0.00    -0.344 OA
BRANCH  27  28
ATOM     28  C   UNL     1      33.762 -14.595 -23.828  0.00  0.00    +0.228 C 
BRANCH  28  31
ATOM     29  O   UNL     1      34.258 -14.642 -21.468  0.00  0.00    -0.271 OA
ATOM     30  N   UNL     1      34.418 -16.653 -22.666  0.00  0.00    -0.187 N 
ATOM     31  C   UNL     1      34.161 -15.252 -22.526  0.00  0.00    +0.271 C 
ATOM     32  H   UNL     1      34.314 -17.044 -23.563  0.00  0.00    +0.176 HD
BRANCH  30  33
ATOM     33  S   UNL     1      34.888 -17.701 -21.402  0.00  0.00    +0.058 S 
ATOM     34  O   UNL     1      35.426 -16.936 -20.293  0.00  0.00    -0.154 OA
ATOM     35  O   UNL     1      33.838 -18.678 -21.193  0.00  0.00    -0.154 OA
ATOM     36  C   UNL     1      36.240 -18.532 -22.199  0.00  0.00    +0.200 C 
ENDBRANCH  30  33
ENDBRANCH  28  31
ENDBRANCH  27  28
ENDBRANCH  26  27
ENDBRANCH  25  26
ENDBRANCH  24  25
ENDBRANCH  23  24
ENDBRANCH   1  23
TORSDOF 11
ENDMDL
MODEL 6
REMARK VINA RESULT:      -7.9      6.968     11.069
REMARK  Name = 9913767
REMARK  11 active torsions:
REMARK  status: ('A' for Active; 'I' for Inactive)
REMARK    1  A    between atoms: N_1  and  C_20
REMARK    2  A    between atoms: N_1  and  C_23
REMARK    3  A    between atoms: C_6  and  C_8
REMARK    4  A    between atoms: C_7  and  C_14
REMARK    5  A    between atoms: C_23  and  C_24
REMARK    6  A    between atoms: C_24  and  C_25
REMARK    7  A    between atoms: C_25  and  C_26
REMARK    8  A    between atoms: C_26  and  O_27
REMARK    9  A    between atoms: O_27  and  C_28
REMARK   10  A    between atoms: C_28  and  C_31
REMARK   11  A    between atoms: N_30  and  S_33
REMARK                            x       y       z     vdW  Elec       q    Type
REMARK                         _______ _______ _______ _____ _____    ______ ____
ROOT
ATOM      1  N   UNL     1      33.645  -9.807 -23.872  0.00  0.00    -0.287 N 
ATOM      2  N   UNL     1      33.611 -12.021 -23.008  0.00  0.00    -0.388 NA
ATOM      3  N   UNL     1      33.896 -12.988 -25.625  0.00  0.00    -0.259 NA
ATOM      4  C   UNL     1      33.697 -11.194 -24.067  0.00  0.00    +0.185 C 
ATOM      5  C   UNL     1      33.837 -11.668 -25.353  0.00  0.00    +0.200 C 
ATOM      6  C   UNL     1      33.669 -13.340 -23.279  0.00  0.00    +0.150 C 
ATOM      7  C   UNL     1      33.809 -13.815 -24.564  0.00  0.00    +0.106 C 
ENDROOT
BRANCH   6   8
ATOM      8  C   UNL     1      33.574 -14.198 -22.120  0.00  0.00    +0.031 C 
ATOM      9  C   UNL     1      32.329 -14.657 -21.690  0.00  0.00    +0.003 C 
ATOM     10  C   UNL     1      34.729 -14.569 -21.431  0.00  0.00    +0.003 C 
ATOM     11  C   UNL     1      32.238 -15.485 -20.572  0.00  0.00    +0.000 C 
ATOM     12  C   UNL     1      34.639 -15.398 -20.312  0.00  0.00    +0.000 C 
ATOM     13  C   UNL     1      33.393 -15.855 -19.883  0.00  0.00    +0.000 C 
ENDBRANCH   6   8
BRANCH   7  14
ATOM     14  C   UNL     1      33.876 -15.221 -24.891  0.00  0.00    +0.020 C 
ATOM     15  C   UNL     1      33.014 -15.755 -25.849  0.00  0.00    +0.002 C 
ATOM     16  C   UNL     1      34.803 -16.044 -24.251  0.00  0.00    +0.002 C 
ATOM     17  C   UNL     1      33.077 -17.113 -26.165  0.00  0.00    +0.000 C 
ATOM     18  C   UNL     1      34.867 -17.400 -24.567  0.00  0.00    +0.000 C 
ATOM     19  C   UNL     1      34.004 -17.935 -25.525  0.00  0.00    +0.000 C 
ENDBRANCH   7  14
BRANCH   1  20
ATOM     20  C   UNL     1      34.364  -8.912 -24.781  0.00  0.00    +0.075 C 
ATOM     21  C   UNL     1      34.778  -7.653 -24.032  0.00  0.00    +0.021 C 
ATOM     22  C   UNL     1      35.572  -9.642 -25.352  0.00  0.00    +0.021 C 
ENDBRANCH   1  20
BRANCH   1  23
ATOM     23  C   UNL     1      32.902  -9.229 -22.777  0.00  0.00    +0.093 C 
BRANCH  23  24
ATOM     24  C   UNL     1      31.494  -8.837 -23.218  0.00  0.00    +0.024 C 
BRANCH  24  25
ATOM     25  C   UNL     1      31.105  -7.431 -22.762  0.00  0.00    +0.034 C 
BRANCH  25  26
ATOM     26  C   UNL     1      32.109  -6.868 -21.764  0.00  0.00    +0.143 C 
BRANCH  26  27
ATOM     27  O   UNL     1      31.722  -5.544 -21.422  0.00  0.00    -0.344 OA
BRANCH  27  28
ATOM     28  C   UNL     1      30.425  -5.235 -21.914  0.00  0.00    +0.228 C 
BRANCH  28  31
ATOM     29  O   UNL     1      30.020  -2.871 -22.173  0.00  0.00    -0.271 OA
ATOM     30  N   UNL     1      30.982  -4.026 -23.975  0.00  0.00    -0.187 N 
ATOM     31  C   UNL     1      30.438  -3.917 -22.655  0.00  0.00    +0.271 C 
ATOM     32  H   UNL     1      31.286  -4.916 -24.267  0.00  0.00    +0.176 HD
BRANCH  30  33
ATOM     33  S   UNL     1      31.146  -2.738 -25.084  0.00  0.00    +0.058 S 
ATOM     34  O   UNL     1      29.840  -2.271 -25.506  0.00  0.00    -0.154 OA
ATOM     35  O   UNL     1      32.139  -1.812 -24.577  0.00  0.00    -0.154 OA
ATOM     36  C   UNL     1      31.878  -3.614 -26.444  0.00  0.00    +0.200 C 
ENDBRANCH  30  33
ENDBRANCH  28  31
ENDBRANCH  27  28
ENDBRANCH  26  27
ENDBRANCH  25  26
ENDBRANCH  24  25
ENDBRANCH  23  24
ENDBRANCH   1  23
TORSDOF 11
ENDMDL
MODEL 7
REMARK VINA RESULT:      -7.7      9.490     12.980
REMARK  Name = 9913767
REMARK  11 active torsions:
REMARK  status: ('A' for Active; 'I' for Inactive)
REMARK    1  A    between atoms: N_1  and  C_20
REMARK    2  A    between atoms: N_1  and  C_23
REMARK    3  A    between atoms: C_6  and  C_8
REMARK    4  A    between atoms: C_7  and  C_14
REMARK    5  A    between atoms: C_23  and  C_24
REMARK    6  A    between atoms: C_24  and  C_25
REMARK    7  A    between atoms: C_25  and  C_26
REMARK    8  A    between atoms: C_26  and  O_27
REMARK    9  A    between atoms: O_27  and  C_28
REMARK   10  A    between atoms: C_28  and  C_31
REMARK   11  A    between atoms: N_30  and  S_33
REMARK                            x       y       z     vdW  Elec       q    Type
REMARK                         _______ _______ _______ _____ _____    ______ ____
ROOT
ATOM      1  N   UNL     1      31.518 -24.213 -14.651  0.00  0.00    -0.287 N 
ATOM      2  N   UNL     1      33.520 -23.381 -15.626  0.00  0.00    -0.388 NA
ATOM      3  N   UNL     1      32.054 -22.694 -17.916  0.00  0.00    -0.259 NA
ATOM      4  C   UNL     1      32.196 -23.612 -15.721  0.00  0.00    +0.185 C 
ATOM      5  C   UNL     1      31.475 -23.276 -16.845  0.00  0.00    +0.200 C 
ATOM      6  C   UNL     1      34.098 -22.801 -16.696  0.00  0.00    +0.150 C 
ATOM      7  C   UNL     1      33.378 -22.464 -17.821  0.00  0.00    +0.106 C 
ENDROOT
BRANCH   6   8
ATOM      8  C   UNL     1      35.517 -22.566 -16.561  0.00  0.00    +0.031 C 
ATOM      9  C   UNL     1      36.326 -23.517 -15.938  0.00  0.00    +0.003 C 
ATOM     10  C   UNL     1      36.080 -21.389 -17.054  0.00  0.00    +0.003 C 
ATOM     11  C   UNL     1      37.696 -23.290 -15.808  0.00  0.00    +0.000 C 
ATOM     12  C   UNL     1      37.450 -21.162 -16.924  0.00  0.00    +0.000 C 
ATOM     13  C   UNL     1      38.258 -22.113 -16.300  0.00  0.00    +0.000 C 
ENDBRANCH   6   8
BRANCH   7  14
ATOM     14  C   UNL     1      33.964 -21.840 -18.985  0.00  0.00    +0.020 C 
ATOM     15  C   UNL     1      35.160 -22.331 -19.510  0.00  0.00    +0.002 C 
ATOM     16  C   UNL     1      33.336 -20.749 -19.584  0.00  0.00    +0.002 C 
ATOM     17  C   UNL     1      35.727 -21.730 -20.634  0.00  0.00    +0.000 C 
ATOM     18  C   UNL     1      33.903 -20.147 -20.707  0.00  0.00    +0.000 C 
ATOM     19  C   UNL     1      35.099 -20.639 -21.233  0.00  0.00    +0.000 C 
ENDBRANCH   7  14
BRANCH   1  20
ATOM     20  C   UNL     1      30.110 -23.893 -14.404  0.00  0.00    +0.075 C 
ATOM     21  C   UNL     1      29.806 -22.499 -14.936  0.00  0.00    +0.021 C 
ATOM     22  C   UNL     1      29.232 -24.946 -15.067  0.00  0.00    +0.021 C 
ENDBRANCH   1  20
BRANCH   1  23
ATOM     23  C   UNL     1      32.180 -25.141 -13.766  0.00  0.00    +0.093 C 
BRANCH  23  24
ATOM     24  C   UNL     1      33.060 -24.404 -12.760  0.00  0.00    +0.024 C 
BRANCH  24  25
ATOM     25  C   UNL     1      34.543 -24.735 -12.923  0.00  0.00    +0.034 C 
BRANCH  25  26
ATOM     26  C   UNL     1      35.319 -24.480 -11.638  0.00  0.00    +0.143 C 
BRANCH  26  27
ATOM     27  O   UNL     1      36.350 -25.451 -11.523  0.00  0.00    -0.344 OA
BRANCH  27  28
ATOM     28  C   UNL     1      36.810 -25.878 -12.800  0.00  0.00    +0.228 C 
BRANCH  28  31
ATOM     29  O   UNL     1      38.700 -24.420 -12.459  0.00  0.00    -0.271 OA
ATOM     30  N   UNL     1      38.892 -26.110 -14.074  0.00  0.00    -0.187 N 
ATOM     31  C   UNL     1      38.210 -25.370 -13.057  0.00  0.00    +0.271 C 
ATOM     32  H   UNL     1      38.404 -26.854 -14.496  0.00  0.00    +0.176 HD
BRANCH  30  33
ATOM     33  S   UNL     1      40.484 -25.808 -14.615  0.00  0.00    +0.058 S 
ATOM     34  O   UNL     1      40.579 -26.040 -16.043  0.00  0.00    -0.154 OA
ATOM     35  O   UNL     1      40.944 -24.564 -14.031  0.00  0.00    -0.154 OA
ATOM     36  C   UNL     1      41.331 -27.132 -13.789  0.00  0.00    +0.200 C 
ENDBRANCH  30  33
ENDBRANCH  28  31
ENDBRANCH  27  28
ENDBRANCH  26  27
ENDBRANCH  25  26
ENDBRANCH  24  25
ENDBRANCH  23  24
ENDBRANCH   1  23
TORSDOF 11
ENDMDL
MODEL 8
REMARK VINA RESULT:      -7.6      5.049     13.851
REMARK  Name = 9913767
REMARK  11 active torsions:
REMARK  status: ('A' for Active; 'I' for Inactive)
REMARK    1  A    between atoms: N_1  and  C_20
REMARK    2  A    between atoms: N_1  and  C_23
REMARK    3  A    between atoms: C_6  and  C_8
REMARK    4  A    between atoms: C_7  and  C_14
REMARK    5  A    between atoms: C_23  and  C_24
REMARK    6  A    between atoms: C_24  and  C_25
REMARK    7  A    between atoms: C_25  and  C_26
REMARK    8  A    between atoms: C_26  and  O_27
REMARK    9  A    between atoms: O_27  and  C_28
REMARK   10  A    between atoms: C_28  and  C_31
REMARK   11  A    between atoms: N_30  and  S_33
REMARK                            x       y       z     vdW  Elec       q    Type
REMARK                         _______ _______ _______ _____ _____    ______ ____
ROOT
ATOM      1  N   UNL     1      34.464 -22.625 -18.188  0.00  0.00    -0.287 N 
ATOM      2  N   UNL     1      35.996 -23.568 -16.633  0.00  0.00    -0.388 NA
ATOM      3  N   UNL     1      34.292 -22.767 -14.554  0.00  0.00    -0.259 NA
ATOM      4  C   UNL     1      34.840 -22.917 -16.869  0.00  0.00    +0.185 C 
ATOM      5  C   UNL     1      34.003 -22.524 -15.849  0.00  0.00    +0.200 C 
ATOM      6  C   UNL     1      36.286 -23.811 -15.340  0.00  0.00    +0.150 C 
ATOM      7  C   UNL     1      35.449 -23.418 -14.318  0.00  0.00    +0.106 C 
ENDROOT
BRANCH   6   8
ATOM      8  C   UNL     1      37.531 -24.510 -15.123  0.00  0.00    +0.031 C 
ATOM      9  C   UNL     1      37.522 -25.824 -14.652  0.00  0.00    +0.003 C 
ATOM     10  C   UNL     1      38.744 -23.874 -15.386  0.00  0.00    +0.003 C 
ATOM     11  C   UNL     1      38.724 -26.498 -14.443  0.00  0.00    +0.000 C 
ATOM     12  C   UNL     1      39.947 -24.548 -15.177  0.00  0.00    +0.000 C 
ATOM     13  C   UNL     1      39.936 -25.861 -14.706  0.00  0.00    +0.000 C 
ENDBRANCH   6   8
BRANCH   7  14
ATOM     14  C   UNL     1      35.727 -23.662 -12.922  0.00  0.00    +0.020 C 
ATOM     15  C   UNL     1      36.790 -23.008 -12.299  0.00  0.00    +0.002 C 
ATOM     16  C   UNL     1      34.934 -24.551 -12.197  0.00  0.00    +0.002 C 
ATOM     17  C   UNL     1      37.060 -23.244 -10.950  0.00  0.00    +0.000 C 
ATOM     18  C   UNL     1      35.203 -24.787 -10.849  0.00  0.00    +0.000 C 
ATOM     19  C   UNL     1      36.266 -24.132 -10.225  0.00  0.00    +0.000 C 
ENDBRANCH   7  14
BRANCH   1  20
ATOM     20  C   UNL     1      33.046 -22.561 -18.548  0.00  0.00    +0.075 C 
ATOM     21  C   UNL     1      32.196 -22.823 -17.312  0.00  0.00    +0.021 C 
ATOM     22  C   UNL     1      32.743 -21.197 -19.153  0.00  0.00    +0.021 C 
ENDBRANCH   1  20
BRANCH   1  23
ATOM     23  C   UNL     1      35.449 -22.396 -19.218  0.00  0.00    +0.093 C 
BRANCH  23  24
ATOM     24  C   UNL     1      36.288 -21.159 -18.907  0.00  0.00    +0.024 C 
BRANCH  24  25
ATOM     25  C   UNL     1      36.470 -20.251 -20.123  0.00  0.00    +0.034 C 
BRANCH  25  26
ATOM     26  C   UNL     1      35.322 -20.401 -21.112  0.00  0.00    +0.143 C 
BRANCH  26  27
ATOM     27  O   UNL     1      34.745 -19.123 -21.344  0.00  0.00    -0.344 OA
BRANCH  27  28
ATOM     28  C   UNL     1      35.703 -18.083 -21.191  0.00  0.00    +0.228 C 
BRANCH  28  31
ATOM     29  O   UNL     1      34.962 -16.066 -20.095  0.00  0.00    -0.271 OA
ATOM     30  N   UNL     1      34.438 -16.340 -22.365  0.00  0.00    -0.187 N 
ATOM     31  C   UNL     1      35.018 -16.738 -21.118  0.00  0.00    +0.271 C 
ATOM     32  H   UNL     1      34.536 -16.957 -23.126  0.00  0.00    +0.176 HD
BRANCH  30  33
ATOM     33  S   UNL     1      33.591 -14.882 -22.640  0.00  0.00    +0.058 S 
ATOM     34  O   UNL     1      32.290 -14.933 -22.003  0.00  0.00    -0.154 OA
ATOM     35  O   UNL     1      34.492 -13.771 -22.406  0.00  0.00    -0.154 OA
ATOM     36  C   UNL     1      33.346 -15.012 -24.394  0.00  0.00    +0.200 C 
ENDBRANCH  30  33
ENDBRANCH  28  31
ENDBRANCH  27  28
ENDBRANCH  26  27
ENDBRANCH  25  26
ENDBRANCH  24  25
ENDBRANCH  23  24
ENDBRANCH   1  23
TORSDOF 11
ENDMDL
MODEL 9
REMARK VINA RESULT:      -7.5      5.083     13.850
REMARK  Name = 9913767
REMARK  11 active torsions:
REMARK  status: ('A' for Active; 'I' for Inactive)
REMARK    1  A    between atoms: N_1  and  C_20
REMARK    2  A    between atoms: N_1  and  C_23
REMARK    3  A    between atoms: C_6  and  C_8
REMARK    4  A    between atoms: C_7  and  C_14
REMARK    5  A    between atoms: C_23  and  C_24
REMARK    6  A    between atoms: C_24  and  C_25
REMARK    7  A    between atoms: C_25  and  C_26
REMARK    8  A    between atoms: C_26  and  O_27
REMARK    9  A    between atoms: O_27  and  C_28
REMARK   10  A    between atoms: C_28  and  C_31
REMARK   11  A    between atoms: N_30  and  S_33
REMARK                            x       y       z     vdW  Elec       q    Type
REMARK                         _______ _______ _______ _____ _____    ______ ____
ROOT
ATOM      1  N   UNL     1      31.045 -23.513 -15.543  0.00  0.00    -0.287 N 
ATOM      2  N   UNL     1      33.412 -23.297 -15.582  0.00  0.00    -0.388 NA
ATOM      3  N   UNL     1      33.498 -24.391 -13.001  0.00  0.00    -0.259 NA
ATOM      4  C   UNL     1      32.295 -23.670 -14.928  0.00  0.00    +0.185 C 
ATOM      5  C   UNL     1      32.336 -24.207 -13.660  0.00  0.00    +0.200 C 
ATOM      6  C   UNL     1      34.573 -23.480 -14.923  0.00  0.00    +0.150 C 
ATOM      7  C   UNL     1      34.616 -24.017 -13.655  0.00  0.00    +0.106 C 
ENDROOT
BRANCH   6   8
ATOM      8  C   UNL     1      35.751 -23.071 -15.653  0.00  0.00    +0.031 C 
ATOM      9  C   UNL     1      37.008 -23.542 -15.273  0.00  0.00    +0.003 C 
ATOM     10  C   UNL     1      35.632 -22.205 -16.740  0.00  0.00    +0.003 C 
ATOM     11  C   UNL     1      38.144 -23.148 -15.978  0.00  0.00    +0.000 C 
ATOM     12  C   UNL     1      36.768 -21.810 -17.447  0.00  0.00    +0.000 C 
ATOM     13  C   UNL     1      38.024 -22.281 -17.065  0.00  0.00    +0.000 C 
ENDBRANCH   6   8
BRANCH   7  14
ATOM     14  C   UNL     1      35.841 -24.229 -12.921  0.00  0.00    +0.020 C 
ATOM     15  C   UNL     1      36.469 -25.475 -12.956  0.00  0.00    +0.002 C 
ATOM     16  C   UNL     1      36.399 -23.188 -12.177  0.00  0.00    +0.002 C 
ATOM     17  C   UNL     1      37.653 -25.680 -12.247  0.00  0.00    +0.000 C 
ATOM     18  C   UNL     1      37.582 -23.393 -11.469  0.00  0.00    +0.000 C 
ATOM     19  C   UNL     1      38.210 -24.640 -11.504  0.00  0.00    +0.000 C 
ENDBRANCH   7  14
BRANCH   1  20
ATOM     20  C   UNL     1      29.955 -24.440 -15.234  0.00  0.00    +0.075 C 
ATOM     21  C   UNL     1      28.623 -23.801 -15.602  0.00  0.00    +0.021 C 
ATOM     22  C   UNL     1      30.175 -25.743 -15.991  0.00  0.00    +0.021 C 
ENDBRANCH   1  20
BRANCH   1  23
ATOM     23  C   UNL     1      30.802 -22.455 -16.496  0.00  0.00    +0.093 C 
BRANCH  23  24
ATOM     24  C   UNL     1      31.528 -22.727 -17.810  0.00  0.00    +0.024 C 
BRANCH  24  25
ATOM     25  C   UNL     1      32.429 -21.567 -18.235  0.00  0.00    +0.034 C 
BRANCH  25  26
ATOM     26  C   UNL     1      33.235 -21.909 -19.481  0.00  0.00    +0.143 C 
BRANCH  26  27
ATOM     27  O   UNL     1      34.168 -20.866 -19.726  0.00  0.00    -0.344 OA
BRANCH  27  28
ATOM     28  C   UNL     1      33.782 -20.072 -20.840  0.00  0.00    +0.228 C 
BRANCH  28  31
ATOM     29  O   UNL     1      35.804 -18.775 -20.622  0.00  0.00    -0.271 OA
ATOM     30  N   UNL     1      33.859 -17.669 -21.327  0.00  0.00    -0.187 N 
ATOM     31  C   UNL     1      34.613 -18.811 -20.906  0.00  0.00    +0.271 C 
ATOM     32  H   UNL     1      32.905 -17.806 -21.527  0.00  0.00    +0.176 HD
BRANCH  30  33
ATOM     33  S   UNL     1      34.481 -16.088 -21.510  0.00  0.00    +0.058 S 
ATOM     34  O   UNL     1      34.992 -15.603 -20.243  0.00  0.00    -0.154 OA
ATOM     35  O   UNL     1      35.296 -16.046 -22.708  0.00  0.00    -0.154 OA
ATOM     36  C   UNL     1      32.972 -15.219 -21.859  0.00  0.00    +0.200 C 
ENDBRANCH  30  33
ENDBRANCH  28  31
ENDBRANCH  27  28
ENDBRANCH  26  27
ENDBRANCH  25  26
ENDBRANCH  24  25
ENDBRANCH  23  24
ENDBRANCH   1  23
TORSDOF 11
ENDMDL
