MODEL 1
REMARK VINA RESULT:     -10.7      0.000      0.000
REMARK  Name = 216235
REMARK  6 active torsions:
REMARK  status: ('A' for Active; 'I' for Inactive)
REMARK    1  A    between atoms: C_2  and  S_6
REMARK    2  A    between atoms: C_3  and  C_19
REMARK    3  A    between atoms: S_6  and  N_9
REMARK    4  A    between atoms: N_9  and  C_14
REMARK    5  A    between atoms: C_19  and  C_20
REMARK    6  A    between atoms: C_20  and  C_23
REMARK                            x       y       z     vdW  Elec       q    Type
REMARK                         _______ _______ _______ _____ _____    ______ ____
ROOT
ATOM      1  S   UNL     1      34.376 -16.439 -24.864  0.00  0.00    -0.082 S 
ATOM      2  C   UNL     1      34.589 -17.957 -22.802  0.00  0.00    +0.134 C 
ATOM      3  C   UNL     1      34.367 -16.684 -23.190  0.00  0.00    +0.083 C 
ATOM      4  C   UNL     1      34.782 -18.799 -23.935  0.00  0.00    +0.028 C 
ATOM      5  C   UNL     1      34.692 -18.102 -25.119  0.00  0.00    +0.037 C 
ENDROOT
BRANCH   2   6
ATOM      6  S   UNL     1      34.641 -18.527 -21.184  0.00  0.00    +0.076 S 
ATOM      7  O   UNL     1      33.258 -18.422 -20.737  0.00  0.00    -0.150 OA
ATOM      8  O   UNL     1      35.696 -17.750 -20.544  0.00  0.00    -0.150 OA
BRANCH   6   9
ATOM      9  N   UNL     1      35.123 -20.192 -21.196  0.00  0.00    -0.182 N 
ATOM     10  H   UNL     1      35.801 -20.551 -21.813  0.00  0.00    +0.177 HD
BRANCH   9  14
ATOM     11 CL   UNL     1      36.625 -21.648 -18.644  0.00  0.00    -0.076 Cl
ATOM     12  O   UNL     1      33.100 -21.269 -20.235  0.00  0.00    -0.336 OA
ATOM     13  N   UNL     1      32.774 -22.080 -19.156  0.00  0.00    -0.079 NA
ATOM     14  C   UNL     1      34.419 -21.028 -20.193  0.00  0.00    +0.255 A 
ATOM     15  C   UNL     1      35.008 -21.636 -19.139  0.00  0.00    +0.127 A 
ATOM     16  C   UNL     1      33.928 -22.287 -18.516  0.00  0.00    +0.113 A 
ATOM     17  C   UNL     1      33.942 -23.122 -17.303  0.00  0.00    +0.057 C 
ENDBRANCH   9  14
ENDBRANCH   6   9
ENDBRANCH   2   6
BRANCH   3  19
ATOM     18  O   UNL     1      35.031 -14.767 -21.963  0.00  0.00    -0.290 OA
ATOM     19  C   UNL     1      34.119 -15.507 -22.339  0.00  0.00    +0.185 C 
BRANCH  19  20
ATOM     20  C   UNL     1      32.678 -15.206 -21.915  0.00  0.00    +0.096 C 
BRANCH  20  23
ATOM     21  O   UNL     1      31.630 -11.301 -19.099  0.00  0.00    -0.435 OA
ATOM     22  O   UNL     1      31.601  -9.793 -20.978  0.00  0.00    -0.435 OA
ATOM     23  C   UNL     1      32.396 -13.751 -21.720  0.00  0.00    -0.015 C 
ATOM     24  C   UNL     1      32.379 -12.872 -22.817  0.00  0.00    -0.022 C 
ATOM     25  C   UNL     1      32.149 -13.281 -20.427  0.00  0.00    +0.036 C 
ATOM     26  C   UNL     1      31.891 -11.935 -20.274  0.00  0.00    +0.176 C 
ATOM     27  C   UNL     1      31.875 -11.074 -21.347  0.00  0.00    +0.176 C 
ATOM     28  C   UNL     1      32.116 -11.512 -22.634  0.00  0.00    +0.036 C 
ATOM     29  C   UNL     1      32.645 -13.374 -24.199  0.00  0.00    +0.031 C 
ATOM     30  C   UNL     1      31.447  -9.944 -19.552  0.00  0.00    +0.429 C 
ENDBRANCH  20  23
ENDBRANCH  19  20
ENDBRANCH   3  19
TORSDOF 6
ENDMDL
MODEL 2
REMARK VINA RESULT:     -10.6      3.828      8.591
REMARK  Name = 216235
REMARK  6 active torsions:
REMARK  status: ('A' for Active; 'I' for Inactive)
REMARK    1  A    between atoms: C_2  and  S_6
REMARK    2  A    between atoms: C_3  and  C_19
REMARK    3  A    between atoms: S_6  and  N_9
REMARK    4  A    between atoms: N_9  and  C_14
REMARK    5  A    between atoms: C_19  and  C_20
REMARK    6  A    between atoms: C_20  and  C_23
REMARK                            x       y       z     vdW  Elec       q    Type
REMARK                         _______ _______ _______ _____ _____    ______ ____
ROOT
ATOM      1  S   UNL     1      34.524 -16.411 -24.972  0.00  0.00    -0.082 S 
ATOM      2  C   UNL     1      33.332 -14.976 -23.205  0.00  0.00    +0.134 C 
ATOM      3  C   UNL     1      34.103 -16.072 -23.370  0.00  0.00    +0.083 C 
ATOM      4  C   UNL     1      33.059 -14.363 -24.462  0.00  0.00    +0.028 C 
ATOM      5  C   UNL     1      33.647 -15.041 -25.507  0.00  0.00    +0.037 C 
ENDROOT
BRANCH   2   6
ATOM      6  S   UNL     1      32.741 -14.370 -21.712  0.00  0.00    +0.076 S 
ATOM      7  O   UNL     1      33.928 -13.819 -21.070  0.00  0.00    -0.150 OA
ATOM      8  O   UNL     1      32.014 -15.483 -21.115  0.00  0.00    -0.150 OA
BRANCH   6   9
ATOM      9  N   UNL     1      31.613 -13.095 -22.038  0.00  0.00    -0.182 N 
ATOM     10  H   UNL     1      30.960 -13.129 -22.774  0.00  0.00    +0.177 HD
BRANCH   9  14
ATOM     11 CL   UNL     1      32.067  -9.976 -23.016  0.00  0.00    -0.076 Cl
ATOM     12  O   UNL     1      31.643 -12.073 -19.773  0.00  0.00    -0.336 OA
ATOM     13  N   UNL     1      31.782 -10.812 -19.208  0.00  0.00    -0.079 NA
ATOM     14  C   UNL     1      31.720 -11.946 -21.105  0.00  0.00    +0.255 A 
ATOM     15  C   UNL     1      31.906 -10.660 -21.477  0.00  0.00    +0.127 A 
ATOM     16  C   UNL     1      31.939  -9.984 -20.245  0.00  0.00    +0.113 A 
ATOM     17  C   UNL     1      32.117  -8.543 -19.997  0.00  0.00    +0.057 C 
ENDBRANCH   9  14
ENDBRANCH   6   9
ENDBRANCH   2   6
BRANCH   3  19
ATOM     18  O   UNL     1      34.752 -16.630 -21.159  0.00  0.00    -0.290 OA
ATOM     19  C   UNL     1      34.612 -16.985 -22.332  0.00  0.00    +0.185 C 
BRANCH  19  20
ATOM     20  C   UNL     1      34.974 -18.418 -22.737  0.00  0.00    +0.096 C 
BRANCH  20  23
ATOM     21  O   UNL     1      32.689 -21.498 -19.644  0.00  0.00    -0.435 OA
ATOM     22  O   UNL     1      34.732 -22.074 -18.505  0.00  0.00    -0.435 OA
ATOM     23  C   UNL     1      34.965 -19.389 -21.600  0.00  0.00    -0.015 C 
ATOM     24  C   UNL     1      36.158 -19.724 -20.936  0.00  0.00    -0.022 C 
ATOM     25  C   UNL     1      33.750 -19.957 -21.211  0.00  0.00    +0.036 C 
ATOM     26  C   UNL     1      33.768 -20.850 -20.160  0.00  0.00    +0.176 C 
ATOM     27  C   UNL     1      34.935 -21.179 -19.509  0.00  0.00    +0.176 C 
ATOM     28  C   UNL     1      36.149 -20.633 -19.874  0.00  0.00    +0.036 C 
ATOM     29  C   UNL     1      37.458 -19.118 -21.354  0.00  0.00    +0.031 C 
ATOM     30  C   UNL     1      33.307 -22.273 -18.596  0.00  0.00    +0.429 C 
ENDBRANCH  20  23
ENDBRANCH  19  20
ENDBRANCH   3  19
TORSDOF 6
ENDMDL
MODEL 3
REMARK VINA RESULT:     -10.3      1.724      2.449
REMARK  Name = 216235
REMARK  6 active torsions:
REMARK  status: ('A' for Active; 'I' for Inactive)
REMARK    1  A    between atoms: C_2  and  S_6
REMARK    2  A    between atoms: C_3  and  C_19
REMARK    3  A    between atoms: S_6  and  N_9
REMARK    4  A    between atoms: N_9  and  C_14
REMARK    5  A    between atoms: C_19  and  C_20
REMARK    6  A    between atoms: C_20  and  C_23
REMARK                            x       y       z     vdW  Elec       q    Type
REMARK                         _______ _______ _______ _____ _____    ______ ____
ROOT
ATOM      1  S   UNL     1      34.209 -15.678 -24.923  0.00  0.00    -0.082 S 
ATOM      2  C   UNL     1      34.504 -17.226 -22.893  0.00  0.00    +0.134 C 
ATOM      3  C   UNL     1      34.174 -15.969 -23.257  0.00  0.00    +0.083 C 
ATOM      4  C   UNL     1      34.810 -18.015 -24.039  0.00  0.00    +0.028 C 
ATOM      5  C   UNL     1      34.688 -17.297 -25.209  0.00  0.00    +0.037 C 
ENDROOT
BRANCH   2   6
ATOM      6  S   UNL     1      34.563 -17.832 -21.288  0.00  0.00    +0.076 S 
ATOM      7  O   UNL     1      33.162 -17.884 -20.889  0.00  0.00    -0.150 OA
ATOM      8  O   UNL     1      35.509 -16.969 -20.593  0.00  0.00    -0.150 OA
BRANCH   6   9
ATOM      9  N   UNL     1      35.216 -19.438 -21.324  0.00  0.00    -0.182 N 
ATOM     10  H   UNL     1      36.022 -19.679 -21.835  0.00  0.00    +0.177 HD
BRANCH   9  14
ATOM     11 CL   UNL     1      36.545 -21.296 -18.943  0.00  0.00    -0.076 Cl
ATOM     12  O   UNL     1      33.135 -20.635 -20.684  0.00  0.00    -0.336 OA
ATOM     13  N   UNL     1      32.737 -21.605 -19.773  0.00  0.00    -0.079 NA
ATOM     14  C   UNL     1      34.447 -20.416 -20.517  0.00  0.00    +0.255 A 
ATOM     15  C   UNL     1      34.964 -21.190 -19.537  0.00  0.00    +0.127 A 
ATOM     16  C   UNL     1      33.846 -21.922 -19.099  0.00  0.00    +0.113 A 
ATOM     17  C   UNL     1      33.780 -22.940 -18.037  0.00  0.00    +0.057 C 
ENDBRANCH   9  14
ENDBRANCH   6   9
ENDBRANCH   2   6
BRANCH   3  19
ATOM     18  O   UNL     1      34.439 -14.545 -21.380  0.00  0.00    -0.290 OA
ATOM     19  C   UNL     1      33.791 -14.845 -22.386  0.00  0.00    +0.185 C 
BRANCH  19  20
ATOM     20  C   UNL     1      32.545 -14.031 -22.752  0.00  0.00    +0.096 C 
BRANCH  20  23
ATOM     21  O   UNL     1      34.895 -10.321 -24.985  0.00  0.00    -0.435 OA
ATOM     22  O   UNL     1      33.699  -8.643 -23.736  0.00  0.00    -0.435 OA
ATOM     23  C   UNL     1      32.815 -12.579 -22.975  0.00  0.00    -0.015 C 
ATOM     24  C   UNL     1      32.117 -11.600 -22.246  0.00  0.00    -0.022 C 
ATOM     25  C   UNL     1      33.773 -12.211 -23.924  0.00  0.00    +0.036 C 
ATOM     26  C   UNL     1      34.004 -10.864 -24.112  0.00  0.00    +0.176 C 
ATOM     27  C   UNL     1      33.321  -9.906 -23.398  0.00  0.00    +0.176 C 
ATOM     28  C   UNL     1      32.369 -10.242 -22.457  0.00  0.00    +0.036 C 
ATOM     29  C   UNL     1      31.090 -11.993 -21.234  0.00  0.00    +0.031 C 
ATOM     30  C   UNL     1      34.696  -8.913 -24.742  0.00  0.00    +0.429 C 
ENDBRANCH  20  23
ENDBRANCH  19  20
ENDBRANCH   3  19
TORSDOF 6
ENDMDL
MODEL 4
REMARK VINA RESULT:     -10.2      4.627      9.720
REMARK  Name = 216235
REMARK  6 active torsions:
REMARK  status: ('A' for Active; 'I' for Inactive)
REMARK    1  A    between atoms: C_2  and  S_6
REMARK    2  A    between atoms: C_3  and  C_19
REMARK    3  A    between atoms: S_6  and  N_9
REMARK    4  A    between atoms: N_9  and  C_14
REMARK    5  A    between atoms: C_19  and  C_20
REMARK    6  A    between atoms: C_20  and  C_23
REMARK                            x       y       z     vdW  Elec       q    Type
REMARK                         _______ _______ _______ _____ _____    ______ ____
ROOT
ATOM      1  S   UNL     1      36.228 -22.628 -15.598  0.00  0.00    -0.082 S 
ATOM      2  C   UNL     1      35.300 -22.281 -17.968  0.00  0.00    +0.134 C 
ATOM      3  C   UNL     1      35.034 -22.852 -16.775  0.00  0.00    +0.083 C 
ATOM      4  C   UNL     1      36.558 -21.615 -17.936  0.00  0.00    +0.028 C 
ATOM      5  C   UNL     1      37.169 -21.724 -16.706  0.00  0.00    +0.037 C 
ENDROOT
BRANCH   2   6
ATOM      6  S   UNL     1      34.293 -22.327 -19.359  0.00  0.00    +0.076 S 
ATOM      7  O   UNL     1      33.123 -21.554 -18.962  0.00  0.00    -0.150 OA
ATOM      8  O   UNL     1      34.179 -23.741 -19.694  0.00  0.00    -0.150 OA
BRANCH   6   9
ATOM      9  N   UNL     1      35.107 -21.523 -20.661  0.00  0.00    -0.182 N 
ATOM     10  H   UNL     1      35.787 -21.961 -21.222  0.00  0.00    +0.177 HD
BRANCH   9  14
ATOM     11 CL   UNL     1      37.218 -19.012 -21.022  0.00  0.00    -0.076 Cl
ATOM     12  O   UNL     1      33.402 -19.732 -20.895  0.00  0.00    -0.336 OA
ATOM     13  N   UNL     1      33.365 -18.356 -21.084  0.00  0.00    -0.079 NA
ATOM     14  C   UNL     1      34.687 -20.114 -20.852  0.00  0.00    +0.255 A 
ATOM     15  C   UNL     1      35.527 -19.067 -21.002  0.00  0.00    +0.127 A 
ATOM     16  C   UNL     1      34.646 -17.980 -21.145  0.00  0.00    +0.113 A 
ATOM     17  C   UNL     1      34.973 -16.558 -21.342  0.00  0.00    +0.057 C 
ENDBRANCH   9  14
ENDBRANCH   6   9
ENDBRANCH   2   6
BRANCH   3  19
ATOM     18  O   UNL     1      33.480 -24.626 -17.015  0.00  0.00    -0.290 OA
ATOM     19  C   UNL     1      33.844 -23.629 -16.387  0.00  0.00    +0.185 C 
BRANCH  19  20
ATOM     20  C   UNL     1      33.042 -23.172 -15.164  0.00  0.00    +0.096 C 
BRANCH  20  23
ATOM     21  O   UNL     1      28.687 -22.001 -17.148  0.00  0.00    -0.435 OA
ATOM     22  O   UNL     1      27.509 -23.657 -15.853  0.00  0.00    -0.435 OA
ATOM     23  C   UNL     1      31.565 -23.343 -15.309  0.00  0.00    -0.015 C 
ATOM     24  C   UNL     1      30.878 -24.309 -14.554  0.00  0.00    -0.022 C 
ATOM     25  C   UNL     1      30.879 -22.525 -16.211  0.00  0.00    +0.036 C 
ATOM     26  C   UNL     1      29.516 -22.702 -16.327  0.00  0.00    +0.176 C 
ATOM     27  C   UNL     1      28.843 -23.647 -15.588  0.00  0.00    +0.176 C 
ATOM     28  C   UNL     1      29.496 -24.468 -14.691  0.00  0.00    +0.036 C 
ATOM     29  C   UNL     1      31.612 -25.186 -13.592  0.00  0.00    +0.031 C 
ATOM     30  C   UNL     1      27.416 -22.612 -16.843  0.00  0.00    +0.429 C 
ENDBRANCH  20  23
ENDBRANCH  19  20
ENDBRANCH   3  19
TORSDOF 6
ENDMDL
MODEL 5
REMARK VINA RESULT:     -10.2      6.086     11.891
REMARK  Name = 216235
REMARK  6 active torsions:
REMARK  status: ('A' for Active; 'I' for Inactive)
REMARK    1  A    between atoms: C_2  and  S_6
REMARK    2  A    between atoms: C_3  and  C_19
REMARK    3  A    between atoms: S_6  and  N_9
REMARK    4  A    between atoms: N_9  and  C_14
REMARK    5  A    between atoms: C_19  and  C_20
REMARK    6  A    between atoms: C_20  and  C_23
REMARK                            x       y       z     vdW  Elec       q    Type
REMARK                         _______ _______ _______ _____ _____    ______ ____
ROOT
ATOM      1  S   UNL     1      31.599 -23.673 -14.089  0.00  0.00    -0.082 S 
ATOM      2  C   UNL     1      32.561 -23.243 -16.433  0.00  0.00    +0.134 C 
ATOM      3  C   UNL     1      32.852 -23.762 -15.221  0.00  0.00    +0.083 C 
ATOM      4  C   UNL     1      31.230 -22.735 -16.453  0.00  0.00    +0.028 C 
ATOM      5  C   UNL     1      30.593 -22.905 -15.243  0.00  0.00    +0.037 C 
ENDROOT
BRANCH   2   6
ATOM      6  S   UNL     1      33.614 -23.182 -17.787  0.00  0.00    +0.076 S 
ATOM      7  O   UNL     1      33.530 -24.524 -18.349  0.00  0.00    -0.150 OA
ATOM      8  O   UNL     1      34.872 -22.666 -17.263  0.00  0.00    -0.150 OA
BRANCH   6   9
ATOM      9  N   UNL     1      32.987 -22.036 -18.927  0.00  0.00    -0.182 N 
ATOM     10  H   UNL     1      32.025 -21.874 -19.053  0.00  0.00    +0.177 HD
BRANCH   9  14
ATOM     11 CL   UNL     1      32.425 -19.304 -20.690  0.00  0.00    -0.076 Cl
ATOM     12  O   UNL     1      35.313 -21.724 -19.743  0.00  0.00    -0.336 OA
ATOM     13  N   UNL     1      36.018 -20.836 -20.545  0.00  0.00    -0.079 NA
ATOM     14  C   UNL     1      34.035 -21.321 -19.696  0.00  0.00    +0.255 A 
ATOM     15  C   UNL     1      33.834 -20.202 -20.426  0.00  0.00    +0.127 A 
ATOM     16  C   UNL     1      35.115 -19.935 -20.942  0.00  0.00    +0.113 A 
ATOM     17  C   UNL     1      35.533 -18.831 -21.822  0.00  0.00    +0.057 C 
ENDBRANCH   9  14
ENDBRANCH   6   9
ENDBRANCH   2   6
BRANCH   3  19
ATOM     18  O   UNL     1      34.348 -25.584 -14.969  0.00  0.00    -0.290 OA
ATOM     19  C   UNL     1      34.112 -24.388 -14.783  0.00  0.00    +0.185 C 
BRANCH  19  20
ATOM     20  C   UNL     1      35.152 -23.513 -14.076  0.00  0.00    +0.096 C 
BRANCH  20  23
ATOM     21  O   UNL     1      39.606 -25.037 -15.530  0.00  0.00    -0.435 OA
ATOM     22  O   UNL     1      40.105 -26.031 -13.393  0.00  0.00    -0.435 OA
ATOM     23  C   UNL     1      36.460 -24.198 -13.840  0.00  0.00    -0.015 C 
ATOM     24  C   UNL     1      36.750 -24.778 -12.593  0.00  0.00    -0.022 C 
ATOM     25  C   UNL     1      37.389 -24.250 -14.883  0.00  0.00    +0.036 C 
ATOM     26  C   UNL     1      38.587 -24.887 -14.641  0.00  0.00    +0.176 C 
ATOM     27  C   UNL     1      38.872 -25.455 -13.420  0.00  0.00    +0.176 C 
ATOM     28  C   UNL     1      37.973 -25.417 -12.374  0.00  0.00    +0.036 C 
ATOM     29  C   UNL     1      35.758 -24.719 -11.477  0.00  0.00    +0.031 C 
ATOM     30  C   UNL     1      40.565 -25.762 -14.733  0.00  0.00    +0.429 C 
ENDBRANCH  20  23
ENDBRANCH  19  20
ENDBRANCH   3  19
TORSDOF 6
ENDMDL
MODEL 6
REMARK VINA RESULT:      -9.8      2.345      3.375
REMARK  Name = 216235
REMARK  6 active torsions:
REMARK  status: ('A' for Active; 'I' for Inactive)
REMARK    1  A    between atoms: C_2  and  S_6
REMARK    2  A    between atoms: C_3  and  C_19
REMARK    3  A    between atoms: S_6  and  N_9
REMARK    4  A    between atoms: N_9  and  C_14
REMARK    5  A    between atoms: C_19  and  C_20
REMARK    6  A    between atoms: C_20  and  C_23
REMARK                            x       y       z     vdW  Elec       q    Type
REMARK                         _______ _______ _______ _____ _____    ______ ____
ROOT
ATOM      1  S   UNL     1      33.019 -13.985 -25.448  0.00  0.00    -0.082 S 
ATOM      2  C   UNL     1      33.831 -15.829 -23.854  0.00  0.00    +0.134 C 
ATOM      3  C   UNL     1      33.446 -14.537 -23.907  0.00  0.00    +0.083 C 
ATOM      4  C   UNL     1      33.779 -16.421 -25.149  0.00  0.00    +0.028 C 
ATOM      5  C   UNL     1      33.354 -15.530 -26.108  0.00  0.00    +0.037 C 
ENDROOT
BRANCH   2   6
ATOM      6  S   UNL     1      34.322 -16.681 -22.447  0.00  0.00    +0.076 S 
ATOM      7  O   UNL     1      33.219 -16.475 -21.517  0.00  0.00    -0.150 OA
ATOM      8  O   UNL     1      35.658 -16.179 -22.149  0.00  0.00    -0.150 OA
BRANCH   6   9
ATOM      9  N   UNL     1      34.448 -18.366 -22.833  0.00  0.00    -0.182 N 
ATOM     10  H   UNL     1      34.136 -18.748 -23.685  0.00  0.00    +0.177 HD
BRANCH   9  14
ATOM     11 CL   UNL     1      32.751 -20.383 -20.847  0.00  0.00    -0.076 Cl
ATOM     12  O   UNL     1      36.385 -19.173 -21.503  0.00  0.00    -0.336 OA
ATOM     13  N   UNL     1      36.625 -20.043 -20.447  0.00  0.00    -0.079 NA
ATOM     14  C   UNL     1      35.070 -19.183 -21.762  0.00  0.00    +0.255 A 
ATOM     15  C   UNL     1      34.401 -20.016 -20.935  0.00  0.00    +0.127 A 
ATOM     16  C   UNL     1      35.426 -20.535 -20.123  0.00  0.00    +0.113 A 
ATOM     17  C   UNL     1      35.316 -21.506 -19.021  0.00  0.00    +0.057 C 
ENDBRANCH   9  14
ENDBRANCH   6   9
ENDBRANCH   2   6
BRANCH   3  19
ATOM     18  O   UNL     1      34.261 -13.436 -21.973  0.00  0.00    -0.290 OA
ATOM     19  C   UNL     1      33.355 -13.572 -22.797  0.00  0.00    +0.185 C 
BRANCH  19  20
ATOM     20  C   UNL     1      32.088 -12.719 -22.677  0.00  0.00    +0.096 C 
BRANCH  20  23
ATOM     21  O   UNL     1      34.206  -8.544 -24.214  0.00  0.00    -0.435 OA
ATOM     22  O   UNL     1      33.207  -7.239 -22.452  0.00  0.00    -0.435 OA
ATOM     23  C   UNL     1      32.354 -11.252 -22.571  0.00  0.00    -0.015 C 
ATOM     24  C   UNL     1      31.771 -10.490 -21.543  0.00  0.00    -0.022 C 
ATOM     25  C   UNL     1      33.192 -10.651 -23.514  0.00  0.00    +0.036 C 
ATOM     26  C   UNL     1      33.422  -9.296 -23.395  0.00  0.00    +0.176 C 
ATOM     27  C   UNL     1      32.852  -8.550 -22.388  0.00  0.00    +0.176 C 
ATOM     28  C   UNL     1      32.020  -9.119 -21.446  0.00  0.00    +0.036 C 
ATOM     29  C   UNL     1      30.872 -11.133 -20.537  0.00  0.00    +0.031 C 
ATOM     30  C   UNL     1      34.065  -7.241 -23.612  0.00  0.00    +0.429 C 
ENDBRANCH  20  23
ENDBRANCH  19  20
ENDBRANCH   3  19
TORSDOF 6
ENDMDL
MODEL 7
REMARK VINA RESULT:      -9.7      3.750      8.678
REMARK  Name = 216235
REMARK  6 active torsions:
REMARK  status: ('A' for Active; 'I' for Inactive)
REMARK    1  A    between atoms: C_2  and  S_6
REMARK    2  A    between atoms: C_3  and  C_19
REMARK    3  A    between atoms: S_6  and  N_9
REMARK    4  A    between atoms: N_9  and  C_14
REMARK    5  A    between atoms: C_19  and  C_20
REMARK    6  A    between atoms: C_20  and  C_23
REMARK                            x       y       z     vdW  Elec       q    Type
REMARK                         _______ _______ _______ _____ _____    ______ ____
ROOT
ATOM      1  S   UNL     1      34.759 -17.110 -25.000  0.00  0.00    -0.082 S 
ATOM      2  C   UNL     1      33.680 -15.516 -23.299  0.00  0.00    +0.134 C 
ATOM      3  C   UNL     1      34.382 -16.662 -23.414  0.00  0.00    +0.083 C 
ATOM      4  C   UNL     1      33.424 -14.954 -24.583  0.00  0.00    +0.028 C 
ATOM      5  C   UNL     1      33.956 -15.720 -25.597  0.00  0.00    +0.037 C 
ENDROOT
BRANCH   2   6
ATOM      6  S   UNL     1      33.148 -14.797 -21.833  0.00  0.00    +0.076 S 
ATOM      7  O   UNL     1      34.298 -14.018 -21.394  0.00  0.00    -0.150 OA
ATOM      8  O   UNL     1      32.643 -15.905 -21.032  0.00  0.00    -0.150 OA
BRANCH   6   9
ATOM      9  N   UNL     1      31.825 -13.733 -22.184  0.00  0.00    -0.182 N 
ATOM     10  H   UNL     1      30.887 -14.030 -22.206  0.00  0.00    +0.177 HD
BRANCH   9  14
ATOM     11 CL   UNL     1      30.783 -11.149 -20.415  0.00  0.00    -0.076 Cl
ATOM     12  O   UNL     1      33.073 -11.989 -23.440  0.00  0.00    -0.336 OA
ATOM     13  N   UNL     1      33.242 -10.611 -23.406  0.00  0.00    -0.079 NA
ATOM     14  C   UNL     1      32.236 -12.332 -22.450  0.00  0.00    +0.255 A 
ATOM     15  C   UNL     1      31.825 -11.256 -21.743  0.00  0.00    +0.127 A 
ATOM     16  C   UNL     1      32.488 -10.194 -22.385  0.00  0.00    +0.113 A 
ATOM     17  C   UNL     1      32.435  -8.758 -22.064  0.00  0.00    +0.057 C 
ENDBRANCH   9  14
ENDBRANCH   6   9
ENDBRANCH   2   6
BRANCH   3  19
ATOM     18  O   UNL     1      35.248 -17.109 -21.253  0.00  0.00    -0.290 OA
ATOM     19  C   UNL     1      34.851 -17.549 -22.334  0.00  0.00    +0.185 C 
BRANCH  19  20
ATOM     20  C   UNL     1      34.840 -19.061 -22.577  0.00  0.00    +0.096 C 
BRANCH  20  23
ATOM     21  O   UNL     1      37.025 -21.469 -18.876  0.00  0.00    -0.435 OA
ATOM     22  O   UNL     1      34.925 -22.112 -17.885  0.00  0.00    -0.435 OA
ATOM     23  C   UNL     1      34.806 -19.876 -21.325  0.00  0.00    -0.015 C 
ATOM     24  C   UNL     1      33.581 -20.251 -20.747  0.00  0.00    -0.022 C 
ATOM     25  C   UNL     1      36.016 -20.257 -20.738  0.00  0.00    +0.036 C 
ATOM     26  C   UNL     1      35.958 -21.008 -19.583  0.00  0.00    +0.176 C 
ATOM     27  C   UNL     1      34.759 -21.376 -19.017  0.00  0.00    +0.176 C 
ATOM     28  C   UNL     1      33.550 -21.011 -19.575  0.00  0.00    +0.036 C 
ATOM     29  C   UNL     1      32.287 -19.840 -21.373  0.00  0.00    +0.031 C 
ATOM     30  C   UNL     1      36.364 -22.167 -17.800  0.00  0.00    +0.429 C 
ENDBRANCH  20  23
ENDBRANCH  19  20
ENDBRANCH   3  19
TORSDOF 6
ENDMDL
MODEL 8
REMARK VINA RESULT:      -9.7      1.996      3.144
REMARK  Name = 216235
REMARK  6 active torsions:
REMARK  status: ('A' for Active; 'I' for Inactive)
REMARK    1  A    between atoms: C_2  and  S_6
REMARK    2  A    between atoms: C_3  and  C_19
REMARK    3  A    between atoms: S_6  and  N_9
REMARK    4  A    between atoms: N_9  and  C_14
REMARK    5  A    between atoms: C_19  and  C_20
REMARK    6  A    between atoms: C_20  and  C_23
REMARK                            x       y       z     vdW  Elec       q    Type
REMARK                         _______ _______ _______ _____ _____    ______ ____
ROOT
ATOM      1  S   UNL     1      32.946 -14.076 -25.991  0.00  0.00    -0.082 S 
ATOM      2  C   UNL     1      33.811 -15.259 -23.881  0.00  0.00    +0.134 C 
ATOM      3  C   UNL     1      33.352 -14.079 -24.349  0.00  0.00    +0.083 C 
ATOM      4  C   UNL     1      33.841 -16.233 -24.920  0.00  0.00    +0.028 C 
ATOM      5  C   UNL     1      33.396 -15.723 -26.119  0.00  0.00    +0.037 C 
ENDROOT
BRANCH   2   6
ATOM      6  S   UNL     1      34.303 -15.585 -22.269  0.00  0.00    +0.076 S 
ATOM      7  O   UNL     1      33.055 -15.895 -21.584  0.00  0.00    -0.150 OA
ATOM      8  O   UNL     1      35.106 -14.432 -21.879  0.00  0.00    -0.150 OA
BRANCH   6   9
ATOM      9  N   UNL     1      35.327 -16.984 -22.272  0.00  0.00    -0.182 N 
ATOM     10  H   UNL     1      36.221 -16.995 -22.685  0.00  0.00    +0.177 HD
BRANCH   9  14
ATOM     11 CL   UNL     1      37.100 -19.296 -20.723  0.00  0.00    -0.076 Cl
ATOM     12  O   UNL     1      33.413 -18.397 -21.557  0.00  0.00    -0.336 OA
ATOM     13  N   UNL     1      33.203 -19.576 -20.853  0.00  0.00    -0.079 NA
ATOM     14  C   UNL     1      34.733 -18.164 -21.597  0.00  0.00    +0.255 A 
ATOM     15  C   UNL     1      35.433 -19.125 -20.956  0.00  0.00    +0.127 A 
ATOM     16  C   UNL     1      34.423 -19.993 -20.504  0.00  0.00    +0.113 A 
ATOM     17  C   UNL     1      34.568 -21.240 -19.733  0.00  0.00    +0.057 C 
ENDBRANCH   9  14
ENDBRANCH   6   9
ENDBRANCH   2   6
BRANCH   3  19
ATOM     18  O   UNL     1      34.002 -11.917 -23.627  0.00  0.00    -0.290 OA
ATOM     19  C   UNL     1      33.163 -12.821 -23.606  0.00  0.00    +0.185 C 
BRANCH  19  20
ATOM     20  C   UNL     1      31.882 -12.644 -22.786  0.00  0.00    +0.096 C 
BRANCH  20  23
ATOM     21  O   UNL     1      31.867  -7.812 -21.824  0.00  0.00    -0.435 OA
ATOM     22  O   UNL     1      32.006  -8.156 -19.443  0.00  0.00    -0.435 OA
ATOM     23  C   UNL     1      31.918 -11.480 -21.849  0.00  0.00    -0.015 C 
ATOM     24  C   UNL     1      32.000 -11.681 -20.460  0.00  0.00    -0.022 C 
ATOM     25  C   UNL     1      31.869 -10.188 -22.379  0.00  0.00    +0.036 C 
ATOM     26  C   UNL     1      31.904  -9.132 -21.494  0.00  0.00    +0.176 C 
ATOM     27  C   UNL     1      31.984  -9.328 -20.134  0.00  0.00    +0.176 C 
ATOM     28  C   UNL     1      32.033 -10.593 -19.585  0.00  0.00    +0.036 C 
ATOM     29  C   UNL     1      32.049 -13.063 -19.893  0.00  0.00    +0.031 C 
ATOM     30  C   UNL     1      31.931  -7.199 -20.520  0.00  0.00    +0.429 C 
ENDBRANCH  20  23
ENDBRANCH  19  20
ENDBRANCH   3  19
TORSDOF 6
ENDMDL
MODEL 9
REMARK VINA RESULT:      -9.6      5.942      9.544
REMARK  Name = 216235
REMARK  6 active torsions:
REMARK  status: ('A' for Active; 'I' for Inactive)
REMARK    1  A    between atoms: C_2  and  S_6
REMARK    2  A    between atoms: C_3  and  C_19
REMARK    3  A    between atoms: S_6  and  N_9
REMARK    4  A    between atoms: N_9  and  C_14
REMARK    5  A    between atoms: C_19  and  C_20
REMARK    6  A    between atoms: C_20  and  C_23
REMARK                            x       y       z     vdW  Elec       q    Type
REMARK                         _______ _______ _______ _____ _____    ______ ____
ROOT
ATOM      1  S   UNL     1      31.066 -22.691 -17.143  0.00  0.00    -0.082 S 
ATOM      2  C   UNL     1      31.598 -23.742 -14.859  0.00  0.00    +0.134 C 
ATOM      3  C   UNL     1      32.161 -23.192 -15.955  0.00  0.00    +0.083 C 
ATOM      4  C   UNL     1      30.178 -23.765 -14.983  0.00  0.00    +0.028 C 
ATOM      5  C   UNL     1      29.755 -23.223 -16.177  0.00  0.00    +0.037 C 
ENDROOT
BRANCH   2   6
ATOM      6  S   UNL     1      32.433 -24.345 -13.486  0.00  0.00    +0.076 S 
ATOM      7  O   UNL     1      31.557 -25.395 -12.983  0.00  0.00    -0.150 OA
ATOM      8  O   UNL     1      32.731 -23.167 -12.680  0.00  0.00    -0.150 OA
BRANCH   6   9
ATOM      9  N   UNL     1      33.933 -25.040 -14.009  0.00  0.00    -0.182 N 
ATOM     10  H   UNL     1      34.031 -25.534 -14.855  0.00  0.00    +0.177 HD
BRANCH   9  14
ATOM     11 CL   UNL     1      37.046 -24.488 -14.955  0.00  0.00    -0.076 Cl
ATOM     12  O   UNL     1      34.905 -24.835 -11.731  0.00  0.00    -0.336 OA
ATOM     13  N   UNL     1      36.146 -24.603 -11.153  0.00  0.00    -0.079 NA
ATOM     14  C   UNL     1      35.056 -24.824 -13.064  0.00  0.00    +0.255 A 
ATOM     15  C   UNL     1      36.338 -24.597 -13.422  0.00  0.00    +0.127 A 
ATOM     16  C   UNL     1      36.987 -24.464 -12.182  0.00  0.00    +0.113 A 
ATOM     17  C   UNL     1      38.413 -24.203 -11.919  0.00  0.00    +0.057 C 
ENDBRANCH   9  14
ENDBRANCH   6   9
ENDBRANCH   2   6
BRANCH   3  19
ATOM     18  O   UNL     1      34.340 -22.435 -15.410  0.00  0.00    -0.290 OA
ATOM     19  C   UNL     1      33.593 -22.978 -16.227  0.00  0.00    +0.185 C 
BRANCH  19  20
ATOM     20  C   UNL     1      34.158 -23.451 -17.570  0.00  0.00    +0.096 C 
BRANCH  20  23
ATOM     21  O   UNL     1      33.035 -20.226 -21.122  0.00  0.00    -0.435 OA
ATOM     22  O   UNL     1      35.255 -19.290 -21.150  0.00  0.00    -0.435 OA
ATOM     23  C   UNL     1      34.504 -22.338 -18.507  0.00  0.00    -0.015 C 
ATOM     24  C   UNL     1      35.799 -21.793 -18.523  0.00  0.00    -0.022 C 
ATOM     25  C   UNL     1      33.515 -21.850 -19.365  0.00  0.00    +0.036 C 
ATOM     26  C   UNL     1      33.859 -20.824 -20.220  0.00  0.00    +0.176 C 
ATOM     27  C   UNL     1      35.128 -20.289 -20.236  0.00  0.00    +0.176 C 
ATOM     28  C   UNL     1      36.122 -20.752 -19.398  0.00  0.00    +0.036 C 
ATOM     29  C   UNL     1      36.856 -22.313 -17.603  0.00  0.00    +0.031 C 
ATOM     30  C   UNL     1      33.926 -19.254 -21.708  0.00  0.00    +0.429 C 
ENDBRANCH  20  23
ENDBRANCH  19  20
ENDBRANCH   3  19
TORSDOF 6
ENDMDL
