MODEL 1
REMARK VINA RESULT:      -6.8      0.000      0.000
REMARK  Name = 24778468
REMARK  14 active torsions:
REMARK  status: ('A' for Active; 'I' for Inactive)
REMARK    1  A    between atoms: C_1  and  C_2
REMARK    2  A    between atoms: C_1  and  C_11
REMARK    3  A    between atoms: C_2  and  C_3
REMARK    4  A    between atoms: C_3  and  C_4
REMARK    5  A    between atoms: C_4  and  C_5
REMARK    6  A    between atoms: C_5  and  C_6
REMARK    7  A    between atoms: C_6  and  C_8
REMARK    8  A    between atoms: C_8  and  O_9
REMARK    9  A    between atoms: C_11  and  C_12
REMARK   10  A    between atoms: C_12  and  C_13
REMARK   11  A    between atoms: C_13  and  C_14
REMARK   12  A    between atoms: C_14  and  O_15
REMARK   13  A    between atoms: O_15  and  C_17
REMARK   14  A    between atoms: C_17  and  S_18
REMARK                            x       y       z     vdW  Elec       q    Type
REMARK                         _______ _______ _______ _____ _____    ______ ____
ROOT
ATOM      1  C   UNL     1      33.449 -22.383 -18.620  0.00  0.00    +0.000 C 
ENDROOT
BRANCH   1   2
ATOM      2  C   UNL     1      33.221 -22.982 -17.231  0.00  0.00    +0.000 C 
BRANCH   2   3
ATOM      3  C   UNL     1      31.729 -23.070 -16.900  0.00  0.00    +0.000 C 
BRANCH   3   4
ATOM      4  C   UNL     1      31.492 -23.013 -15.391  0.00  0.00    +0.001 C 
BRANCH   4   5
ATOM      5  C   UNL     1      30.010 -22.950 -15.005  0.00  0.00    +0.012 C 
BRANCH   5   6
ATOM      6  C   UNL     1      29.089 -23.837 -15.837  0.00  0.00    +0.109 C 
BRANCH   6   8
ATOM      7  O   UNL     1      28.111 -21.829 -16.768  0.00  0.00    -0.250 OA
ATOM      8  C   UNL     1      28.219 -23.046 -16.777  0.00  0.00    +0.314 C 
BRANCH   8   9
ATOM      9  O   UNL     1      27.563 -23.861 -17.641  0.00  0.00    -0.480 OA
ATOM     10  H   UNL     1      27.978 -24.133 -18.435  0.00  0.00    +0.295 HD
ENDBRANCH   8   9
ENDBRANCH   6   8
ENDBRANCH   5   6
ENDBRANCH   4   5
ENDBRANCH   3   4
ENDBRANCH   2   3
ENDBRANCH   1   2
BRANCH   1  11
ATOM     11  C   UNL     1      34.940 -22.191 -18.905  0.00  0.00    +0.000 C 
BRANCH  11  12
ATOM     12  C   UNL     1      35.176 -21.029 -19.872  0.00  0.00    +0.004 C 
BRANCH  12  13
ATOM     13  C   UNL     1      33.857 -20.403 -20.320  0.00  0.00    +0.047 C 
BRANCH  13  14
ATOM     14  C   UNL     1      34.083 -19.233 -21.267  0.00  0.00    +0.209 C 
BRANCH  14  15
ATOM     15  O   UNL     1      35.120 -18.414 -20.744  0.00  0.00    -0.441 OA
BRANCH  15  17
ATOM     16  O   UNL     1      35.038 -16.172 -20.242  0.00  0.00    -0.238 OA
ATOM     17  C   UNL     1      35.056 -17.082 -21.062  0.00  0.00    +0.366 C 
BRANCH  17  18
ATOM     18  S   UNL     1      34.997 -16.730 -22.788  0.00  0.00    -0.061 S 
ATOM     19  H   UNL     1      36.034 -17.352 -23.413  0.00  0.00    +0.113 HD
ENDBRANCH  17  18
ENDBRANCH  15  17
ENDBRANCH  14  15
ENDBRANCH  13  14
ENDBRANCH  12  13
ENDBRANCH  11  12
ENDBRANCH   1  11
TORSDOF 14
ENDMDL
MODEL 2
REMARK VINA RESULT:      -6.7      3.602      8.617
REMARK  Name = 24778468
REMARK  14 active torsions:
REMARK  status: ('A' for Active; 'I' for Inactive)
REMARK    1  A    between atoms: C_1  and  C_2
REMARK    2  A    between atoms: C_1  and  C_11
REMARK    3  A    between atoms: C_2  and  C_3
REMARK    4  A    between atoms: C_3  and  C_4
REMARK    5  A    between atoms: C_4  and  C_5
REMARK    6  A    between atoms: C_5  and  C_6
REMARK    7  A    between atoms: C_6  and  C_8
REMARK    8  A    between atoms: C_8  and  O_9
REMARK    9  A    between atoms: C_11  and  C_12
REMARK   10  A    between atoms: C_12  and  C_13
REMARK   11  A    between atoms: C_13  and  C_14
REMARK   12  A    between atoms: C_14  and  O_15
REMARK   13  A    between atoms: O_15  and  C_17
REMARK   14  A    between atoms: C_17  and  S_18
REMARK                            x       y       z     vdW  Elec       q    Type
REMARK                         _______ _______ _______ _____ _____    ______ ____
ROOT
ATOM      1  C   UNL     1      34.783 -21.169 -19.730  0.00  0.00    +0.000 C 
ENDROOT
BRANCH   1   2
ATOM      2  C   UNL     1      33.538 -20.423 -20.210  0.00  0.00    +0.000 C 
BRANCH   2   3
ATOM      3  C   UNL     1      33.851 -19.536 -21.417  0.00  0.00    +0.000 C 
BRANCH   3   4
ATOM      4  C   UNL     1      35.093 -18.679 -21.167  0.00  0.00    +0.001 C 
BRANCH   4   5
ATOM      5  C   UNL     1      35.831 -18.282 -22.451  0.00  0.00    +0.012 C 
BRANCH   5   6
ATOM      6  C   UNL     1      35.002 -18.375 -23.727  0.00  0.00    +0.109 C 
BRANCH   6   8
ATOM      7  O   UNL     1      34.742 -17.035 -25.726  0.00  0.00    -0.250 OA
ATOM      8  C   UNL     1      35.060 -17.114 -24.548  0.00  0.00    +0.314 C 
BRANCH   8   9
ATOM      9  O   UNL     1      35.515 -16.070 -23.812  0.00  0.00    -0.480 OA
ATOM     10  H   UNL     1      36.220 -16.195 -23.208  0.00  0.00    +0.295 HD
ENDBRANCH   8   9
ENDBRANCH   6   8
ENDBRANCH   5   6
ENDBRANCH   4   5
ENDBRANCH   3   4
ENDBRANCH   2   3
ENDBRANCH   1   2
BRANCH   1  11
ATOM     11  C   UNL     1      34.409 -22.418 -18.928  0.00  0.00    +0.000 C 
BRANCH  11  12
ATOM     12  C   UNL     1      33.021 -22.279 -18.299  0.00  0.00    +0.004 C 
BRANCH  12  13
ATOM     13  C   UNL     1      32.843 -23.246 -17.130  0.00  0.00    +0.047 C 
BRANCH  13  14
ATOM     14  C   UNL     1      31.630 -22.887 -16.283  0.00  0.00    +0.209 C 
BRANCH  14  15
ATOM     15  O   UNL     1      30.491 -22.798 -17.128  0.00  0.00    -0.441 OA
BRANCH  15  17
ATOM     16  O   UNL     1      28.462 -21.929 -16.483  0.00  0.00    -0.238 OA
ATOM     17  C   UNL     1      29.271 -22.849 -16.504  0.00  0.00    +0.366 C 
BRANCH  17  18
ATOM     18  S   UNL     1      28.910 -24.375 -15.700  0.00  0.00    -0.061 S 
ATOM     19  H   UNL     1      27.737 -24.872 -16.176  0.00  0.00    +0.113 HD
ENDBRANCH  17  18
ENDBRANCH  15  17
ENDBRANCH  14  15
ENDBRANCH  13  14
ENDBRANCH  12  13
ENDBRANCH  11  12
ENDBRANCH   1  11
TORSDOF 14
ENDMDL
MODEL 3
REMARK VINA RESULT:      -6.6      6.119      9.055
REMARK  Name = 24778468
REMARK  14 active torsions:
REMARK  status: ('A' for Active; 'I' for Inactive)
REMARK    1  A    between atoms: C_1  and  C_2
REMARK    2  A    between atoms: C_1  and  C_11
REMARK    3  A    between atoms: C_2  and  C_3
REMARK    4  A    between atoms: C_3  and  C_4
REMARK    5  A    between atoms: C_4  and  C_5
REMARK    6  A    between atoms: C_5  and  C_6
REMARK    7  A    between atoms: C_6  and  C_8
REMARK    8  A    between atoms: C_8  and  O_9
REMARK    9  A    between atoms: C_11  and  C_12
REMARK   10  A    between atoms: C_12  and  C_13
REMARK   11  A    between atoms: C_13  and  C_14
REMARK   12  A    between atoms: C_14  and  O_15
REMARK   13  A    between atoms: O_15  and  C_17
REMARK   14  A    between atoms: C_17  and  S_18
REMARK                            x       y       z     vdW  Elec       q    Type
REMARK                         _______ _______ _______ _____ _____    ______ ____
ROOT
ATOM      1  C   UNL     1      35.598 -21.736 -19.190  0.00  0.00    +0.000 C 
ENDROOT
BRANCH   1   2
ATOM      2  C   UNL     1      35.689 -20.551 -20.152  0.00  0.00    +0.000 C 
BRANCH   2   3
ATOM      3  C   UNL     1      34.306 -20.135 -20.657  0.00  0.00    +0.000 C 
BRANCH   3   4
ATOM      4  C   UNL     1      34.357 -18.779 -21.361  0.00  0.00    +0.001 C 
BRANCH   4   5
ATOM      5  C   UNL     1      35.389 -18.714 -22.492  0.00  0.00    +0.012 C 
BRANCH   5   6
ATOM      6  C   UNL     1      34.802 -18.663 -23.899  0.00  0.00    +0.109 C 
BRANCH   6   8
ATOM      7  O   UNL     1      34.502 -17.001 -25.632  0.00  0.00    -0.250 OA
ATOM      8  C   UNL     1      34.963 -17.312 -24.544  0.00  0.00    +0.314 C 
BRANCH   8   9
ATOM      9  O   UNL     1      35.691 -16.478 -23.760  0.00  0.00    -0.480 OA
ATOM     10  H   UNL     1      36.188 -16.823 -23.045  0.00  0.00    +0.295 HD
ENDBRANCH   8   9
ENDBRANCH   6   8
ENDBRANCH   5   6
ENDBRANCH   4   5
ENDBRANCH   3   4
ENDBRANCH   2   3
ENDBRANCH   1   2
BRANCH   1  11
ATOM     11  C   UNL     1      36.723 -21.698 -18.153  0.00  0.00    +0.000 C 
BRANCH  11  12
ATOM     12  C   UNL     1      36.264 -22.280 -16.814  0.00  0.00    +0.004 C 
BRANCH  12  13
ATOM     13  C   UNL     1      37.455 -22.688 -15.949  0.00  0.00    +0.047 C 
BRANCH  13  14
ATOM     14  C   UNL     1      37.012 -23.450 -14.708  0.00  0.00    +0.209 C 
BRANCH  14  15
ATOM     15  O   UNL     1      37.752 -22.978 -13.591  0.00  0.00    -0.441 OA
BRANCH  15  17
ATOM     16  O   UNL     1      37.692 -22.849 -11.296  0.00  0.00    -0.238 OA
ATOM     17  C   UNL     1      37.173 -23.159 -12.362  0.00  0.00    +0.366 C 
BRANCH  17  18
ATOM     18  S   UNL     1      35.572 -23.894 -12.395  0.00  0.00    -0.061 S 
ATOM     19  H   UNL     1      34.648 -22.953 -12.732  0.00  0.00    +0.113 HD
ENDBRANCH  17  18
ENDBRANCH  15  17
ENDBRANCH  14  15
ENDBRANCH  13  14
ENDBRANCH  12  13
ENDBRANCH  11  12
ENDBRANCH   1  11
TORSDOF 14
ENDMDL
MODEL 4
REMARK VINA RESULT:      -6.6      4.742      6.093
REMARK  Name = 24778468
REMARK  14 active torsions:
REMARK  status: ('A' for Active; 'I' for Inactive)
REMARK    1  A    between atoms: C_1  and  C_2
REMARK    2  A    between atoms: C_1  and  C_11
REMARK    3  A    between atoms: C_2  and  C_3
REMARK    4  A    between atoms: C_3  and  C_4
REMARK    5  A    between atoms: C_4  and  C_5
REMARK    6  A    between atoms: C_5  and  C_6
REMARK    7  A    between atoms: C_6  and  C_8
REMARK    8  A    between atoms: C_8  and  O_9
REMARK    9  A    between atoms: C_11  and  C_12
REMARK   10  A    between atoms: C_12  and  C_13
REMARK   11  A    between atoms: C_13  and  C_14
REMARK   12  A    between atoms: C_14  and  O_15
REMARK   13  A    between atoms: O_15  and  C_17
REMARK   14  A    between atoms: C_17  and  S_18
REMARK                            x       y       z     vdW  Elec       q    Type
REMARK                         _______ _______ _______ _____ _____    ______ ____
ROOT
ATOM      1  C   UNL     1      34.726 -19.240 -21.176  0.00  0.00    +0.000 C 
ENDROOT
BRANCH   1   2
ATOM      2  C   UNL     1      33.333 -19.736 -20.784  0.00  0.00    +0.000 C 
BRANCH   2   3
ATOM      3  C   UNL     1      33.411 -21.037 -19.982  0.00  0.00    +0.000 C 
BRANCH   3   4
ATOM      4  C   UNL     1      34.862 -21.476 -19.778  0.00  0.00    +0.001 C 
BRANCH   4   5
ATOM      5  C   UNL     1      35.145 -22.022 -18.373  0.00  0.00    +0.012 C 
BRANCH   5   6
ATOM      6  C   UNL     1      36.549 -21.746 -17.845  0.00  0.00    +0.109 C 
BRANCH   6   8
ATOM      7  O   UNL     1      37.781 -22.199 -15.812  0.00  0.00    -0.250 OA
ATOM      8  C   UNL     1      36.812 -22.418 -16.523  0.00  0.00    +0.314 C 
BRANCH   8   9
ATOM      9  O   UNL     1      35.831 -23.306 -16.221  0.00  0.00    -0.480 OA
ATOM     10  H   UNL     1      35.233 -23.122 -15.524  0.00  0.00    +0.295 HD
ENDBRANCH   8   9
ENDBRANCH   6   8
ENDBRANCH   5   6
ENDBRANCH   4   5
ENDBRANCH   3   4
ENDBRANCH   2   3
ENDBRANCH   1   2
BRANCH   1  11
ATOM     11  C   UNL     1      34.686 -18.450 -22.487  0.00  0.00    +0.000 C 
BRANCH  11  12
ATOM     12  C   UNL     1      34.818 -19.376 -23.698  0.00  0.00    +0.004 C 
BRANCH  12  13
ATOM     13  C   UNL     1      34.407 -18.667 -24.986  0.00  0.00    +0.047 C 
BRANCH  13  14
ATOM     14  C   UNL     1      34.755 -17.185 -24.949  0.00  0.00    +0.209 C 
BRANCH  14  15
ATOM     15  O   UNL     1      34.041 -16.520 -25.982  0.00  0.00    -0.441 OA
BRANCH  15  17
ATOM     16  O   UNL     1      32.727 -14.677 -26.382  0.00  0.00    -0.238 OA
ATOM     17  C   UNL     1      33.423 -15.349 -25.630  0.00  0.00    +0.366 C 
BRANCH  17  18
ATOM     18  S   UNL     1      33.690 -14.836 -23.965  0.00  0.00    -0.061 S 
ATOM     19  H   UNL     1      32.493 -14.592 -23.368  0.00  0.00    +0.113 HD
ENDBRANCH  17  18
ENDBRANCH  15  17
ENDBRANCH  14  15
ENDBRANCH  13  14
ENDBRANCH  12  13
ENDBRANCH  11  12
ENDBRANCH   1  11
TORSDOF 14
ENDMDL
MODEL 5
REMARK VINA RESULT:      -6.6      4.534      5.718
REMARK  Name = 24778468
REMARK  14 active torsions:
REMARK  status: ('A' for Active; 'I' for Inactive)
REMARK    1  A    between atoms: C_1  and  C_2
REMARK    2  A    between atoms: C_1  and  C_11
REMARK    3  A    between atoms: C_2  and  C_3
REMARK    4  A    between atoms: C_3  and  C_4
REMARK    5  A    between atoms: C_4  and  C_5
REMARK    6  A    between atoms: C_5  and  C_6
REMARK    7  A    between atoms: C_6  and  C_8
REMARK    8  A    between atoms: C_8  and  O_9
REMARK    9  A    between atoms: C_11  and  C_12
REMARK   10  A    between atoms: C_12  and  C_13
REMARK   11  A    between atoms: C_13  and  C_14
REMARK   12  A    between atoms: C_14  and  O_15
REMARK   13  A    between atoms: O_15  and  C_17
REMARK   14  A    between atoms: C_17  and  S_18
REMARK                            x       y       z     vdW  Elec       q    Type
REMARK                         _______ _______ _______ _____ _____    ______ ____
ROOT
ATOM      1  C   UNL     1      33.004 -20.199 -20.784  0.00  0.00    +0.000 C 
ENDROOT
BRANCH   1   2
ATOM      2  C   UNL     1      33.428 -21.147 -19.660  0.00  0.00    +0.000 C 
BRANCH   2   3
ATOM      3  C   UNL     1      34.944 -21.353 -19.649  0.00  0.00    +0.000 C 
BRANCH   3   4
ATOM      4  C   UNL     1      35.404 -22.013 -18.348  0.00  0.00    +0.001 C 
BRANCH   4   5
ATOM      5  C   UNL     1      36.837 -21.646 -17.948  0.00  0.00    +0.012 C 
BRANCH   5   6
ATOM      6  C   UNL     1      37.125 -21.709 -16.451  0.00  0.00    +0.109 C 
BRANCH   6   8
ATOM      7  O   UNL     1      36.336 -23.883 -15.738  0.00  0.00    -0.250 OA
ATOM      8  C   UNL     1      37.268 -23.121 -15.949  0.00  0.00    +0.314 C 
BRANCH   8   9
ATOM      9  O   UNL     1      38.572 -23.444 -15.757  0.00  0.00    -0.480 OA
ATOM     10  H   UNL     1      39.245 -22.853 -16.031  0.00  0.00    +0.295 HD
ENDBRANCH   8   9
ENDBRANCH   6   8
ENDBRANCH   5   6
ENDBRANCH   4   5
ENDBRANCH   3   4
ENDBRANCH   2   3
ENDBRANCH   1   2
BRANCH   1  11
ATOM     11  C   UNL     1      34.107 -19.188 -21.105  0.00  0.00    +0.000 C 
BRANCH  11  12
ATOM     12  C   UNL     1      34.567 -19.310 -22.558  0.00  0.00    +0.004 C 
BRANCH  12  13
ATOM     13  C   UNL     1      35.516 -18.176 -22.938  0.00  0.00    +0.047 C 
BRANCH  13  14
ATOM     14  C   UNL     1      34.802 -17.083 -23.721  0.00  0.00    +0.209 C 
BRANCH  14  15
ATOM     15  O   UNL     1      35.363 -15.826 -23.369  0.00  0.00    -0.441 OA
BRANCH  15  17
ATOM     16  O   UNL     1      34.544 -15.198 -21.314  0.00  0.00    -0.238 OA
ATOM     17  C   UNL     1      34.614 -15.045 -22.528  0.00  0.00    +0.366 C 
BRANCH  17  18
ATOM     18  S   UNL     1      33.717 -13.748 -23.317  0.00  0.00    -0.061 S 
ATOM     19  H   UNL     1      34.510 -13.148 -24.245  0.00  0.00    +0.113 HD
ENDBRANCH  17  18
ENDBRANCH  15  17
ENDBRANCH  14  15
ENDBRANCH  13  14
ENDBRANCH  12  13
ENDBRANCH  11  12
ENDBRANCH   1  11
TORSDOF 14
ENDMDL
MODEL 6
REMARK VINA RESULT:      -6.6      5.748      8.927
REMARK  Name = 24778468
REMARK  14 active torsions:
REMARK  status: ('A' for Active; 'I' for Inactive)
REMARK    1  A    between atoms: C_1  and  C_2
REMARK    2  A    between atoms: C_1  and  C_11
REMARK    3  A    between atoms: C_2  and  C_3
REMARK    4  A    between atoms: C_3  and  C_4
REMARK    5  A    between atoms: C_4  and  C_5
REMARK    6  A    between atoms: C_5  and  C_6
REMARK    7  A    between atoms: C_6  and  C_8
REMARK    8  A    between atoms: C_8  and  O_9
REMARK    9  A    between atoms: C_11  and  C_12
REMARK   10  A    between atoms: C_12  and  C_13
REMARK   11  A    between atoms: C_13  and  C_14
REMARK   12  A    between atoms: C_14  and  O_15
REMARK   13  A    between atoms: O_15  and  C_17
REMARK   14  A    between atoms: C_17  and  S_18
REMARK                            x       y       z     vdW  Elec       q    Type
REMARK                         _______ _______ _______ _____ _____    ______ ____
ROOT
ATOM      1  C   UNL     1      34.991 -21.968 -18.872  0.00  0.00    +0.000 C 
ENDROOT
BRANCH   1   2
ATOM      2  C   UNL     1      34.403 -21.028 -19.926  0.00  0.00    +0.000 C 
BRANCH   2   3
ATOM      3  C   UNL     1      35.478 -20.112 -20.516  0.00  0.00    +0.000 C 
BRANCH   3   4
ATOM      4  C   UNL     1      34.852 -18.961 -21.305  0.00  0.00    +0.001 C 
BRANCH   4   5
ATOM      5  C   UNL     1      35.614 -18.612 -22.588  0.00  0.00    +0.012 C 
BRANCH   5   6
ATOM      6  C   UNL     1      34.846 -18.856 -23.882  0.00  0.00    +0.109 C 
BRANCH   6   8
ATOM      7  O   UNL     1      33.961 -17.503 -25.684  0.00  0.00    -0.250 OA
ATOM      8  C   UNL     1      34.690 -17.606 -24.707  0.00  0.00    +0.314 C 
BRANCH   8   9
ATOM      9  O   UNL     1      35.466 -16.603 -24.229  0.00  0.00    -0.480 OA
ATOM     10  H   UNL     1      35.403 -15.745 -24.600  0.00  0.00    +0.295 HD
ENDBRANCH   8   9
ENDBRANCH   6   8
ENDBRANCH   5   6
ENDBRANCH   4   5
ENDBRANCH   3   4
ENDBRANCH   2   3
ENDBRANCH   1   2
BRANCH   1  11
ATOM     11  C   UNL     1      36.440 -21.599 -18.544  0.00  0.00    +0.000 C 
BRANCH  11  12
ATOM     12  C   UNL     1      36.776 -21.911 -17.085  0.00  0.00    +0.004 C 
BRANCH  12  13
ATOM     13  C   UNL     1      35.645 -22.681 -16.407  0.00  0.00    +0.047 C 
BRANCH  13  14
ATOM     14  C   UNL     1      36.129 -23.409 -15.160  0.00  0.00    +0.209 C 
BRANCH  14  15
ATOM     15  O   UNL     1      37.001 -24.459 -15.551  0.00  0.00    -0.441 OA
BRANCH  15  17
ATOM     16  O   UNL     1      36.130 -26.581 -15.714  0.00  0.00    -0.238 OA
ATOM     17  C   UNL     1      36.699 -25.707 -15.071  0.00  0.00    +0.366 C 
BRANCH  17  18
ATOM     18  S   UNL     1      37.194 -26.003 -13.406  0.00  0.00    -0.061 S 
ATOM     19  H   UNL     1      38.309 -26.782 -13.396  0.00  0.00    +0.113 HD
ENDBRANCH  17  18
ENDBRANCH  15  17
ENDBRANCH  14  15
ENDBRANCH  13  14
ENDBRANCH  12  13
ENDBRANCH  11  12
ENDBRANCH   1  11
TORSDOF 14
ENDMDL
MODEL 7
REMARK VINA RESULT:      -6.5      4.267      6.175
REMARK  Name = 24778468
REMARK  14 active torsions:
REMARK  status: ('A' for Active; 'I' for Inactive)
REMARK    1  A    between atoms: C_1  and  C_2
REMARK    2  A    between atoms: C_1  and  C_11
REMARK    3  A    between atoms: C_2  and  C_3
REMARK    4  A    between atoms: C_3  and  C_4
REMARK    5  A    between atoms: C_4  and  C_5
REMARK    6  A    between atoms: C_5  and  C_6
REMARK    7  A    between atoms: C_6  and  C_8
REMARK    8  A    between atoms: C_8  and  O_9
REMARK    9  A    between atoms: C_11  and  C_12
REMARK   10  A    between atoms: C_12  and  C_13
REMARK   11  A    between atoms: C_13  and  C_14
REMARK   12  A    between atoms: C_14  and  O_15
REMARK   13  A    between atoms: O_15  and  C_17
REMARK   14  A    between atoms: C_17  and  S_18
REMARK                            x       y       z     vdW  Elec       q    Type
REMARK                         _______ _______ _______ _____ _____    ______ ____
ROOT
ATOM      1  C   UNL     1      35.241 -18.201 -23.052  0.00  0.00    +0.000 C 
ENDROOT
BRANCH   1   2
ATOM      2  C   UNL     1      34.503 -19.424 -22.505  0.00  0.00    +0.000 C 
BRANCH   2   3
ATOM      3  C   UNL     1      34.328 -19.335 -20.987  0.00  0.00    +0.000 C 
BRANCH   3   4
ATOM      4  C   UNL     1      33.146 -20.183 -20.515  0.00  0.00    +0.001 C 
BRANCH   4   5
ATOM      5  C   UNL     1      33.538 -21.277 -19.516  0.00  0.00    +0.012 C 
BRANCH   5   6
ATOM      6  C   UNL     1      34.929 -21.868 -19.718  0.00  0.00    +0.109 C 
BRANCH   6   8
ATOM      7  O   UNL     1      36.698 -20.978 -18.326  0.00  0.00    -0.250 OA
ATOM      8  C   UNL     1      35.783 -21.773 -18.481  0.00  0.00    +0.314 C 
BRANCH   8   9
ATOM      9  O   UNL     1      35.407 -22.690 -17.554  0.00  0.00    -0.480 OA
ATOM     10  H   UNL     1      36.057 -23.176 -17.087  0.00  0.00    +0.295 HD
ENDBRANCH   8   9
ENDBRANCH   6   8
ENDBRANCH   5   6
ENDBRANCH   4   5
ENDBRANCH   3   4
ENDBRANCH   2   3
ENDBRANCH   1   2
BRANCH   1  11
ATOM     11  C   UNL     1      34.700 -17.792 -24.424  0.00  0.00    +0.000 C 
BRANCH  11  12
ATOM     12  C   UNL     1      34.921 -16.302 -24.688  0.00  0.00    +0.004 C 
BRANCH  12  13
ATOM     13  C   UNL     1      33.680 -15.485 -24.334  0.00  0.00    +0.047 C 
BRANCH  13  14
ATOM     14  C   UNL     1      34.022 -14.299 -23.443  0.00  0.00    +0.209 C 
BRANCH  14  15
ATOM     15  O   UNL     1      34.924 -14.729 -22.433  0.00  0.00    -0.441 OA
BRANCH  15  17
ATOM     16  O   UNL     1      34.898 -15.677 -20.339  0.00  0.00    -0.238 OA
ATOM     17  C   UNL     1      34.378 -14.980 -21.202  0.00  0.00    +0.366 C 
BRANCH  17  18
ATOM     18  S   UNL     1      32.819 -14.211 -20.909  0.00  0.00    -0.061 S 
ATOM     19  H   UNL     1      31.820 -15.095 -21.178  0.00  0.00    +0.113 HD
ENDBRANCH  17  18
ENDBRANCH  15  17
ENDBRANCH  14  15
ENDBRANCH  13  14
ENDBRANCH  12  13
ENDBRANCH  11  12
ENDBRANCH   1  11
TORSDOF 14
ENDMDL
MODEL 8
REMARK VINA RESULT:      -6.5      4.910      8.556
REMARK  Name = 24778468
REMARK  14 active torsions:
REMARK  status: ('A' for Active; 'I' for Inactive)
REMARK    1  A    between atoms: C_1  and  C_2
REMARK    2  A    between atoms: C_1  and  C_11
REMARK    3  A    between atoms: C_2  and  C_3
REMARK    4  A    between atoms: C_3  and  C_4
REMARK    5  A    between atoms: C_4  and  C_5
REMARK    6  A    between atoms: C_5  and  C_6
REMARK    7  A    between atoms: C_6  and  C_8
REMARK    8  A    between atoms: C_8  and  O_9
REMARK    9  A    between atoms: C_11  and  C_12
REMARK   10  A    between atoms: C_12  and  C_13
REMARK   11  A    between atoms: C_13  and  C_14
REMARK   12  A    between atoms: C_14  and  O_15
REMARK   13  A    between atoms: O_15  and  C_17
REMARK   14  A    between atoms: C_17  and  S_18
REMARK                            x       y       z     vdW  Elec       q    Type
REMARK                         _______ _______ _______ _____ _____    ______ ____
ROOT
ATOM      1  C   UNL     1      33.839 -22.320 -19.012  0.00  0.00    +0.000 C 
ENDROOT
BRANCH   1   2
ATOM      2  C   UNL     1      32.999 -21.134 -19.487  0.00  0.00    +0.000 C 
BRANCH   2   3
ATOM      3  C   UNL     1      33.751 -20.300 -20.527  0.00  0.00    +0.000 C 
BRANCH   3   4
ATOM      4  C   UNL     1      35.265 -20.428 -20.350  0.00  0.00    +0.001 C 
BRANCH   4   5
ATOM      5  C   UNL     1      36.053 -19.263 -20.959  0.00  0.00    +0.012 C 
BRANCH   5   6
ATOM      6  C   UNL     1      35.328 -18.499 -22.062  0.00  0.00    +0.109 C 
BRANCH   6   8
ATOM      7  O   UNL     1      35.068 -16.154 -22.597  0.00  0.00    -0.250 OA
ATOM      8  C   UNL     1      35.192 -17.031 -21.756  0.00  0.00    +0.314 C 
BRANCH   8   9
ATOM      9  O   UNL     1      35.229 -16.803 -20.419  0.00  0.00    -0.480 OA
ATOM     10  H   UNL     1      35.872 -17.231 -19.889  0.00  0.00    +0.295 HD
ENDBRANCH   8   9
ENDBRANCH   6   8
ENDBRANCH   5   6
ENDBRANCH   4   5
ENDBRANCH   3   4
ENDBRANCH   2   3
ENDBRANCH   1   2
BRANCH   1  11
ATOM     11  C   UNL     1      33.299 -22.894 -17.700  0.00  0.00    +0.000 C 
BRANCH  11  12
ATOM     12  C   UNL     1      34.421 -23.109 -16.683  0.00  0.00    +0.004 C 
BRANCH  12  13
ATOM     13  C   UNL     1      33.881 -23.672 -15.370  0.00  0.00    +0.047 C 
BRANCH  13  14
ATOM     14  C   UNL     1      34.965 -24.389 -14.578  0.00  0.00    +0.209 C 
BRANCH  14  15
ATOM     15  O   UNL     1      35.955 -24.864 -15.480  0.00  0.00    -0.441 OA
BRANCH  15  17
ATOM     16  O   UNL     1      36.389 -27.063 -15.989  0.00  0.00    -0.238 OA
ATOM     17  C   UNL     1      36.460 -26.111 -15.221  0.00  0.00    +0.366 C 
BRANCH  17  18
ATOM     18  S   UNL     1      37.254 -26.283 -13.656  0.00  0.00    -0.061 S 
ATOM     19  H   UNL     1      36.911 -25.237 -12.857  0.00  0.00    +0.113 HD
ENDBRANCH  17  18
ENDBRANCH  15  17
ENDBRANCH  14  15
ENDBRANCH  13  14
ENDBRANCH  12  13
ENDBRANCH  11  12
ENDBRANCH   1  11
TORSDOF 14
ENDMDL
MODEL 9
REMARK VINA RESULT:      -6.5      4.082      8.775
REMARK  Name = 24778468
REMARK  14 active torsions:
REMARK  status: ('A' for Active; 'I' for Inactive)
REMARK    1  A    between atoms: C_1  and  C_2
REMARK    2  A    between atoms: C_1  and  C_11
REMARK    3  A    between atoms: C_2  and  C_3
REMARK    4  A    between atoms: C_3  and  C_4
REMARK    5  A    between atoms: C_4  and  C_5
REMARK    6  A    between atoms: C_5  and  C_6
REMARK    7  A    between atoms: C_6  and  C_8
REMARK    8  A    between atoms: C_8  and  O_9
REMARK    9  A    between atoms: C_11  and  C_12
REMARK   10  A    between atoms: C_12  and  C_13
REMARK   11  A    between atoms: C_13  and  C_14
REMARK   12  A    between atoms: C_14  and  O_15
REMARK   13  A    between atoms: O_15  and  C_17
REMARK   14  A    between atoms: C_17  and  S_18
REMARK                            x       y       z     vdW  Elec       q    Type
REMARK                         _______ _______ _______ _____ _____    ______ ____
ROOT
ATOM      1  C   UNL     1      35.527 -19.122 -21.460  0.00  0.00    +0.000 C 
ENDROOT
BRANCH   1   2
ATOM      2  C   UNL     1      34.498 -18.863 -22.561  0.00  0.00    +0.000 C 
BRANCH   2   3
ATOM      3  C   UNL     1      35.115 -19.036 -23.951  0.00  0.00    +0.000 C 
BRANCH   3   4
ATOM      4  C   UNL     1      34.288 -18.317 -25.018  0.00  0.00    +0.001 C 
BRANCH   4   5
ATOM      5  C   UNL     1      34.783 -16.900 -25.324  0.00  0.00    +0.012 C 
BRANCH   5   6
ATOM      6  C   UNL     1      33.764 -15.792 -25.075  0.00  0.00    +0.109 C 
BRANCH   6   8
ATOM      7  O   UNL     1      33.049 -14.506 -23.154  0.00  0.00    -0.250 OA
ATOM      8  C   UNL     1      33.913 -15.164 -23.715  0.00  0.00    +0.314 C 
BRANCH   8   9
ATOM      9  O   UNL     1      35.136 -15.421 -23.187  0.00  0.00    -0.480 OA
ATOM     10  H   UNL     1      35.312 -15.212 -22.291  0.00  0.00    +0.295 HD
ENDBRANCH   8   9
ENDBRANCH   6   8
ENDBRANCH   5   6
ENDBRANCH   4   5
ENDBRANCH   3   4
ENDBRANCH   2   3
ENDBRANCH   1   2
BRANCH   1  11
ATOM     11  C   UNL     1      35.068 -20.242 -20.523  0.00  0.00    +0.000 C 
BRANCH  11  12
ATOM     12  C   UNL     1      33.542 -20.313 -20.446  0.00  0.00    +0.004 C 
BRANCH  12  13
ATOM     13  C   UNL     1      33.084 -21.379 -19.453  0.00  0.00    +0.047 C 
BRANCH  13  14
ATOM     14  C   UNL     1      34.183 -22.395 -19.173  0.00  0.00    +0.209 C 
BRANCH  14  15
ATOM     15  O   UNL     1      33.615 -23.511 -18.501  0.00  0.00    -0.441 OA
BRANCH  15  17
ATOM     16  O   UNL     1      34.691 -23.576 -16.470  0.00  0.00    -0.238 OA
ATOM     17  C   UNL     1      33.664 -23.481 -17.132  0.00  0.00    +0.366 C 
BRANCH  17  18
ATOM     18  S   UNL     1      32.104 -23.288 -16.336  0.00  0.00    -0.061 S 
ATOM     19  H   UNL     1      31.920 -21.980 -16.008  0.00  0.00    +0.113 HD
ENDBRANCH  17  18
ENDBRANCH  15  17
ENDBRANCH  14  15
ENDBRANCH  13  14
ENDBRANCH  12  13
ENDBRANCH  11  12
ENDBRANCH   1  11
TORSDOF 14
ENDMDL
