MODEL 1
REMARK VINA RESULT:      -8.8      0.000      0.000
REMARK  Name = 2187
REMARK  6 active torsions:
REMARK  status: ('A' for Active; 'I' for Inactive)
REMARK    1  A    between atoms: C_1  and  C_7
REMARK    2  A    between atoms: C_2  and  C_12
REMARK    3  A    between atoms: C_4  and  C_17
REMARK    4  A    between atoms: C_7  and  C_11
REMARK    5  A    between atoms: C_12  and  C_16
REMARK    6  A    between atoms: C_17  and  N_18
REMARK                            x       y       z     vdW  Elec       q    Type
REMARK                         _______ _______ _______ _____ _____    ______ ____
ROOT
ATOM      1  C   UNL     1      33.818 -22.831 -17.511  0.00  0.00    -0.010 C 
ATOM      2  C   UNL     1      32.166 -23.496 -15.878  0.00  0.00    -0.010 C 
ATOM      3  C   UNL     1      32.484 -23.029 -17.153  0.00  0.00    -0.007 C 
ATOM      4  C   UNL     1      34.515 -23.566 -15.317  0.00  0.00    -0.001 C 
ATOM      5  C   UNL     1      34.833 -23.099 -16.592  0.00  0.00    -0.006 C 
ATOM      6  C   UNL     1      33.181 -23.764 -14.960  0.00  0.00    -0.006 C 
ENDROOT
BRANCH   1   7
ATOM      7  C   UNL     1      34.159 -22.331 -18.873  0.00  0.00    +0.098 C 
ATOM      8  C   UNL     1      33.157 -21.294 -19.483  0.00  0.00    +0.020 C 
ATOM      9  C   UNL     1      34.221 -23.504 -19.900  0.00  0.00    +0.020 C 
BRANCH   7  11
ATOM     10  N   UNL     1      36.519 -21.099 -18.919  0.00  0.00    -0.196 NA
ATOM     11  C   UNL     1      35.497 -21.649 -18.891  0.00  0.00    +0.075 C 
ENDBRANCH   7  11
ENDBRANCH   1   7
BRANCH   2  12
ATOM     12  C   UNL     1      30.740 -23.709 -15.496  0.00  0.00    +0.098 C 
ATOM     13  C   UNL     1      30.369 -23.321 -14.027  0.00  0.00    +0.020 C 
ATOM     14  C   UNL     1      30.341 -25.209 -15.647  0.00  0.00    +0.020 C 
BRANCH  12  16
ATOM     15  N   UNL     1      29.074 -22.308 -17.031  0.00  0.00    -0.196 NA
ATOM     16  C   UNL     1      29.812 -22.908 -16.365  0.00  0.00    +0.075 C 
ENDBRANCH  12  16
ENDBRANCH   2  12
BRANCH   4  17
ATOM     17  C   UNL     1      35.601 -23.851 -14.335  0.00  0.00    +0.144 C 
BRANCH  17  18
ATOM     18  N   UNL     1      36.392 -25.025 -14.720  0.00  0.00    -0.186 N 
ATOM     19  N   UNL     1      35.798 -26.064 -15.295  0.00  0.00    -0.154 NA
ATOM     20  N   UNL     1      38.048 -26.376 -15.032  0.00  0.00    -0.203 NA
ATOM     21  C   UNL     1      37.716 -25.197 -14.560  0.00  0.00    +0.186 C 
ATOM     22  C   UNL     1      36.850 -26.866 -15.467  0.00  0.00    +0.218 C 
ENDBRANCH  17  18
ENDBRANCH   4  17
TORSDOF 6
ENDMDL
MODEL 2
REMARK VINA RESULT:      -8.8      0.050      4.422
REMARK  Name = 2187
REMARK  6 active torsions:
REMARK  status: ('A' for Active; 'I' for Inactive)
REMARK    1  A    between atoms: C_1  and  C_7
REMARK    2  A    between atoms: C_2  and  C_12
REMARK    3  A    between atoms: C_4  and  C_17
REMARK    4  A    between atoms: C_7  and  C_11
REMARK    5  A    between atoms: C_12  and  C_16
REMARK    6  A    between atoms: C_17  and  N_18
REMARK                            x       y       z     vdW  Elec       q    Type
REMARK                         _______ _______ _______ _____ _____    ______ ____
ROOT
ATOM      1  C   UNL     1      32.157 -23.457 -15.876  0.00  0.00    -0.010 C 
ATOM      2  C   UNL     1      33.808 -22.812 -17.516  0.00  0.00    -0.010 C 
ATOM      3  C   UNL     1      32.474 -22.999 -17.154  0.00  0.00    -0.007 C 
ATOM      4  C   UNL     1      34.507 -23.543 -15.322  0.00  0.00    -0.001 C 
ATOM      5  C   UNL     1      33.173 -23.730 -14.960  0.00  0.00    -0.006 C 
ATOM      6  C   UNL     1      34.825 -23.084 -16.600  0.00  0.00    -0.006 C 
ENDROOT
BRANCH   1   7
ATOM      7  C   UNL     1      30.731 -23.658 -15.488  0.00  0.00    +0.098 C 
ATOM      8  C   UNL     1      30.377 -23.306 -14.005  0.00  0.00    +0.020 C 
ATOM      9  C   UNL     1      30.306 -25.148 -15.675  0.00  0.00    +0.020 C 
BRANCH   7  11
ATOM     10  N   UNL     1      29.078 -22.169 -16.952  0.00  0.00    -0.196 NA
ATOM     11  C   UNL     1      29.808 -22.820 -16.327  0.00  0.00    +0.075 C 
ENDBRANCH   7  11
ENDBRANCH   1   7
BRANCH   2  12
ATOM     12  C   UNL     1      34.148 -22.321 -18.883  0.00  0.00    +0.098 C 
ATOM     13  C   UNL     1      33.148 -21.288 -19.498  0.00  0.00    +0.020 C 
ATOM     14  C   UNL     1      34.210 -23.502 -19.900  0.00  0.00    +0.020 C 
BRANCH  12  16
ATOM     15  N   UNL     1      36.509 -21.088 -18.932  0.00  0.00    -0.196 NA
ATOM     16  C   UNL     1      35.488 -21.639 -18.905  0.00  0.00    +0.075 C 
ENDBRANCH  12  16
ENDBRANCH   2  12
BRANCH   4  17
ATOM     17  C   UNL     1      35.593 -23.836 -14.343  0.00  0.00    +0.144 C 
BRANCH  17  18
ATOM     18  N   UNL     1      36.376 -25.014 -14.730  0.00  0.00    -0.186 N 
ATOM     19  N   UNL     1      35.774 -26.048 -15.308  0.00  0.00    -0.154 NA
ATOM     20  N   UNL     1      38.021 -26.378 -15.045  0.00  0.00    -0.203 NA
ATOM     21  C   UNL     1      37.698 -25.197 -14.570  0.00  0.00    +0.186 C 
ATOM     22  C   UNL     1      36.820 -26.857 -15.481  0.00  0.00    +0.218 C 
ENDBRANCH  17  18
ENDBRANCH   4  17
TORSDOF 6
ENDMDL
MODEL 3
REMARK VINA RESULT:      -8.7      1.580      2.067
REMARK  Name = 2187
REMARK  6 active torsions:
REMARK  status: ('A' for Active; 'I' for Inactive)
REMARK    1  A    between atoms: C_1  and  C_7
REMARK    2  A    between atoms: C_2  and  C_12
REMARK    3  A    between atoms: C_4  and  C_17
REMARK    4  A    between atoms: C_7  and  C_11
REMARK    5  A    between atoms: C_12  and  C_16
REMARK    6  A    between atoms: C_17  and  N_18
REMARK                            x       y       z     vdW  Elec       q    Type
REMARK                         _______ _______ _______ _____ _____    ______ ____
ROOT
ATOM      1  C   UNL     1      33.798 -22.969 -17.298  0.00  0.00    -0.010 C 
ATOM      2  C   UNL     1      32.199 -23.569 -15.590  0.00  0.00    -0.010 C 
ATOM      3  C   UNL     1      32.480 -23.197 -16.905  0.00  0.00    -0.007 C 
ATOM      4  C   UNL     1      34.555 -23.486 -15.063  0.00  0.00    -0.001 C 
ATOM      5  C   UNL     1      34.836 -23.113 -16.377  0.00  0.00    -0.006 C 
ATOM      6  C   UNL     1      33.237 -23.714 -14.669  0.00  0.00    -0.006 C 
ENDROOT
BRANCH   1   7
ATOM      7  C   UNL     1      34.099 -22.570 -18.703  0.00  0.00    +0.098 C 
ATOM      8  C   UNL     1      35.493 -21.895 -18.930  0.00  0.00    +0.020 C 
ATOM      9  C   UNL     1      33.048 -21.543 -19.228  0.00  0.00    +0.020 C 
BRANCH   7  11
ATOM     10  N   UNL     1      34.083 -24.663 -20.348  0.00  0.00    -0.196 NA
ATOM     11  C   UNL     1      34.073 -23.752 -19.630  0.00  0.00    +0.075 C 
ENDBRANCH   7  11
ENDBRANCH   1   7
BRANCH   2  12
ATOM     12  C   UNL     1      30.789 -23.814 -15.169  0.00  0.00    +0.098 C 
ATOM     13  C   UNL     1      30.143 -25.133 -15.705  0.00  0.00    +0.020 C 
ATOM     14  C   UNL     1      29.855 -22.662 -15.652  0.00  0.00    +0.020 C 
BRANCH  12  16
ATOM     15  N   UNL     1      30.592 -23.929 -12.515  0.00  0.00    -0.196 NA
ATOM     16  C   UNL     1      30.668 -23.892 -13.673  0.00  0.00    +0.075 C 
ENDBRANCH  12  16
ENDBRANCH   2  12
BRANCH   4  17
ATOM     17  C   UNL     1      35.665 -23.638 -14.078  0.00  0.00    +0.144 C 
BRANCH  17  18
ATOM     18  N   UNL     1      36.317 -24.948 -14.186  0.00  0.00    -0.186 N 
ATOM     19  N   UNL     1      36.424 -25.538 -15.371  0.00  0.00    -0.154 NA
ATOM     20  N   UNL     1      37.341 -26.783 -13.687  0.00  0.00    -0.203 NA
ATOM     21  C   UNL     1      36.853 -25.672 -13.188  0.00  0.00    +0.186 C 
ATOM     22  C   UNL     1      37.056 -26.658 -15.016  0.00  0.00    +0.218 C 
ENDBRANCH  17  18
ENDBRANCH   4  17
TORSDOF 6
ENDMDL
MODEL 4
REMARK VINA RESULT:      -8.6      1.282      4.387
REMARK  Name = 2187
REMARK  6 active torsions:
REMARK  status: ('A' for Active; 'I' for Inactive)
REMARK    1  A    between atoms: C_1  and  C_7
REMARK    2  A    between atoms: C_2  and  C_12
REMARK    3  A    between atoms: C_4  and  C_17
REMARK    4  A    between atoms: C_7  and  C_11
REMARK    5  A    between atoms: C_12  and  C_16
REMARK    6  A    between atoms: C_17  and  N_18
REMARK                            x       y       z     vdW  Elec       q    Type
REMARK                         _______ _______ _______ _____ _____    ______ ____
ROOT
ATOM      1  C   UNL     1      32.263 -23.304 -15.890  0.00  0.00    -0.010 C 
ATOM      2  C   UNL     1      33.941 -22.805 -17.554  0.00  0.00    -0.010 C 
ATOM      3  C   UNL     1      32.600 -22.910 -17.184  0.00  0.00    -0.007 C 
ATOM      4  C   UNL     1      34.607 -23.490 -15.336  0.00  0.00    -0.001 C 
ATOM      5  C   UNL     1      33.266 -23.595 -14.966  0.00  0.00    -0.006 C 
ATOM      6  C   UNL     1      34.944 -23.095 -16.630  0.00  0.00    -0.006 C 
ENDROOT
BRANCH   1   7
ATOM      7  C   UNL     1      30.829 -23.418 -15.494  0.00  0.00    +0.098 C 
ATOM      8  C   UNL     1      29.794 -22.907 -16.550  0.00  0.00    +0.020 C 
ATOM      9  C   UNL     1      30.541 -22.599 -14.198  0.00  0.00    +0.020 C 
BRANCH   7  11
ATOM     10  N   UNL     1      30.150 -25.940 -14.975  0.00  0.00    -0.196 NA
ATOM     11  C   UNL     1      30.446 -24.844 -15.218  0.00  0.00    +0.075 C 
ENDBRANCH   7  11
ENDBRANCH   1   7
BRANCH   2  12
ATOM     12  C   UNL     1      34.302 -22.383 -18.938  0.00  0.00    +0.098 C 
ATOM     13  C   UNL     1      34.287 -23.515 -20.016  0.00  0.00    +0.020 C 
ATOM     14  C   UNL     1      35.741 -21.783 -18.980  0.00  0.00    +0.020 C 
BRANCH  12  16
ATOM     15  N   UNL     1      32.652 -20.496 -19.842  0.00  0.00    -0.196 NA
ATOM     16  C   UNL     1      33.362 -21.330 -19.455  0.00  0.00    +0.075 C 
ENDBRANCH  12  16
ENDBRANCH   2  12
BRANCH   4  17
ATOM     17  C   UNL     1      35.679 -23.802 -14.347  0.00  0.00    +0.144 C 
BRANCH  17  18
ATOM     18  N   UNL     1      36.435 -25.003 -14.720  0.00  0.00    -0.186 N 
ATOM     19  N   UNL     1      35.812 -26.025 -15.295  0.00  0.00    -0.154 NA
ATOM     20  N   UNL     1      38.049 -26.408 -15.014  0.00  0.00    -0.203 NA
ATOM     21  C   UNL     1      37.751 -25.217 -14.550  0.00  0.00    +0.186 C 
ATOM     22  C   UNL     1      36.839 -26.861 -15.455  0.00  0.00    +0.218 C 
ENDBRANCH  17  18
ENDBRANCH   4  17
TORSDOF 6
ENDMDL
MODEL 5
REMARK VINA RESULT:      -8.5      1.358      4.494
REMARK  Name = 2187
REMARK  6 active torsions:
REMARK  status: ('A' for Active; 'I' for Inactive)
REMARK    1  A    between atoms: C_1  and  C_7
REMARK    2  A    between atoms: C_2  and  C_12
REMARK    3  A    between atoms: C_4  and  C_17
REMARK    4  A    between atoms: C_7  and  C_11
REMARK    5  A    between atoms: C_12  and  C_16
REMARK    6  A    between atoms: C_17  and  N_18
REMARK                            x       y       z     vdW  Elec       q    Type
REMARK                         _______ _______ _______ _____ _____    ______ ____
ROOT
ATOM      1  C   UNL     1      32.233 -23.303 -15.806  0.00  0.00    -0.010 C 
ATOM      2  C   UNL     1      33.897 -22.857 -17.499  0.00  0.00    -0.010 C 
ATOM      3  C   UNL     1      32.559 -22.959 -17.118  0.00  0.00    -0.007 C 
ATOM      4  C   UNL     1      34.582 -23.443 -15.258  0.00  0.00    -0.001 C 
ATOM      5  C   UNL     1      33.244 -23.545 -14.877  0.00  0.00    -0.006 C 
ATOM      6  C   UNL     1      34.908 -23.099 -16.569  0.00  0.00    -0.006 C 
ENDROOT
BRANCH   1   7
ATOM      7  C   UNL     1      30.803 -23.413 -15.398  0.00  0.00    +0.098 C 
ATOM      8  C   UNL     1      29.761 -22.875 -16.433  0.00  0.00    +0.020 C 
ATOM      9  C   UNL     1      30.534 -22.617 -14.083  0.00  0.00    +0.020 C 
BRANCH   7  11
ATOM     10  N   UNL     1      30.110 -25.940 -14.919  0.00  0.00    -0.196 NA
ATOM     11  C   UNL     1      30.412 -24.842 -15.145  0.00  0.00    +0.075 C 
ENDBRANCH   7  11
ENDBRANCH   1   7
BRANCH   2  12
ATOM     12  C   UNL     1      34.247 -22.489 -18.902  0.00  0.00    +0.098 C 
ATOM     13  C   UNL     1      35.652 -21.832 -19.097  0.00  0.00    +0.020 C 
ATOM     14  C   UNL     1      33.222 -21.465 -19.481  0.00  0.00    +0.020 C 
BRANCH  12  16
ATOM     15  N   UNL     1      34.207 -24.615 -20.506  0.00  0.00    -0.196 NA
ATOM     16  C   UNL     1      34.240 -23.691 -19.804  0.00  0.00    +0.075 C 
ENDBRANCH  12  16
ENDBRANCH   2  12
BRANCH   4  17
ATOM     17  C   UNL     1      35.663 -23.704 -14.264  0.00  0.00    +0.144 C 
BRANCH  17  18
ATOM     18  N   UNL     1      36.469 -24.874 -14.626  0.00  0.00    -0.186 N 
ATOM     19  N   UNL     1      35.892 -25.924 -15.200  0.00  0.00    -0.154 NA
ATOM     20  N   UNL     1      38.140 -26.214 -14.903  0.00  0.00    -0.203 NA
ATOM     21  C   UNL     1      37.792 -25.034 -14.447  0.00  0.00    +0.186 C 
ATOM     22  C   UNL     1      36.953 -26.719 -15.349  0.00  0.00    +0.218 C 
ENDBRANCH  17  18
ENDBRANCH   4  17
TORSDOF 6
ENDMDL
MODEL 6
REMARK VINA RESULT:      -8.5      1.512      2.117
REMARK  Name = 2187
REMARK  6 active torsions:
REMARK  status: ('A' for Active; 'I' for Inactive)
REMARK    1  A    between atoms: C_1  and  C_7
REMARK    2  A    between atoms: C_2  and  C_12
REMARK    3  A    between atoms: C_4  and  C_17
REMARK    4  A    between atoms: C_7  and  C_11
REMARK    5  A    between atoms: C_12  and  C_16
REMARK    6  A    between atoms: C_17  and  N_18
REMARK                            x       y       z     vdW  Elec       q    Type
REMARK                         _______ _______ _______ _____ _____    ______ ____
ROOT
ATOM      1  C   UNL     1      33.998 -22.848 -17.394  0.00  0.00    -0.010 C 
ATOM      2  C   UNL     1      32.418 -23.488 -15.683  0.00  0.00    -0.010 C 
ATOM      3  C   UNL     1      32.689 -23.124 -17.002  0.00  0.00    -0.007 C 
ATOM      4  C   UNL     1      34.766 -23.299 -15.149  0.00  0.00    -0.001 C 
ATOM      5  C   UNL     1      35.037 -22.935 -16.468  0.00  0.00    -0.006 C 
ATOM      6  C   UNL     1      33.457 -23.576 -14.756  0.00  0.00    -0.006 C 
ENDROOT
BRANCH   1   7
ATOM      7  C   UNL     1      34.288 -22.458 -18.804  0.00  0.00    +0.098 C 
ATOM      8  C   UNL     1      34.234 -23.619 -19.852  0.00  0.00    +0.020 C 
ATOM      9  C   UNL     1      35.718 -21.847 -18.932  0.00  0.00    +0.020 C 
BRANCH   7  11
ATOM     10  N   UNL     1      32.560 -20.620 -19.657  0.00  0.00    -0.196 NA
ATOM     11  C   UNL     1      33.314 -21.427 -19.301  0.00  0.00    +0.075 C 
ENDBRANCH   7  11
ENDBRANCH   1   7
BRANCH   2  12
ATOM     12  C   UNL     1      31.018 -23.785 -15.263  0.00  0.00    +0.098 C 
ATOM     13  C   UNL     1      30.453 -25.169 -15.723  0.00  0.00    +0.020 C 
ATOM     14  C   UNL     1      30.029 -22.720 -15.828  0.00  0.00    +0.020 C 
BRANCH  12  16
ATOM     15  N   UNL     1      30.774 -23.742 -12.611  0.00  0.00    -0.196 NA
ATOM     16  C   UNL     1      30.879 -23.777 -13.766  0.00  0.00    +0.075 C 
ENDBRANCH  12  16
ENDBRANCH   2  12
BRANCH   4  17
ATOM     17  C   UNL     1      35.878 -23.391 -14.158  0.00  0.00    +0.144 C 
BRANCH  17  18
ATOM     18  N   UNL     1      36.830 -24.453 -14.500  0.00  0.00    -0.186 N 
ATOM     19  N   UNL     1      38.135 -24.212 -14.450  0.00  0.00    -0.154 NA
ATOM     20  N   UNL     1      37.663 -26.355 -15.094  0.00  0.00    -0.203 NA
ATOM     21  C   UNL     1      36.541 -25.710 -14.878  0.00  0.00    +0.186 C 
ATOM     22  C   UNL     1      38.605 -25.404 -14.822  0.00  0.00    +0.218 C 
ENDBRANCH  17  18
ENDBRANCH   4  17
TORSDOF 6
ENDMDL
MODEL 7
REMARK VINA RESULT:      -8.3      1.554      5.017
REMARK  Name = 2187
REMARK  6 active torsions:
REMARK  status: ('A' for Active; 'I' for Inactive)
REMARK    1  A    between atoms: C_1  and  C_7
REMARK    2  A    between atoms: C_2  and  C_12
REMARK    3  A    between atoms: C_4  and  C_17
REMARK    4  A    between atoms: C_7  and  C_11
REMARK    5  A    between atoms: C_12  and  C_16
REMARK    6  A    between atoms: C_17  and  N_18
REMARK                            x       y       z     vdW  Elec       q    Type
REMARK                         _______ _______ _______ _____ _____    ______ ____
ROOT
ATOM      1  C   UNL     1      34.746 -23.371 -15.863  0.00  0.00    -0.010 C 
ATOM      2  C   UNL     1      32.338 -23.290 -16.035  0.00  0.00    -0.010 C 
ATOM      3  C   UNL     1      33.490 -23.402 -15.257  0.00  0.00    -0.007 C 
ATOM      4  C   UNL     1      33.697 -23.116 -18.024  0.00  0.00    -0.001 C 
ATOM      5  C   UNL     1      34.849 -23.229 -17.247  0.00  0.00    -0.006 C 
ATOM      6  C   UNL     1      32.441 -23.147 -17.419  0.00  0.00    -0.006 C 
ENDROOT
BRANCH   1   7
ATOM      7  C   UNL     1      35.978 -23.493 -15.032  0.00  0.00    +0.098 C 
ATOM      8  C   UNL     1      35.784 -23.259 -13.497  0.00  0.00    +0.020 C 
ATOM      9  C   UNL     1      37.057 -22.458 -15.479  0.00  0.00    +0.020 C 
BRANCH   7  11
ATOM     10  N   UNL     1      37.036 -25.927 -15.248  0.00  0.00    -0.196 NA
ATOM     11  C   UNL     1      36.591 -24.859 -15.153  0.00  0.00    +0.075 C 
ENDBRANCH   7  11
ENDBRANCH   1   7
BRANCH   2  12
ATOM     12  C   UNL     1      30.994 -23.321 -15.387  0.00  0.00    +0.098 C 
ATOM     13  C   UNL     1      30.857 -22.483 -14.075  0.00  0.00    +0.020 C 
ATOM     14  C   UNL     1      30.598 -24.779 -14.997  0.00  0.00    +0.020 C 
BRANCH  12  16
ATOM     15  N   UNL     1      29.086 -22.413 -17.009  0.00  0.00    -0.196 NA
ATOM     16  C   UNL     1      29.928 -22.797 -16.307  0.00  0.00    +0.075 C 
ENDBRANCH  12  16
ENDBRANCH   2  12
BRANCH   4  17
ATOM     17  C   UNL     1      33.808 -22.965 -19.504  0.00  0.00    +0.144 C 
BRANCH  17  18
ATOM     18  N   UNL     1      33.847 -21.556 -19.909  0.00  0.00    -0.186 N 
ATOM     19  N   UNL     1      32.720 -20.922 -20.209  0.00  0.00    -0.154 NA
ATOM     20  N   UNL     1      34.559 -19.578 -20.406  0.00  0.00    -0.203 NA
ATOM     21  C   UNL     1      34.936 -20.775 -20.021  0.00  0.00    +0.186 C 
ATOM     22  C   UNL     1      33.205 -19.716 -20.508  0.00  0.00    +0.218 C 
ENDBRANCH  17  18
ENDBRANCH   4  17
TORSDOF 6
ENDMDL
MODEL 8
REMARK VINA RESULT:      -8.2      1.985      5.503
REMARK  Name = 2187
REMARK  6 active torsions:
REMARK  status: ('A' for Active; 'I' for Inactive)
REMARK    1  A    between atoms: C_1  and  C_7
REMARK    2  A    between atoms: C_2  and  C_12
REMARK    3  A    between atoms: C_4  and  C_17
REMARK    4  A    between atoms: C_7  and  C_11
REMARK    5  A    between atoms: C_12  and  C_16
REMARK    6  A    between atoms: C_17  and  N_18
REMARK                            x       y       z     vdW  Elec       q    Type
REMARK                         _______ _______ _______ _____ _____    ______ ____
ROOT
ATOM      1  C   UNL     1      33.717 -22.905 -17.313  0.00  0.00    -0.010 C 
ATOM      2  C   UNL     1      34.468 -23.726 -15.169  0.00  0.00    -0.010 C 
ATOM      3  C   UNL     1      34.735 -23.402 -16.499  0.00  0.00    -0.007 C 
ATOM      4  C   UNL     1      32.166 -23.059 -15.467  0.00  0.00    -0.001 C 
ATOM      5  C   UNL     1      32.433 -22.734 -16.797  0.00  0.00    -0.006 C 
ATOM      6  C   UNL     1      33.184 -23.555 -14.653  0.00  0.00    -0.006 C 
ENDROOT
BRANCH   1   7
ATOM      7  C   UNL     1      34.001 -22.560 -18.735  0.00  0.00    +0.098 C 
ATOM      8  C   UNL     1      35.376 -21.862 -19.000  0.00  0.00    +0.020 C 
ATOM      9  C   UNL     1      32.923 -21.582 -19.298  0.00  0.00    +0.020 C 
BRANCH   7  11
ATOM     10  N   UNL     1      34.026 -24.718 -20.294  0.00  0.00    -0.196 NA
ATOM     11  C   UNL     1      33.999 -23.781 -19.610  0.00  0.00    +0.075 C 
ENDBRANCH   7  11
ENDBRANCH   1   7
BRANCH   2  12
ATOM     12  C   UNL     1      35.557 -24.257 -14.297  0.00  0.00    +0.098 C 
ATOM     13  C   UNL     1      36.821 -23.346 -14.166  0.00  0.00    +0.020 C 
ATOM     14  C   UNL     1      36.080 -25.626 -14.830  0.00  0.00    +0.020 C 
BRANCH  12  16
ATOM     15  N   UNL     1      34.694 -24.670 -11.811  0.00  0.00    -0.196 NA
ATOM     16  C   UNL     1      35.077 -24.476 -12.890  0.00  0.00    +0.075 C 
ENDBRANCH  12  16
ENDBRANCH   2  12
BRANCH   4  17
ATOM     17  C   UNL     1      30.792 -22.876 -14.916  0.00  0.00    +0.144 C 
BRANCH  17  18
ATOM     18  N   UNL     1      29.759 -23.290 -15.872  0.00  0.00    -0.186 N 
ATOM     19  N   UNL     1      29.178 -22.385 -16.650  0.00  0.00    -0.154 NA
ATOM     20  N   UNL     1      28.382 -24.497 -17.017  0.00  0.00    -0.203 NA
ATOM     21  C   UNL     1      29.299 -24.536 -16.079  0.00  0.00    +0.186 C 
ATOM     22  C   UNL     1      28.341 -23.170 -17.332  0.00  0.00    +0.218 C 
ENDBRANCH  17  18
ENDBRANCH   4  17
TORSDOF 6
ENDMDL
MODEL 9
REMARK VINA RESULT:      -8.2      1.061      5.425
REMARK  Name = 2187
REMARK  6 active torsions:
REMARK  status: ('A' for Active; 'I' for Inactive)
REMARK    1  A    between atoms: C_1  and  C_7
REMARK    2  A    between atoms: C_2  and  C_12
REMARK    3  A    between atoms: C_4  and  C_17
REMARK    4  A    between atoms: C_7  and  C_11
REMARK    5  A    between atoms: C_12  and  C_16
REMARK    6  A    between atoms: C_17  and  N_18
REMARK                            x       y       z     vdW  Elec       q    Type
REMARK                         _______ _______ _______ _____ _____    ______ ____
ROOT
ATOM      1  C   UNL     1      33.550 -22.820 -17.396  0.00  0.00    -0.010 C 
ATOM      2  C   UNL     1      34.246 -23.732 -15.271  0.00  0.00    -0.010 C 
ATOM      3  C   UNL     1      34.541 -23.372 -16.586  0.00  0.00    -0.007 C 
ATOM      4  C   UNL     1      31.968 -22.989 -15.578  0.00  0.00    -0.001 C 
ATOM      5  C   UNL     1      32.264 -22.629 -16.893  0.00  0.00    -0.006 C 
ATOM      6  C   UNL     1      32.960 -23.541 -14.767  0.00  0.00    -0.006 C 
ENDROOT
BRANCH   1   7
ATOM      7  C   UNL     1      33.865 -22.436 -18.803  0.00  0.00    +0.098 C 
ATOM      8  C   UNL     1      32.912 -21.372 -19.442  0.00  0.00    +0.020 C 
ATOM      9  C   UNL     1      33.799 -23.676 -19.748  0.00  0.00    +0.020 C 
BRANCH   7  11
ATOM     10  N   UNL     1      36.308 -21.405 -19.039  0.00  0.00    -0.196 NA
ATOM     11  C   UNL     1      35.245 -21.856 -18.919  0.00  0.00    +0.075 C 
ENDBRANCH   7  11
ENDBRANCH   1   7
BRANCH   2  12
ATOM     12  C   UNL     1      35.307 -24.322 -14.403  0.00  0.00    +0.098 C 
ATOM     13  C   UNL     1      34.867 -24.673 -12.944  0.00  0.00    +0.020 C 
ATOM     14  C   UNL     1      36.512 -23.343 -14.253  0.00  0.00    +0.020 C 
BRANCH  12  16
ATOM     15  N   UNL     1      36.236 -26.589 -15.447  0.00  0.00    -0.196 NA
ATOM     16  C   UNL     1      35.838 -25.604 -14.978  0.00  0.00    +0.075 C 
ENDBRANCH  12  16
ENDBRANCH   2  12
BRANCH   4  17
ATOM     17  C   UNL     1      30.592 -22.786 -15.040  0.00  0.00    +0.144 C 
BRANCH  17  18
ATOM     18  N   UNL     1      29.563 -23.226 -15.989  0.00  0.00    -0.186 N 
ATOM     19  N   UNL     1      28.961 -22.337 -16.771  0.00  0.00    -0.154 NA
ATOM     20  N   UNL     1      28.203 -24.466 -17.120  0.00  0.00    -0.203 NA
ATOM     21  C   UNL     1      29.126 -24.481 -16.186  0.00  0.00    +0.186 C 
ATOM     22  C   UNL     1      28.137 -23.141 -17.444  0.00  0.00    +0.218 C 
ENDBRANCH  17  18
ENDBRANCH   4  17
TORSDOF 6
ENDMDL
