MODEL 1
REMARK VINA RESULT:     -12.5      0.000      0.000
REMARK  Name = 24941249
REMARK  6 active torsions:
REMARK  status: ('A' for Active; 'I' for Inactive)
REMARK    1  A    between atoms: N_1  and  C_13
REMARK    2  A    between atoms: N_2  and  C_26
REMARK    3  A    between atoms: C_14  and  C_19
REMARK    4  A    between atoms: C_19  and  C_20
REMARK    5  A    between atoms: C_20  and  C_23
REMARK    6  A    between atoms: C_26  and  C_28
REMARK                            x       y       z     vdW  Elec       q    Type
REMARK                         _______ _______ _______ _____ _____    ______ ____
ROOT
ATOM      1  N   UNL     1      32.939 -13.892 -23.489  0.00  0.00    -0.230 N 
ATOM      2  N   UNL     1      34.924 -17.822 -21.369  0.00  0.00    -0.316 N 
ATOM      3  N   UNL     1      32.753 -13.524 -24.769  0.00  0.00    -0.169 NA
ATOM      4  N   UNL     1      34.775 -17.531 -23.726  0.00  0.00    -0.229 NA
ATOM      5  C   UNL     1      33.551 -15.106 -23.338  0.00  0.00    +0.088 A 
ATOM      6  C   UNL     1      33.781 -15.563 -24.630  0.00  0.00    +0.052 A 
ATOM      7  C   UNL     1      33.266 -14.545 -25.460  0.00  0.00    +0.082 A 
ATOM      8  C   UNL     1      33.917 -15.827 -22.208  0.00  0.00    +0.053 C 
ATOM      9  C   UNL     1      34.528 -17.040 -22.487  0.00  0.00    +0.130 C 
ATOM     10  C   UNL     1      34.404 -16.799 -24.806  0.00  0.00    +0.103 C 
ATOM     11  C   UNL     1      33.245 -14.508 -26.932  0.00  0.00    +0.054 C 
ATOM     12  H   UNL     1      34.751 -17.474 -20.464  0.00  0.00    +0.148 HD
ENDROOT
BRANCH   1  13
ATOM     13  C   UNL     1      32.514 -13.048 -22.462  0.00  0.00    +0.082 C 
ATOM     14  C   UNL     1      31.796 -10.868 -21.706  0.00  0.00    -0.020 C 
ATOM     15  C   UNL     1      32.222 -11.712 -22.733  0.00  0.00    +0.015 C 
ATOM     16  C   UNL     1      32.380 -13.542 -21.165  0.00  0.00    +0.019 C 
ATOM     17  C   UNL     1      31.662 -11.362 -20.409  0.00  0.00    -0.004 C 
ATOM     18  C   UNL     1      31.954 -12.700 -20.137  0.00  0.00    +0.001 C 
BRANCH  14  19
ATOM     19  C   UNL     1      31.485  -9.439 -21.995  0.00  0.00    +0.036 C 
BRANCH  19  20
ATOM     20  C   UNL     1      32.736  -8.553 -21.955  0.00  0.00    +0.089 C 
BRANCH  20  23
ATOM     21  O   UNL     1      32.244  -6.265 -21.316  0.00  0.00    -0.275 OA
ATOM     22  N   UNL     1      32.935  -7.746 -19.697  0.00  0.00    -0.329 N 
ATOM     23  C   UNL     1      32.604  -7.392 -20.988  0.00  0.00    +0.220 C 
ATOM     24  H   UNL     1      32.889  -7.077 -18.977  0.00  0.00    +0.145 HD
ATOM     25  H   UNL     1      33.218  -8.667 -19.497  0.00  0.00    +0.145 HD
ENDBRANCH  20  23
ENDBRANCH  19  20
ENDBRANCH  14  19
ENDBRANCH   1  13
BRANCH   2  26
ATOM     26  C   UNL     1      35.561 -19.089 -21.506  0.00  0.00    +0.093 C 
ATOM     27  C   UNL     1      37.052 -18.942 -21.207  0.00  0.00    +0.026 C 
BRANCH  26  28
ATOM     28  C   UNL     1      34.880 -20.114 -20.625  0.00  0.00    -0.005 C 
ATOM     29  C   UNL     1      33.491 -20.114 -20.500  0.00  0.00    -0.003 C 
ATOM     30  C   UNL     1      35.641 -21.060 -19.939  0.00  0.00    -0.003 C 
ATOM     31  C   UNL     1      32.863 -21.059 -19.688  0.00  0.00    -0.000 C 
ATOM     32  C   UNL     1      35.014 -22.005 -19.128  0.00  0.00    -0.000 C 
ATOM     33  C   UNL     1      33.624 -22.005 -19.003  0.00  0.00    -0.000 C 
ENDBRANCH  26  28
ENDBRANCH   2  26
TORSDOF 6
ENDMDL
MODEL 2
REMARK VINA RESULT:     -11.4      7.886     13.299
REMARK  Name = 24941249
REMARK  6 active torsions:
REMARK  status: ('A' for Active; 'I' for Inactive)
REMARK    1  A    between atoms: N_1  and  C_13
REMARK    2  A    between atoms: N_2  and  C_26
REMARK    3  A    between atoms: C_14  and  C_19
REMARK    4  A    between atoms: C_19  and  C_20
REMARK    5  A    between atoms: C_20  and  C_23
REMARK    6  A    between atoms: C_26  and  C_28
REMARK                            x       y       z     vdW  Elec       q    Type
REMARK                         _______ _______ _______ _____ _____    ______ ____
ROOT
ATOM      1  N   UNL     1      34.213 -24.163 -13.761  0.00  0.00    -0.230 N 
ATOM      2  N   UNL     1      34.767 -22.242 -18.220  0.00  0.00    -0.316 N 
ATOM      3  N   UNL     1      33.157 -24.651 -13.087  0.00  0.00    -0.169 NA
ATOM      4  N   UNL     1      32.683 -23.011 -17.367  0.00  0.00    -0.229 NA
ATOM      5  C   UNL     1      33.916 -23.714 -15.018  0.00  0.00    +0.088 A 
ATOM      6  C   UNL     1      32.552 -23.929 -15.172  0.00  0.00    +0.052 A 
ATOM      7  C   UNL     1      32.148 -24.506 -13.949  0.00  0.00    +0.082 A 
ATOM      8  C   UNL     1      34.706 -23.149 -16.013  0.00  0.00    +0.053 C 
ATOM      9  C   UNL     1      34.010 -22.823 -17.167  0.00  0.00    +0.130 C 
ATOM     10  C   UNL     1      31.944 -23.565 -16.373  0.00  0.00    +0.103 C 
ATOM     11  C   UNL     1      30.795 -24.939 -13.562  0.00  0.00    +0.054 C 
ATOM     12  H   UNL     1      35.731 -22.099 -18.086  0.00  0.00    +0.148 HD
ENDROOT
BRANCH   1  13
ATOM     13  C   UNL     1      35.471 -24.154 -13.157  0.00  0.00    +0.082 C 
ATOM     14  C   UNL     1      37.676 -25.107 -12.901  0.00  0.00    -0.020 C 
ATOM     15  C   UNL     1      36.419 -25.116 -13.505  0.00  0.00    +0.015 C 
ATOM     16  C   UNL     1      35.780 -23.182 -12.205  0.00  0.00    +0.019 C 
ATOM     17  C   UNL     1      37.986 -24.135 -11.949  0.00  0.00    -0.004 C 
ATOM     18  C   UNL     1      37.038 -23.172 -11.602  0.00  0.00    +0.001 C 
BRANCH  14  19
ATOM     19  C   UNL     1      38.689 -26.136 -13.271  0.00  0.00    +0.036 C 
BRANCH  19  20
ATOM     20  C   UNL     1      40.006 -25.511 -13.748  0.00  0.00    +0.089 C 
BRANCH  20  23
ATOM     21  O   UNL     1      40.721 -26.126 -15.983  0.00  0.00    -0.275 OA
ATOM     22  N   UNL     1      39.344 -24.303 -15.720  0.00  0.00    -0.329 N 
ATOM     23  C   UNL     1      40.079 -25.373 -15.257  0.00  0.00    +0.220 C 
ATOM     24  H   UNL     1      39.313 -24.109 -16.685  0.00  0.00    +0.145 HD
ATOM     25  H   UNL     1      38.850 -23.734 -15.087  0.00  0.00    +0.145 HD
ENDBRANCH  20  23
ENDBRANCH  19  20
ENDBRANCH  14  19
ENDBRANCH   1  13
BRANCH   2  26
ATOM     26  C   UNL     1      34.184 -21.858 -19.462  0.00  0.00    +0.093 C 
ATOM     27  C   UNL     1      32.734 -21.437 -19.234  0.00  0.00    +0.026 C 
BRANCH  26  28
ATOM     28  C   UNL     1      35.017 -20.779 -20.119  0.00  0.00    -0.005 C 
ATOM     29  C   UNL     1      34.406 -19.824 -20.932  0.00  0.00    -0.003 C 
ATOM     30  C   UNL     1      36.396 -20.738 -19.912  0.00  0.00    -0.003 C 
ATOM     31  C   UNL     1      35.174 -18.829 -21.537  0.00  0.00    -0.000 C 
ATOM     32  C   UNL     1      37.163 -19.744 -20.517  0.00  0.00    -0.000 C 
ATOM     33  C   UNL     1      36.552 -18.788 -21.330  0.00  0.00    -0.000 C 
ENDBRANCH  26  28
ENDBRANCH   2  26
TORSDOF 6
ENDMDL
MODEL 3
REMARK VINA RESULT:     -11.3      6.910     11.694
REMARK  Name = 24941249
REMARK  6 active torsions:
REMARK  status: ('A' for Active; 'I' for Inactive)
REMARK    1  A    between atoms: N_1  and  C_13
REMARK    2  A    between atoms: N_2  and  C_26
REMARK    3  A    between atoms: C_14  and  C_19
REMARK    4  A    between atoms: C_19  and  C_20
REMARK    5  A    between atoms: C_20  and  C_23
REMARK    6  A    between atoms: C_26  and  C_28
REMARK                            x       y       z     vdW  Elec       q    Type
REMARK                         _______ _______ _______ _____ _____    ______ ____
ROOT
ATOM      1  N   UNL     1      33.066 -23.919 -14.741  0.00  0.00    -0.230 N 
ATOM      2  N   UNL     1      34.611 -21.972 -18.948  0.00  0.00    -0.316 N 
ATOM      3  N   UNL     1      33.685 -24.273 -13.601  0.00  0.00    -0.169 NA
ATOM      4  N   UNL     1      36.050 -22.467 -17.119  0.00  0.00    -0.229 NA
ATOM      5  C   UNL     1      33.899 -23.398 -15.692  0.00  0.00    +0.088 A 
ATOM      6  C   UNL     1      35.165 -23.416 -15.120  0.00  0.00    +0.052 A 
ATOM      7  C   UNL     1      34.963 -23.965 -13.837  0.00  0.00    +0.082 A 
ATOM      8  C   UNL     1      33.660 -22.923 -16.977  0.00  0.00    +0.053 C 
ATOM      9  C   UNL     1      34.795 -22.471 -17.631  0.00  0.00    +0.130 C 
ATOM     10  C   UNL     1      36.245 -22.938 -15.862  0.00  0.00    +0.103 C 
ATOM     11  C   UNL     1      35.973 -24.214 -12.794  0.00  0.00    +0.054 C 
ATOM     12  H   UNL     1      33.704 -21.972 -19.331  0.00  0.00    +0.148 HD
ENDROOT
BRANCH   1  13
ATOM     13  C   UNL     1      31.688 -24.101 -14.860  0.00  0.00    +0.082 C 
ATOM     14  C   UNL     1      29.497 -23.217 -15.369  0.00  0.00    -0.020 C 
ATOM     15  C   UNL     1      30.876 -23.035 -15.250  0.00  0.00    +0.015 C 
ATOM     16  C   UNL     1      31.122 -25.347 -14.591  0.00  0.00    +0.019 C 
ATOM     17  C   UNL     1      28.932 -24.463 -15.099  0.00  0.00    -0.004 C 
ATOM     18  C   UNL     1      29.744 -25.528 -14.711  0.00  0.00    +0.001 C 
BRANCH  14  19
ATOM     19  C   UNL     1      28.628 -22.078 -15.784  0.00  0.00    +0.036 C 
BRANCH  19  20
ATOM     20  C   UNL     1      27.649 -22.471 -16.897  0.00  0.00    +0.089 C 
BRANCH  20  23
ATOM     21  O   UNL     1      25.569 -22.039 -15.724  0.00  0.00    -0.275 OA
ATOM     22  N   UNL     1      25.903 -21.075 -17.786  0.00  0.00    -0.329 N 
ATOM     23  C   UNL     1      26.274 -21.858 -16.713  0.00  0.00    +0.220 C 
ATOM     24  H   UNL     1      25.029 -20.623 -17.784  0.00  0.00    +0.145 HD
ATOM     25  H   UNL     1      26.512 -20.970 -18.551  0.00  0.00    +0.145 HD
ENDBRANCH  20  23
ENDBRANCH  19  20
ENDBRANCH  14  19
ENDBRANCH   1  13
BRANCH   2  26
ATOM     26  C   UNL     1      35.688 -21.474 -19.738  0.00  0.00    +0.093 C 
ATOM     27  C   UNL     1      36.151 -22.560 -20.708  0.00  0.00    +0.026 C 
BRANCH  26  28
ATOM     28  C   UNL     1      35.277 -20.195 -20.434  0.00  0.00    -0.005 C 
ATOM     29  C   UNL     1      36.250 -19.313 -20.904  0.00  0.00    -0.003 C 
ATOM     30  C   UNL     1      33.925 -19.898 -20.607  0.00  0.00    -0.003 C 
ATOM     31  C   UNL     1      35.871 -18.133 -21.545  0.00  0.00    -0.000 C 
ATOM     32  C   UNL     1      33.546 -18.719 -21.249  0.00  0.00    -0.000 C 
ATOM     33  C   UNL     1      34.519 -17.837 -21.718  0.00  0.00    -0.000 C 
ENDBRANCH  26  28
ENDBRANCH   2  26
TORSDOF 6
ENDMDL
MODEL 4
REMARK VINA RESULT:     -10.5      9.345     11.843
REMARK  Name = 24941249
REMARK  6 active torsions:
REMARK  status: ('A' for Active; 'I' for Inactive)
REMARK    1  A    between atoms: N_1  and  C_13
REMARK    2  A    between atoms: N_2  and  C_26
REMARK    3  A    between atoms: C_14  and  C_19
REMARK    4  A    between atoms: C_19  and  C_20
REMARK    5  A    between atoms: C_20  and  C_23
REMARK    6  A    between atoms: C_26  and  C_28
REMARK                            x       y       z     vdW  Elec       q    Type
REMARK                         _______ _______ _______ _____ _____    ______ ____
ROOT
ATOM      1  N   UNL     1      32.221 -23.229 -16.719  0.00  0.00    -0.230 N 
ATOM      2  N   UNL     1      35.407 -23.668 -13.040  0.00  0.00    -0.316 N 
ATOM      3  N   UNL     1      32.337 -22.858 -18.006  0.00  0.00    -0.169 NA
ATOM      4  N   UNL     1      36.014 -22.964 -15.231  0.00  0.00    -0.229 NA
ATOM      5  C   UNL     1      33.398 -23.211 -16.023  0.00  0.00    +0.088 A 
ATOM      6  C   UNL     1      34.358 -22.792 -16.936  0.00  0.00    +0.052 A 
ATOM      7  C   UNL     1      33.640 -22.593 -18.133  0.00  0.00    +0.082 A 
ATOM      8  C   UNL     1      33.699 -23.518 -14.700  0.00  0.00    +0.053 C 
ATOM      9  C   UNL     1      35.040 -23.368 -14.379  0.00  0.00    +0.130 C 
ATOM     10  C   UNL     1      35.682 -22.673 -16.513  0.00  0.00    +0.103 C 
ATOM     11  C   UNL     1      34.165 -22.146 -19.434  0.00  0.00    +0.054 C 
ATOM     12  H   UNL     1      34.708 -23.962 -12.413  0.00  0.00    +0.148 HD
ENDROOT
BRANCH   1  13
ATOM     13  C   UNL     1      30.970 -23.589 -16.217  0.00  0.00    +0.082 C 
ATOM     14  C   UNL     1      28.594 -23.188 -16.035  0.00  0.00    -0.020 C 
ATOM     15  C   UNL     1      29.845 -22.828 -16.537  0.00  0.00    +0.015 C 
ATOM     16  C   UNL     1      30.844 -24.709 -15.396  0.00  0.00    +0.019 C 
ATOM     17  C   UNL     1      28.468 -24.308 -15.214  0.00  0.00    -0.004 C 
ATOM     18  C   UNL     1      29.592 -25.069 -14.894  0.00  0.00    +0.001 C 
BRANCH  14  19
ATOM     19  C   UNL     1      27.392 -22.374 -16.376  0.00  0.00    +0.036 C 
BRANCH  19  20
ATOM     20  C   UNL     1      27.024 -22.475 -17.861  0.00  0.00    +0.089 C 
BRANCH  20  23
ATOM     21  O   UNL     1      26.131 -20.222 -17.750  0.00  0.00    -0.275 OA
ATOM     22  N   UNL     1      25.569 -21.552 -19.540  0.00  0.00    -0.329 N 
ATOM     23  C   UNL     1      26.211 -21.291 -18.348  0.00  0.00    +0.220 C 
ATOM     24  H   UNL     1      25.009 -20.860 -19.958  0.00  0.00    +0.145 HD
ATOM     25  H   UNL     1      25.671 -22.431 -19.971  0.00  0.00    +0.145 HD
ENDBRANCH  20  23
ENDBRANCH  19  20
ENDBRANCH  14  19
ENDBRANCH   1  13
BRANCH   2  26
ATOM     26  C   UNL     1      36.748 -23.561 -12.570  0.00  0.00    +0.093 C 
ATOM     27  C   UNL     1      36.758 -23.636 -11.044  0.00  0.00    +0.026 C 
BRANCH  26  28
ATOM     28  C   UNL     1      37.616 -24.617 -13.219  0.00  0.00    -0.005 C 
ATOM     29  C   UNL     1      37.051 -25.819 -13.646  0.00  0.00    -0.003 C 
ATOM     30  C   UNL     1      38.980 -24.388 -13.392  0.00  0.00    -0.003 C 
ATOM     31  C   UNL     1      37.851 -26.792 -14.245  0.00  0.00    -0.000 C 
ATOM     32  C   UNL     1      39.781 -25.361 -13.991  0.00  0.00    -0.000 C 
ATOM     33  C   UNL     1      39.216 -26.563 -14.418  0.00  0.00    -0.000 C 
ENDBRANCH  26  28
ENDBRANCH   2  26
TORSDOF 6
ENDMDL
MODEL 5
REMARK VINA RESULT:     -10.2      5.679     10.267
REMARK  Name = 24941249
REMARK  6 active torsions:
REMARK  status: ('A' for Active; 'I' for Inactive)
REMARK    1  A    between atoms: N_1  and  C_13
REMARK    2  A    between atoms: N_2  and  C_26
REMARK    3  A    between atoms: C_14  and  C_19
REMARK    4  A    between atoms: C_19  and  C_20
REMARK    5  A    between atoms: C_20  and  C_23
REMARK    6  A    between atoms: C_26  and  C_28
REMARK                            x       y       z     vdW  Elec       q    Type
REMARK                         _______ _______ _______ _____ _____    ______ ____
ROOT
ATOM      1  N   UNL     1      33.296 -22.328 -17.961  0.00  0.00    -0.230 N 
ATOM      2  N   UNL     1      36.424 -24.706 -15.056  0.00  0.00    -0.316 N 
ATOM      3  N   UNL     1      31.960 -22.177 -17.956  0.00  0.00    -0.169 NA
ATOM      4  N   UNL     1      34.070 -24.674 -14.710  0.00  0.00    -0.229 NA
ATOM      5  C   UNL     1      33.775 -23.095 -16.935  0.00  0.00    +0.088 A 
ATOM      6  C   UNL     1      32.656 -23.473 -16.204  0.00  0.00    +0.052 A 
ATOM      7  C   UNL     1      31.574 -22.875 -16.886  0.00  0.00    +0.082 A 
ATOM      8  C   UNL     1      35.065 -23.484 -16.591  0.00  0.00    +0.053 C 
ATOM      9  C   UNL     1      35.130 -24.279 -15.456  0.00  0.00    +0.130 C 
ATOM     10  C   UNL     1      32.827 -24.276 -15.077  0.00  0.00    +0.103 C 
ATOM     11  C   UNL     1      30.144 -22.947 -16.543  0.00  0.00    +0.054 C 
ATOM     12  H   UNL     1      37.201 -24.426 -15.591  0.00  0.00    +0.148 HD
ENDROOT
BRANCH   1  13
ATOM     13  C   UNL     1      34.054 -21.720 -18.961  0.00  0.00    +0.082 C 
ATOM     14  C   UNL     1      34.231 -20.154 -20.794  0.00  0.00    -0.020 C 
ATOM     15  C   UNL     1      33.472 -20.763 -19.793  0.00  0.00    +0.015 C 
ATOM     16  C   UNL     1      35.394 -22.068 -19.130  0.00  0.00    +0.019 C 
ATOM     17  C   UNL     1      35.571 -20.502 -20.962  0.00  0.00    -0.004 C 
ATOM     18  C   UNL     1      36.153 -21.459 -20.130  0.00  0.00    +0.001 C 
BRANCH  14  19
ATOM     19  C   UNL     1      33.609 -19.132 -21.683  0.00  0.00    +0.036 C 
BRANCH  19  20
ATOM     20  C   UNL     1      34.605 -18.566 -22.702  0.00  0.00    +0.089 C 
BRANCH  20  23
ATOM     21  O   UNL     1      35.071 -16.694 -21.231  0.00  0.00    -0.275 OA
ATOM     22  N   UNL     1      35.429 -16.448 -23.490  0.00  0.00    -0.329 N 
ATOM     23  C   UNL     1      35.050 -17.155 -22.369  0.00  0.00    +0.220 C 
ATOM     24  H   UNL     1      35.738 -15.518 -23.402  0.00  0.00    +0.145 HD
ATOM     25  H   UNL     1      35.389 -16.873 -24.376  0.00  0.00    +0.145 HD
ENDBRANCH  20  23
ENDBRANCH  19  20
ENDBRANCH  14  19
ENDBRANCH   1  13
BRANCH   2  26
ATOM     26  C   UNL     1      36.642 -25.525 -13.910  0.00  0.00    +0.093 C 
ATOM     27  C   UNL     1      37.945 -26.303 -14.082  0.00  0.00    +0.026 C 
BRANCH  26  28
ATOM     28  C   UNL     1      36.618 -24.682 -12.654  0.00  0.00    -0.005 C 
ATOM     29  C   UNL     1      35.785 -25.036 -11.592  0.00  0.00    -0.003 C 
ATOM     30  C   UNL     1      37.429 -23.551 -12.557  0.00  0.00    -0.003 C 
ATOM     31  C   UNL     1      35.763 -24.259 -10.434  0.00  0.00    -0.000 C 
ATOM     32  C   UNL     1      37.406 -22.774 -11.399  0.00  0.00    -0.000 C 
ATOM     33  C   UNL     1      36.574 -23.128 -10.337  0.00  0.00    -0.000 C 
ENDBRANCH  26  28
ENDBRANCH   2  26
TORSDOF 6
ENDMDL
MODEL 6
REMARK VINA RESULT:     -10.2      1.539      2.266
REMARK  Name = 24941249
REMARK  6 active torsions:
REMARK  status: ('A' for Active; 'I' for Inactive)
REMARK    1  A    between atoms: N_1  and  C_13
REMARK    2  A    between atoms: N_2  and  C_26
REMARK    3  A    between atoms: C_14  and  C_19
REMARK    4  A    between atoms: C_19  and  C_20
REMARK    5  A    between atoms: C_20  and  C_23
REMARK    6  A    between atoms: C_26  and  C_28
REMARK                            x       y       z     vdW  Elec       q    Type
REMARK                         _______ _______ _______ _____ _____    ______ ____
ROOT
ATOM      1  N   UNL     1      33.699 -15.794 -22.782  0.00  0.00    -0.230 N 
ATOM      2  N   UNL     1      34.913 -19.704 -20.113  0.00  0.00    -0.316 N 
ATOM      3  N   UNL     1      33.805 -15.495 -24.088  0.00  0.00    -0.169 NA
ATOM      4  N   UNL     1      35.270 -19.549 -22.461  0.00  0.00    -0.229 NA
ATOM      5  C   UNL     1      34.176 -17.033 -22.450  0.00  0.00    +0.088 A 
ATOM      6  C   UNL     1      34.629 -17.582 -23.643  0.00  0.00    +0.052 A 
ATOM      7  C   UNL     1      34.372 -16.586 -24.609  0.00  0.00    +0.082 A 
ATOM      8  C   UNL     1      34.249 -17.705 -21.236  0.00  0.00    +0.053 C 
ATOM      9  C   UNL     1      34.813 -18.969 -21.324  0.00  0.00    +0.130 C 
ATOM     10  C   UNL     1      35.182 -18.862 -23.627  0.00  0.00    +0.103 C 
ATOM     11  C   UNL     1      34.655 -16.638 -26.053  0.00  0.00    +0.054 C 
ATOM     12  H   UNL     1      34.585 -19.291 -19.282  0.00  0.00    +0.148 HD
ENDROOT
BRANCH   1  13
ATOM     13  C   UNL     1      33.136 -14.865 -21.906  0.00  0.00    +0.082 C 
ATOM     14  C   UNL     1      32.064 -12.734 -21.523  0.00  0.00    -0.020 C 
ATOM     15  C   UNL     1      32.626 -13.663 -22.398  0.00  0.00    +0.015 C 
ATOM     16  C   UNL     1      33.083 -15.138 -20.540  0.00  0.00    +0.019 C 
ATOM     17  C   UNL     1      32.010 -13.006 -20.156  0.00  0.00    -0.004 C 
ATOM     18  C   UNL     1      32.519 -14.209 -19.664  0.00  0.00    +0.001 C 
BRANCH  14  19
ATOM     19  C   UNL     1      31.520 -11.448 -22.048  0.00  0.00    +0.036 C 
BRANCH  19  20
ATOM     20  C   UNL     1      31.154 -10.471 -20.925  0.00  0.00    +0.089 C 
BRANCH  20  23
ATOM     21  O   UNL     1      32.539  -8.661 -21.756  0.00  0.00    -0.275 OA
ATOM     22  N   UNL     1      32.521  -9.099 -19.498  0.00  0.00    -0.329 N 
ATOM     23  C   UNL     1      32.134  -9.320 -20.803  0.00  0.00    +0.220 C 
ATOM     24  H   UNL     1      33.157  -8.377 -19.290  0.00  0.00    +0.145 HD
ATOM     25  H   UNL     1      32.162  -9.663 -18.777  0.00  0.00    +0.145 HD
ENDBRANCH  20  23
ENDBRANCH  19  20
ENDBRANCH  14  19
ENDBRANCH   1  13
BRANCH   2  26
ATOM     26  C   UNL     1      35.469 -21.014 -20.055  0.00  0.00    +0.093 C 
ATOM     27  C   UNL     1      36.992 -20.916 -19.975  0.00  0.00    +0.026 C 
BRANCH  26  28
ATOM     28  C   UNL     1      34.865 -21.788 -18.903  0.00  0.00    -0.005 C 
ATOM     29  C   UNL     1      33.516 -22.141 -18.930  0.00  0.00    -0.003 C 
ATOM     30  C   UNL     1      35.658 -22.148 -17.813  0.00  0.00    -0.003 C 
ATOM     31  C   UNL     1      32.960 -22.853 -17.868  0.00  0.00    -0.000 C 
ATOM     32  C   UNL     1      35.102 -22.860 -16.751  0.00  0.00    -0.000 C 
ATOM     33  C   UNL     1      33.752 -23.214 -16.778  0.00  0.00    -0.000 C 
ENDBRANCH  26  28
ENDBRANCH   2  26
TORSDOF 6
ENDMDL
MODEL 7
REMARK VINA RESULT:      -9.6      2.970      5.777
REMARK  Name = 24941249
REMARK  6 active torsions:
REMARK  status: ('A' for Active; 'I' for Inactive)
REMARK    1  A    between atoms: N_1  and  C_13
REMARK    2  A    between atoms: N_2  and  C_26
REMARK    3  A    between atoms: C_14  and  C_19
REMARK    4  A    between atoms: C_19  and  C_20
REMARK    5  A    between atoms: C_20  and  C_23
REMARK    6  A    between atoms: C_26  and  C_28
REMARK                            x       y       z     vdW  Elec       q    Type
REMARK                         _______ _______ _______ _____ _____    ______ ____
ROOT
ATOM      1  N   UNL     1      32.621  -9.370 -22.344  0.00  0.00    -0.230 N 
ATOM      2  N   UNL     1      33.154 -13.558 -24.806  0.00  0.00    -0.316 N 
ATOM      3  N   UNL     1      32.060  -9.055 -21.164  0.00  0.00    -0.169 NA
ATOM      4  N   UNL     1      32.074 -13.402 -22.691  0.00  0.00    -0.229 NA
ATOM      5  C   UNL     1      32.547 -10.699 -22.661  0.00  0.00    +0.088 A 
ATOM      6  C   UNL     1      31.882 -11.294 -21.597  0.00  0.00    +0.052 A 
ATOM      7  C   UNL     1      31.611 -10.229 -20.712  0.00  0.00    +0.082 A 
ATOM      8  C   UNL     1      32.995 -11.416 -23.765  0.00  0.00    +0.053 C 
ATOM      9  C   UNL     1      32.719 -12.773 -23.705  0.00  0.00    +0.130 C 
ATOM     10  C   UNL     1      31.652 -12.669 -21.631  0.00  0.00    +0.103 C 
ATOM     11  C   UNL     1      30.920 -10.290 -19.413  0.00  0.00    +0.054 C 
ATOM     12  H   UNL     1      33.622 -13.112 -25.548  0.00  0.00    +0.148 HD
ENDROOT
BRANCH   1  13
ATOM     13  C   UNL     1      33.208  -8.368 -23.117  0.00  0.00    +0.082 C 
ATOM     14  C   UNL     1      32.999  -6.388 -24.486  0.00  0.00    -0.020 C 
ATOM     15  C   UNL     1      32.412  -7.390 -23.713  0.00  0.00    +0.015 C 
ATOM     16  C   UNL     1      34.592  -8.343 -23.292  0.00  0.00    +0.019 C 
ATOM     17  C   UNL     1      34.382  -6.363 -24.661  0.00  0.00    -0.004 C 
ATOM     18  C   UNL     1      35.179  -7.341 -24.064  0.00  0.00    +0.001 C 
BRANCH  14  19
ATOM     19  C   UNL     1      32.148  -5.344 -25.124  0.00  0.00    +0.036 C 
BRANCH  19  20
ATOM     20  C   UNL     1      30.910  -5.009 -24.283  0.00  0.00    +0.089 C 
BRANCH  20  23
ATOM     21  O   UNL     1      31.848  -2.864 -23.643  0.00  0.00    -0.275 OA
ATOM     22  N   UNL     1      30.418  -3.930 -22.190  0.00  0.00    -0.329 N 
ATOM     23  C   UNL     1      31.126  -3.818 -23.368  0.00  0.00    +0.220 C 
ATOM     24  H   UNL     1      30.476  -3.218 -21.513  0.00  0.00    +0.145 HD
ATOM     25  H   UNL     1      29.856  -4.721 -22.027  0.00  0.00    +0.145 HD
ENDBRANCH  20  23
ENDBRANCH  19  20
ENDBRANCH  14  19
ENDBRANCH   1  13
BRANCH   2  26
ATOM     26  C   UNL     1      32.940 -14.964 -24.879  0.00  0.00    +0.093 C 
ATOM     27  C   UNL     1      33.050 -15.420 -26.333  0.00  0.00    +0.026 C 
BRANCH  26  28
ATOM     28  C   UNL     1      33.899 -15.687 -23.958  0.00  0.00    -0.005 C 
ATOM     29  C   UNL     1      34.025 -15.288 -22.628  0.00  0.00    -0.003 C 
ATOM     30  C   UNL     1      34.657 -16.754 -24.440  0.00  0.00    -0.003 C 
ATOM     31  C   UNL     1      34.909 -15.954 -21.780  0.00  0.00    -0.000 C 
ATOM     32  C   UNL     1      35.542 -17.420 -23.592  0.00  0.00    -0.000 C 
ATOM     33  C   UNL     1      35.667 -17.021 -22.261  0.00  0.00    -0.000 C 
ENDBRANCH  26  28
ENDBRANCH   2  26
TORSDOF 6
ENDMDL
