MODEL 1
REMARK VINA RESULT:     -11.4      0.000      0.000
REMARK  Name = 24180719
REMARK  6 active torsions:
REMARK  status: ('A' for Active; 'I' for Inactive)
REMARK    1  A    between atoms: C_3  and  N_22
REMARK    2  A    between atoms: C_4  and  C_10
REMARK    3  A    between atoms: C_10  and  C_14
REMARK    4  A    between atoms: N_22  and  S_24
REMARK    5  A    between atoms: S_24  and  C_27
REMARK    6  A    between atoms: C_27  and  C_28
REMARK                            x       y       z     vdW  Elec       q    Type
REMARK                         _______ _______ _______ _____ _____    ______ ____
ROOT
ATOM      1  F   UNL     1      32.942 -19.519 -20.453  0.00  0.00    -0.203 F 
ATOM      2  F   UNL     1      37.630 -19.157 -21.103  0.00  0.00    -0.204 F 
ATOM      3  C   UNL     1      34.364 -21.256 -19.693  0.00  0.00    +0.092 C 
ATOM      4  C   UNL     1      35.279 -19.309 -20.793  0.00  0.00    +0.095 C 
ATOM      5  C   UNL     1      34.179 -20.022 -20.316  0.00  0.00    +0.160 C 
ATOM      6  C   UNL     1      35.649 -21.779 -19.550  0.00  0.00    +0.020 C 
ATOM      7  C   UNL     1      36.563 -19.831 -20.649  0.00  0.00    +0.145 C 
ATOM      8  C   UNL     1      36.749 -21.067 -20.027  0.00  0.00    +0.031 C 
ENDROOT
BRANCH   4  10
ATOM      9  O   UNL     1      35.155 -16.993 -20.713  0.00  0.00    -0.286 OA
ATOM     10  C   UNL     1      35.081 -17.986 -21.459  0.00  0.00    +0.201 C 
BRANCH  10  14
ATOM     11 CL   UNL     1      33.246 -12.968 -24.081  0.00  0.00    -0.081 Cl
ATOM     12  N   UNL     1      34.601 -18.501 -24.998  0.00  0.00    -0.297 N 
ATOM     13  N   UNL     1      33.861 -16.430 -25.981  0.00  0.00    -0.228 NA
ATOM     14  C   UNL     1      34.810 -17.898 -22.866  0.00  0.00    +0.056 C 
ATOM     15  C   UNL     1      34.370 -16.769 -23.607  0.00  0.00    +0.037 C 
ATOM     16  C   UNL     1      34.251 -17.178 -24.932  0.00  0.00    +0.132 C 
ATOM     17  C   UNL     1      34.943 -18.948 -23.748  0.00  0.00    +0.066 C 
ATOM     18  C   UNL     1      34.057 -15.433 -23.312  0.00  0.00    +0.016 C 
ATOM     19  C   UNL     1      33.647 -14.614 -24.363  0.00  0.00    +0.077 C 
ATOM     20  C   UNL     1      33.571 -15.153 -25.639  0.00  0.00    +0.112 C 
ATOM     21  H   UNL     1      34.607 -19.046 -25.817  0.00  0.00    +0.154 HD
ENDBRANCH  10  14
ENDBRANCH   4  10
BRANCH   3  22
ATOM     22  N   UNL     1      33.239 -21.988 -19.203  0.00  0.00    -0.217 N 
ATOM     23  H   UNL     1      32.340 -21.843 -19.576  0.00  0.00    +0.173 HD
BRANCH  22  24
ATOM     24  S   UNL     1      33.501 -23.130 -17.941  0.00  0.00    +0.054 S 
ATOM     25  O   UNL     1      33.573 -24.454 -18.528  0.00  0.00    -0.154 OA
ATOM     26  O   UNL     1      34.531 -22.670 -17.031  0.00  0.00    -0.154 OA
BRANCH  24  27
ATOM     27  C   UNL     1      31.940 -23.025 -17.094  0.00  0.00    +0.172 C 
BRANCH  27  28
ATOM     28  C   UNL     1      32.064 -23.473 -15.647  0.00  0.00    +0.027 C 
ATOM     29  C   UNL     1      31.066 -22.754 -14.755  0.00  0.00    +0.002 C 
ENDBRANCH  27  28
ENDBRANCH  24  27
ENDBRANCH  22  24
ENDBRANCH   3  22
TORSDOF 6
ENDMDL
MODEL 2
REMARK VINA RESULT:     -11.2      4.163      8.136
REMARK  Name = 24180719
REMARK  6 active torsions:
REMARK  status: ('A' for Active; 'I' for Inactive)
REMARK    1  A    between atoms: C_3  and  N_22
REMARK    2  A    between atoms: C_4  and  C_10
REMARK    3  A    between atoms: C_10  and  C_14
REMARK    4  A    between atoms: N_22  and  S_24
REMARK    5  A    between atoms: S_24  and  C_27
REMARK    6  A    between atoms: C_27  and  C_28
REMARK                            x       y       z     vdW  Elec       q    Type
REMARK                         _______ _______ _______ _____ _____    ______ ____
ROOT
ATOM      1  F   UNL     1      35.087 -16.553 -20.368  0.00  0.00    -0.203 F 
ATOM      2  F   UNL     1      35.417 -19.525 -24.055  0.00  0.00    -0.204 F 
ATOM      3  C   UNL     1      34.691 -15.743 -22.561  0.00  0.00    +0.092 C 
ATOM      4  C   UNL     1      35.260 -18.062 -22.189  0.00  0.00    +0.095 C 
ATOM      5  C   UNL     1      35.014 -16.783 -21.689  0.00  0.00    +0.160 C 
ATOM      6  C   UNL     1      34.615 -15.982 -23.933  0.00  0.00    +0.020 C 
ATOM      7  C   UNL     1      35.183 -18.300 -23.561  0.00  0.00    +0.145 C 
ATOM      8  C   UNL     1      34.861 -17.260 -24.433  0.00  0.00    +0.031 C 
ENDROOT
BRANCH   4  10
ATOM      9  O   UNL     1      36.817 -19.315 -21.012  0.00  0.00    -0.286 OA
ATOM     10  C   UNL     1      35.605 -19.176 -21.255  0.00  0.00    +0.201 C 
BRANCH  10  14
ATOM     11 CL   UNL     1      36.600 -22.856 -16.685  0.00  0.00    -0.081 Cl
ATOM     12  N   UNL     1      32.603 -20.985 -20.400  0.00  0.00    -0.297 N 
ATOM     13  N   UNL     1      33.088 -22.447 -18.549  0.00  0.00    -0.228 NA
ATOM     14  C   UNL     1      34.586 -20.022 -20.702  0.00  0.00    +0.056 C 
ATOM     15  C   UNL     1      34.695 -20.937 -19.621  0.00  0.00    +0.037 C 
ATOM     16  C   UNL     1      33.441 -21.520 -19.458  0.00  0.00    +0.132 C 
ATOM     17  C   UNL     1      33.288 -20.073 -21.162  0.00  0.00    +0.066 C 
ATOM     18  C   UNL     1      35.716 -21.346 -18.749  0.00  0.00    +0.016 C 
ATOM     19  C   UNL     1      35.404 -22.305 -17.787  0.00  0.00    +0.077 C 
ATOM     20  C   UNL     1      34.110 -22.804 -17.737  0.00  0.00    +0.112 C 
ATOM     21  H   UNL     1      31.653 -21.218 -20.514  0.00  0.00    +0.154 HD
ENDBRANCH  10  14
ENDBRANCH   4  10
BRANCH   3  22
ATOM     22  N   UNL     1      34.438 -14.433 -22.051  0.00  0.00    -0.217 N 
ATOM     23  H   UNL     1      35.171 -13.786 -21.933  0.00  0.00    +0.173 HD
BRANCH  22  24
ATOM     24  S   UNL     1      32.816 -14.015 -21.649  0.00  0.00    +0.054 S 
ATOM     25  O   UNL     1      32.035 -15.236 -21.570  0.00  0.00    -0.154 OA
ATOM     26  O   UNL     1      32.782 -13.047 -20.571  0.00  0.00    -0.154 OA
BRANCH  24  27
ATOM     27  C   UNL     1      32.326 -13.185 -23.144  0.00  0.00    +0.172 C 
BRANCH  27  28
ATOM     28  C   UNL     1      33.376 -12.180 -23.589  0.00  0.00    +0.027 C 
ATOM     29  C   UNL     1      33.738 -12.365 -25.053  0.00  0.00    +0.002 C 
ENDBRANCH  27  28
ENDBRANCH  24  27
ENDBRANCH  22  24
ENDBRANCH   3  22
TORSDOF 6
ENDMDL
MODEL 3
REMARK VINA RESULT:     -11.1      1.730      2.027
REMARK  Name = 24180719
REMARK  6 active torsions:
REMARK  status: ('A' for Active; 'I' for Inactive)
REMARK    1  A    between atoms: C_3  and  N_22
REMARK    2  A    between atoms: C_4  and  C_10
REMARK    3  A    between atoms: C_10  and  C_14
REMARK    4  A    between atoms: N_22  and  S_24
REMARK    5  A    between atoms: S_24  and  C_27
REMARK    6  A    between atoms: C_27  and  C_28
REMARK                            x       y       z     vdW  Elec       q    Type
REMARK                         _______ _______ _______ _____ _____    ______ ____
ROOT
ATOM      1  F   UNL     1      32.782 -19.809 -21.181  0.00  0.00    -0.203 F 
ATOM      2  F   UNL     1      37.407 -18.824 -21.590  0.00  0.00    -0.204 F 
ATOM      3  C   UNL     1      34.344 -20.944 -19.807  0.00  0.00    +0.092 C 
ATOM      4  C   UNL     1      35.085 -19.295 -21.410  0.00  0.00    +0.095 C 
ATOM      5  C   UNL     1      34.054 -20.014 -20.804  0.00  0.00    +0.160 C 
ATOM      6  C   UNL     1      35.665 -21.157 -19.415  0.00  0.00    +0.020 C 
ATOM      7  C   UNL     1      36.406 -19.508 -21.017  0.00  0.00    +0.145 C 
ATOM      8  C   UNL     1      36.697 -20.439 -20.019  0.00  0.00    +0.031 C 
ENDROOT
BRANCH   4  10
ATOM      9  O   UNL     1      34.698 -18.755 -23.633  0.00  0.00    -0.286 OA
ATOM     10  C   UNL     1      34.774 -18.298 -22.478  0.00  0.00    +0.201 C 
BRANCH  10  14
ATOM     11 CL   UNL     1      33.043 -14.282 -26.515  0.00  0.00    -0.081 Cl
ATOM     12  N   UNL     1      34.534 -15.020 -20.990  0.00  0.00    -0.297 N 
ATOM     13  N   UNL     1      33.830 -13.458 -22.684  0.00  0.00    -0.228 NA
ATOM     14  C   UNL     1      34.594 -16.909 -22.164  0.00  0.00    +0.056 C 
ATOM     15  C   UNL     1      34.189 -15.859 -23.031  0.00  0.00    +0.037 C 
ATOM     16  C   UNL     1      34.160 -14.694 -22.267  0.00  0.00    +0.132 C 
ATOM     17  C   UNL     1      34.800 -16.363 -20.916  0.00  0.00    +0.066 C 
ATOM     18  C   UNL     1      33.836 -15.752 -24.386  0.00  0.00    +0.016 C 
ATOM     19  C   UNL     1      33.486 -14.492 -24.869  0.00  0.00    +0.077 C 
ATOM     20  C   UNL     1      33.502 -13.414 -23.995  0.00  0.00    +0.112 C 
ATOM     21  H   UNL     1      34.601 -14.386 -20.239  0.00  0.00    +0.154 HD
ENDBRANCH  10  14
ENDBRANCH   4  10
BRANCH   3  22
ATOM     22  N   UNL     1      33.290 -21.681 -19.185  0.00  0.00    -0.217 N 
ATOM     23  H   UNL     1      32.348 -21.434 -19.326  0.00  0.00    +0.173 HD
BRANCH  22  24
ATOM     24  S   UNL     1      33.713 -23.015 -18.181  0.00  0.00    +0.054 S 
ATOM     25  O   UNL     1      33.736 -24.214 -18.998  0.00  0.00    -0.154 OA
ATOM     26  O   UNL     1      34.836 -22.684 -17.326  0.00  0.00    -0.154 OA
BRANCH  24  27
ATOM     27  C   UNL     1      32.260 -23.114 -17.160  0.00  0.00    +0.172 C 
BRANCH  27  28
ATOM     28  C   UNL     1      32.624 -23.310 -15.698  0.00  0.00    +0.027 C 
ATOM     29  C   UNL     1      31.474 -22.924 -14.782  0.00  0.00    +0.002 C 
ENDBRANCH  27  28
ENDBRANCH  24  27
ENDBRANCH  22  24
ENDBRANCH   3  22
TORSDOF 6
ENDMDL
MODEL 4
REMARK VINA RESULT:     -10.8      4.536      7.203
REMARK  Name = 24180719
REMARK  6 active torsions:
REMARK  status: ('A' for Active; 'I' for Inactive)
REMARK    1  A    between atoms: C_3  and  N_22
REMARK    2  A    between atoms: C_4  and  C_10
REMARK    3  A    between atoms: C_10  and  C_14
REMARK    4  A    between atoms: N_22  and  S_24
REMARK    5  A    between atoms: S_24  and  C_27
REMARK    6  A    between atoms: C_27  and  C_28
REMARK                            x       y       z     vdW  Elec       q    Type
REMARK                         _______ _______ _______ _____ _____    ______ ____
ROOT
ATOM      1  F   UNL     1      34.758 -14.246 -22.099  0.00  0.00    -0.203 F 
ATOM      2  F   UNL     1      32.281 -13.897 -26.133  0.00  0.00    -0.204 F 
ATOM      3  C   UNL     1      34.834 -16.016 -23.673  0.00  0.00    +0.092 C 
ATOM      4  C   UNL     1      33.509 -14.042 -24.104  0.00  0.00    +0.095 C 
ATOM      5  C   UNL     1      34.372 -14.761 -23.277  0.00  0.00    +0.160 C 
ATOM      6  C   UNL     1      34.434 -16.552 -24.897  0.00  0.00    +0.020 C 
ATOM      7  C   UNL     1      33.109 -14.578 -25.328  0.00  0.00    +0.145 C 
ATOM      8  C   UNL     1      33.572 -15.833 -25.724  0.00  0.00    +0.031 C 
ENDROOT
BRANCH   4  10
ATOM      9  O   UNL     1      31.964 -12.699 -23.012  0.00  0.00    -0.286 OA
ATOM     10  C   UNL     1      33.014 -12.698 -23.680  0.00  0.00    +0.201 C 
BRANCH  10  14
ATOM     11 CL   UNL     1      32.006  -7.446 -21.068  0.00  0.00    -0.081 Cl
ATOM     12  N   UNL     1      35.131 -10.144 -25.098  0.00  0.00    -0.297 N 
ATOM     13  N   UNL     1      34.663  -8.056 -23.991  0.00  0.00    -0.228 NA
ATOM     14  C   UNL     1      33.717 -11.500 -24.045  0.00  0.00    +0.056 C 
ATOM     15  C   UNL     1      33.569 -10.196 -23.504  0.00  0.00    +0.037 C 
ATOM     16  C   UNL     1      34.466  -9.374 -24.181  0.00  0.00    +0.132 C 
ATOM     17  C   UNL     1      34.684 -11.438 -25.024  0.00  0.00    +0.066 C 
ATOM     18  C   UNL     1      32.776  -9.604 -22.507  0.00  0.00    +0.016 C 
ATOM     19  C   UNL     1      32.940  -8.240 -22.270  0.00  0.00    +0.077 C 
ATOM     20  C   UNL     1      33.873  -7.539 -23.022  0.00  0.00    +0.112 C 
ATOM     21  H   UNL     1      35.825  -9.818 -25.716  0.00  0.00    +0.154 HD
ENDBRANCH  10  14
ENDBRANCH   4  10
BRANCH   3  22
ATOM     22  N   UNL     1      35.718 -16.754 -22.828  0.00  0.00    -0.217 N 
ATOM     23  H   UNL     1      36.674 -16.839 -23.046  0.00  0.00    +0.173 HD
BRANCH  22  24
ATOM     24  S   UNL     1      35.063 -17.494 -21.417  0.00  0.00    +0.054 S 
ATOM     25  O   UNL     1      35.243 -16.587 -20.298  0.00  0.00    -0.154 OA
ATOM     26  O   UNL     1      33.765 -18.076 -21.692  0.00  0.00    -0.154 OA
BRANCH  24  27
ATOM     27  C   UNL     1      36.222 -18.825 -21.193  0.00  0.00    +0.172 C 
BRANCH  27  28
ATOM     28  C   UNL     1      35.529 -20.084 -20.698  0.00  0.00    +0.027 C 
ATOM     29  C   UNL     1      36.457 -20.928 -19.840  0.00  0.00    +0.002 C 
ENDBRANCH  27  28
ENDBRANCH  24  27
ENDBRANCH  22  24
ENDBRANCH   3  22
TORSDOF 6
ENDMDL
MODEL 5
REMARK VINA RESULT:     -10.5      4.502      7.035
REMARK  Name = 24180719
REMARK  6 active torsions:
REMARK  status: ('A' for Active; 'I' for Inactive)
REMARK    1  A    between atoms: C_3  and  N_22
REMARK    2  A    between atoms: C_4  and  C_10
REMARK    3  A    between atoms: C_10  and  C_14
REMARK    4  A    between atoms: N_22  and  S_24
REMARK    5  A    between atoms: S_24  and  C_27
REMARK    6  A    between atoms: C_27  and  C_28
REMARK                            x       y       z     vdW  Elec       q    Type
REMARK                         _______ _______ _______ _____ _____    ______ ____
ROOT
ATOM      1  F   UNL     1      34.996 -14.218 -22.612  0.00  0.00    -0.203 F 
ATOM      2  F   UNL     1      32.459 -14.133 -26.623  0.00  0.00    -0.204 F 
ATOM      3  C   UNL     1      34.725 -16.211 -23.865  0.00  0.00    +0.092 C 
ATOM      4  C   UNL     1      33.723 -14.143 -24.610  0.00  0.00    +0.095 C 
ATOM      5  C   UNL     1      34.488 -14.849 -23.681  0.00  0.00    +0.160 C 
ATOM      6  C   UNL     1      34.197 -16.868 -24.976  0.00  0.00    +0.020 C 
ATOM      7  C   UNL     1      33.196 -14.800 -25.722  0.00  0.00    +0.145 C 
ATOM      8  C   UNL     1      33.432 -16.163 -25.905  0.00  0.00    +0.031 C 
ENDROOT
BRANCH   4  10
ATOM      9  O   UNL     1      33.947 -11.935 -25.286  0.00  0.00    -0.286 OA
ATOM     10  C   UNL     1      33.469 -12.684 -24.415  0.00  0.00    +0.201 C 
BRANCH  10  14
ATOM     11 CL   UNL     1      33.327  -6.944 -22.847  0.00  0.00    -0.081 Cl
ATOM     12  N   UNL     1      31.427 -12.217 -21.477  0.00  0.00    -0.297 N 
ATOM     13  N   UNL     1      31.422  -9.876 -20.910  0.00  0.00    -0.228 NA
ATOM     14  C   UNL     1      32.731 -12.206 -23.280  0.00  0.00    +0.056 C 
ATOM     15  C   UNL     1      32.618 -10.873 -22.804  0.00  0.00    +0.037 C 
ATOM     16  C   UNL     1      31.798 -10.914 -21.679  0.00  0.00    +0.132 C 
ATOM     17  C   UNL     1      31.989 -13.011 -22.444  0.00  0.00    +0.066 C 
ATOM     18  C   UNL     1      33.117  -9.620 -23.195  0.00  0.00    +0.016 C 
ATOM     19  C   UNL     1      32.757  -8.510 -22.431  0.00  0.00    +0.077 C 
ATOM     20  C   UNL     1      31.931  -8.695 -21.331  0.00  0.00    +0.112 C 
ATOM     21  H   UNL     1      30.846 -12.535 -20.748  0.00  0.00    +0.154 HD
ENDBRANCH  10  14
ENDBRANCH   4  10
BRANCH   3  22
ATOM     22  N   UNL     1      35.508 -16.937 -22.915  0.00  0.00    -0.217 N 
ATOM     23  H   UNL     1      36.464 -17.108 -23.073  0.00  0.00    +0.173 HD
BRANCH  22  24
ATOM     24  S   UNL     1      34.732 -17.504 -21.486  0.00  0.00    +0.054 S 
ATOM     25  O   UNL     1      35.705 -17.514 -20.409  0.00  0.00    -0.154 OA
ATOM     26  O   UNL     1      33.444 -16.865 -21.307  0.00  0.00    -0.154 OA
BRANCH  24  27
ATOM     27  C   UNL     1      34.443 -19.199 -21.936  0.00  0.00    +0.172 C 
BRANCH  27  28
ATOM     28  C   UNL     1      34.329 -20.087 -20.708  0.00  0.00    +0.027 C 
ATOM     29  C   UNL     1      32.882 -20.262 -20.280  0.00  0.00    +0.002 C 
ENDBRANCH  27  28
ENDBRANCH  24  27
ENDBRANCH  22  24
ENDBRANCH   3  22
TORSDOF 6
ENDMDL
MODEL 6
REMARK VINA RESULT:     -10.5      3.581      8.443
REMARK  Name = 24180719
REMARK  6 active torsions:
REMARK  status: ('A' for Active; 'I' for Inactive)
REMARK    1  A    between atoms: C_3  and  N_22
REMARK    2  A    between atoms: C_4  and  C_10
REMARK    3  A    between atoms: C_10  and  C_14
REMARK    4  A    between atoms: N_22  and  S_24
REMARK    5  A    between atoms: S_24  and  C_27
REMARK    6  A    between atoms: C_27  and  C_28
REMARK                            x       y       z     vdW  Elec       q    Type
REMARK                         _______ _______ _______ _____ _____    ______ ____
ROOT
ATOM      1  F   UNL     1      32.820 -20.900 -20.228  0.00  0.00    -0.203 F 
ATOM      2  F   UNL     1      37.076 -22.275 -18.637  0.00  0.00    -0.204 F 
ATOM      3  C   UNL     1      34.733 -19.593 -20.728  0.00  0.00    +0.092 C 
ATOM      4  C   UNL     1      34.932 -21.613 -19.418  0.00  0.00    +0.095 C 
ATOM      5  C   UNL     1      34.145 -20.704 -20.126  0.00  0.00    +0.160 C 
ATOM      6  C   UNL     1      36.108 -19.389 -20.623  0.00  0.00    +0.020 C 
ATOM      7  C   UNL     1      36.307 -21.409 -19.313  0.00  0.00    +0.145 C 
ATOM      8  C   UNL     1      36.896 -20.296 -19.916  0.00  0.00    +0.031 C 
ENDROOT
BRANCH   4  10
ATOM      9  O   UNL     1      33.959 -23.715 -19.548  0.00  0.00    -0.286 OA
ATOM     10  C   UNL     1      34.302 -22.804 -18.773  0.00  0.00    +0.201 C 
BRANCH  10  14
ATOM     11 CL   UNL     1      28.909 -23.130 -16.276  0.00  0.00    -0.081 Cl
ATOM     12  N   UNL     1      34.569 -22.909 -15.176  0.00  0.00    -0.297 N 
ATOM     13  N   UNL     1      32.351 -23.040 -14.245  0.00  0.00    -0.228 NA
ATOM     14  C   UNL     1      34.106 -22.859 -17.352  0.00  0.00    +0.056 C 
ATOM     15  C   UNL     1      32.880 -22.938 -16.637  0.00  0.00    +0.037 C 
ATOM     16  C   UNL     1      33.204 -22.968 -15.284  0.00  0.00    +0.132 C 
ATOM     17  C   UNL     1      35.127 -22.843 -16.427  0.00  0.00    +0.066 C 
ATOM     18  C   UNL     1      31.519 -22.989 -16.978  0.00  0.00    +0.016 C 
ATOM     19  C   UNL     1      30.592 -23.064 -15.939  0.00  0.00    +0.077 C 
ATOM     20  C   UNL     1      31.055 -23.085 -14.631  0.00  0.00    +0.112 C 
ATOM     21  H   UNL     1      35.073 -22.914 -14.330  0.00  0.00    +0.154 HD
ENDBRANCH  10  14
ENDBRANCH   4  10
BRANCH   3  22
ATOM     22  N   UNL     1      33.929 -18.661 -21.454  0.00  0.00    -0.217 N 
ATOM     23  H   UNL     1      33.139 -18.960 -21.959  0.00  0.00    +0.173 HD
BRANCH  22  24
ATOM     24  S   UNL     1      34.382 -16.999 -21.421  0.00  0.00    +0.054 S 
ATOM     25  O   UNL     1      33.198 -16.197 -21.668  0.00  0.00    -0.154 OA
ATOM     26  O   UNL     1      35.239 -16.718 -20.287  0.00  0.00    -0.154 OA
BRANCH  24  27
ATOM     27  C   UNL     1      35.378 -16.916 -22.892  0.00  0.00    +0.172 C 
BRANCH  27  28
ATOM     28  C   UNL     1      34.879 -17.882 -23.954  0.00  0.00    +0.027 C 
ATOM     29  C   UNL     1      34.416 -17.148 -25.201  0.00  0.00    +0.002 C 
ENDBRANCH  27  28
ENDBRANCH  24  27
ENDBRANCH  22  24
ENDBRANCH   3  22
TORSDOF 6
ENDMDL
MODEL 7
REMARK VINA RESULT:     -10.4      4.304      8.179
REMARK  Name = 24180719
REMARK  6 active torsions:
REMARK  status: ('A' for Active; 'I' for Inactive)
REMARK    1  A    between atoms: C_3  and  N_22
REMARK    2  A    between atoms: C_4  and  C_10
REMARK    3  A    between atoms: C_10  and  C_14
REMARK    4  A    between atoms: N_22  and  S_24
REMARK    5  A    between atoms: S_24  and  C_27
REMARK    6  A    between atoms: C_27  and  C_28
REMARK                            x       y       z     vdW  Elec       q    Type
REMARK                         _______ _______ _______ _____ _____    ______ ____
ROOT
ATOM      1  F   UNL     1      34.100 -16.558 -20.998  0.00  0.00    -0.203 F 
ATOM      2  F   UNL     1      34.696 -19.748 -24.462  0.00  0.00    -0.204 F 
ATOM      3  C   UNL     1      34.610 -15.819 -23.191  0.00  0.00    +0.092 C 
ATOM      4  C   UNL     1      34.392 -18.176 -22.706  0.00  0.00    +0.095 C 
ATOM      5  C   UNL     1      34.364 -16.847 -22.282  0.00  0.00    +0.160 C 
ATOM      6  C   UNL     1      34.885 -16.119 -24.525  0.00  0.00    +0.020 C 
ATOM      7  C   UNL     1      34.666 -18.475 -24.040  0.00  0.00    +0.145 C 
ATOM      8  C   UNL     1      34.913 -17.446 -24.950  0.00  0.00    +0.031 C 
ENDROOT
BRANCH   4  10
ATOM      9  O   UNL     1      32.966 -19.722 -21.727  0.00  0.00    -0.286 OA
ATOM     10  C   UNL     1      34.128 -19.277 -21.732  0.00  0.00    +0.201 C 
BRANCH  10  14
ATOM     11 CL   UNL     1      33.167 -23.431 -17.579  0.00  0.00    -0.081 Cl
ATOM     12  N   UNL     1      37.168 -20.000 -19.928  0.00  0.00    -0.297 N 
ATOM     13  N   UNL     1      36.695 -21.685 -18.272  0.00  0.00    -0.228 NA
ATOM     14  C   UNL     1      35.163 -19.761 -20.862  0.00  0.00    +0.056 C 
ATOM     15  C   UNL     1      35.063 -20.741 -19.839  0.00  0.00    +0.037 C 
ATOM     16  C   UNL     1      36.330 -20.867 -19.277  0.00  0.00    +0.132 C 
ATOM     17  C   UNL     1      36.468 -19.323 -20.894  0.00  0.00    +0.066 C 
ATOM     18  C   UNL     1      34.040 -21.547 -19.316  0.00  0.00    +0.016 C 
ATOM     19  C   UNL     1      34.364 -22.413 -18.272  0.00  0.00    +0.077 C 
ATOM     20  C   UNL     1      35.671 -22.436 -17.805  0.00  0.00    +0.112 C 
ATOM     21  H   UNL     1      38.125 -19.882 -19.733  0.00  0.00    +0.154 HD
ENDBRANCH  10  14
ENDBRANCH   4  10
BRANCH   3  22
ATOM     22  N   UNL     1      34.582 -14.457 -22.759  0.00  0.00    -0.217 N 
ATOM     23  H   UNL     1      35.300 -14.091 -22.194  0.00  0.00    +0.173 HD
BRANCH  22  24
ATOM     24  S   UNL     1      33.258 -13.475 -23.254  0.00  0.00    +0.054 S 
ATOM     25  O   UNL     1      33.756 -12.141 -23.536  0.00  0.00    -0.154 OA
ATOM     26  O   UNL     1      32.428 -14.170 -24.218  0.00  0.00    -0.154 OA
BRANCH  24  27
ATOM     27  C   UNL     1      32.352 -13.375 -21.727  0.00  0.00    +0.172 C 
BRANCH  27  28
ATOM     28  C   UNL     1      31.645 -12.037 -21.589  0.00  0.00    +0.027 C 
ATOM     29  C   UNL     1      31.571 -11.594 -20.137  0.00  0.00    +0.002 C 
ENDBRANCH  27  28
ENDBRANCH  24  27
ENDBRANCH  22  24
ENDBRANCH   3  22
TORSDOF 6
ENDMDL
MODEL 8
REMARK VINA RESULT:     -10.2      8.286     11.225
REMARK  Name = 24180719
REMARK  6 active torsions:
REMARK  status: ('A' for Active; 'I' for Inactive)
REMARK    1  A    between atoms: C_3  and  N_22
REMARK    2  A    between atoms: C_4  and  C_10
REMARK    3  A    between atoms: C_10  and  C_14
REMARK    4  A    between atoms: N_22  and  S_24
REMARK    5  A    between atoms: S_24  and  C_27
REMARK    6  A    between atoms: C_27  and  C_28
REMARK                            x       y       z     vdW  Elec       q    Type
REMARK                         _______ _______ _______ _____ _____    ______ ____
ROOT
ATOM      1  F   UNL     1      32.465 -10.014 -23.861  0.00  0.00    -0.203 F 
ATOM      2  F   UNL     1      32.337  -7.981 -19.573  0.00  0.00    -0.204 F 
ATOM      3  C   UNL     1      31.670 -11.254 -22.004  0.00  0.00    +0.092 C 
ATOM      4  C   UNL     1      32.414  -8.971 -21.732  0.00  0.00    +0.095 C 
ATOM      5  C   UNL     1      32.187 -10.079 -22.549  0.00  0.00    +0.160 C 
ATOM      6  C   UNL     1      31.381 -11.322 -20.641  0.00  0.00    +0.020 C 
ATOM      7  C   UNL     1      32.124  -9.039 -20.370  0.00  0.00    +0.145 C 
ATOM      8  C   UNL     1      31.608 -10.214 -19.824  0.00  0.00    +0.031 C 
ENDROOT
BRANCH   4  10
ATOM      9  O   UNL     1      34.200  -7.692 -22.478  0.00  0.00    -0.286 OA
ATOM     10  C   UNL     1      32.967  -7.712 -22.317  0.00  0.00    +0.201 C 
BRANCH  10  14
ATOM     11 CL   UNL     1      33.423  -4.694 -27.426  0.00  0.00    -0.081 Cl
ATOM     12  N   UNL     1      30.497  -5.086 -22.469  0.00  0.00    -0.297 N 
ATOM     13  N   UNL     1      30.748  -3.916 -24.560  0.00  0.00    -0.228 NA
ATOM     14  C   UNL     1      32.108  -6.610 -22.648  0.00  0.00    +0.056 C 
ATOM     15  C   UNL     1      32.115  -5.814 -23.824  0.00  0.00    +0.037 C 
ATOM     16  C   UNL     1      31.098  -4.874 -23.681  0.00  0.00    +0.132 C 
ATOM     17  C   UNL     1      31.103  -6.139 -21.832  0.00  0.00    +0.066 C 
ATOM     18  C   UNL     1      32.869  -5.777 -25.009  0.00  0.00    +0.016 C 
ATOM     19  C   UNL     1      32.547  -4.803 -25.953  0.00  0.00    +0.077 C 
ATOM     20  C   UNL     1      31.506  -3.925 -25.680  0.00  0.00    +0.112 C 
ATOM     21  H   UNL     1      29.745  -4.563 -22.109  0.00  0.00    +0.154 HD
ENDBRANCH  10  14
ENDBRANCH   4  10
BRANCH   3  22
ATOM     22  N   UNL     1      31.437 -12.390 -22.838  0.00  0.00    -0.217 N 
ATOM     23  H   UNL     1      30.538 -12.586 -23.186  0.00  0.00    +0.173 HD
BRANCH  22  24
ATOM     24  S   UNL     1      32.774 -13.408 -23.217  0.00  0.00    +0.054 S 
ATOM     25  O   UNL     1      32.524 -14.034 -24.501  0.00  0.00    -0.154 OA
ATOM     26  O   UNL     1      34.030 -12.732 -22.958  0.00  0.00    -0.154 OA
BRANCH  24  27
ATOM     27  C   UNL     1      32.568 -14.669 -21.980  0.00  0.00    +0.172 C 
BRANCH  27  28
ATOM     28  C   UNL     1      33.507 -14.451 -20.805  0.00  0.00    +0.027 C 
ATOM     29  C   UNL     1      34.508 -15.587 -20.673  0.00  0.00    +0.002 C 
ENDBRANCH  27  28
ENDBRANCH  24  27
ENDBRANCH  22  24
ENDBRANCH   3  22
TORSDOF 6
ENDMDL
MODEL 9
REMARK VINA RESULT:     -10.2      3.782      5.723
REMARK  Name = 24180719
REMARK  6 active torsions:
REMARK  status: ('A' for Active; 'I' for Inactive)
REMARK    1  A    between atoms: C_3  and  N_22
REMARK    2  A    between atoms: C_4  and  C_10
REMARK    3  A    between atoms: C_10  and  C_14
REMARK    4  A    between atoms: N_22  and  S_24
REMARK    5  A    between atoms: S_24  and  C_27
REMARK    6  A    between atoms: C_27  and  C_28
REMARK                            x       y       z     vdW  Elec       q    Type
REMARK                         _______ _______ _______ _____ _____    ______ ____
ROOT
ATOM      1  F   UNL     1      36.488 -22.454 -17.707  0.00  0.00    -0.203 F 
ATOM      2  F   UNL     1      31.816 -23.250 -17.434  0.00  0.00    -0.204 F 
ATOM      3  C   UNL     1      35.499 -22.893 -15.598  0.00  0.00    +0.092 C 
ATOM      4  C   UNL     1      34.152 -22.847 -17.603  0.00  0.00    +0.095 C 
ATOM      5  C   UNL     1      35.394 -22.728 -16.979  0.00  0.00    +0.160 C 
ATOM      6  C   UNL     1      34.363 -23.177 -14.841  0.00  0.00    +0.020 C 
ATOM      7  C   UNL     1      33.016 -23.132 -16.846  0.00  0.00    +0.145 C 
ATOM      8  C   UNL     1      33.121 -23.297 -15.465  0.00  0.00    +0.031 C 
ENDROOT
BRANCH   4  10
ATOM      9  O   UNL     1      34.300 -23.678 -19.765  0.00  0.00    -0.286 OA
ATOM     10  C   UNL     1      34.039 -22.671 -19.083  0.00  0.00    +0.201 C 
BRANCH  10  14
ATOM     11 CL   UNL     1      37.977 -18.971 -21.578  0.00  0.00    -0.081 Cl
ATOM     12  N   UNL     1      32.398 -19.695 -20.295  0.00  0.00    -0.297 N 
ATOM     13  N   UNL     1      34.055 -18.254 -21.286  0.00  0.00    -0.228 NA
ATOM     14  C   UNL     1      33.666 -21.407 -19.651  0.00  0.00    +0.056 C 
ATOM     15  C   UNL     1      34.503 -20.441 -20.271  0.00  0.00    +0.037 C 
ATOM     16  C   UNL     1      33.682 -19.386 -20.661  0.00  0.00    +0.132 C 
ATOM     17  C   UNL     1      32.377 -20.920 -19.680  0.00  0.00    +0.066 C 
ATOM     18  C   UNL     1      35.874 -20.331 -20.553  0.00  0.00    +0.016 C 
ATOM     19  C   UNL     1      36.315 -19.178 -21.200  0.00  0.00    +0.077 C 
ATOM     20  C   UNL     1      35.385 -18.202 -21.532  0.00  0.00    +0.112 C 
ATOM     21  H   UNL     1      31.611 -19.124 -20.449  0.00  0.00    +0.154 HD
ENDBRANCH  10  14
ENDBRANCH   4  10
BRANCH   3  22
ATOM     22  N   UNL     1      36.769 -22.771 -14.956  0.00  0.00    -0.217 N 
ATOM     23  H   UNL     1      37.078 -21.905 -14.605  0.00  0.00    +0.173 HD
BRANCH  22  24
ATOM     24  S   UNL     1      37.747 -24.182 -14.814  0.00  0.00    +0.054 S 
ATOM     25  O   UNL     1      36.998 -25.313 -15.329  0.00  0.00    -0.154 OA
ATOM     26  O   UNL     1      39.098 -23.925 -15.269  0.00  0.00    -0.154 OA
BRANCH  24  27
ATOM     27  C   UNL     1      37.791 -24.356 -13.044  0.00  0.00    +0.172 C 
BRANCH  27  28
ATOM     28  C   UNL     1      36.705 -25.298 -12.553  0.00  0.00    +0.027 C 
ATOM     29  C   UNL     1      35.696 -24.575 -11.676  0.00  0.00    +0.002 C 
ENDBRANCH  27  28
ENDBRANCH  24  27
ENDBRANCH  22  24
ENDBRANCH   3  22
TORSDOF 6
ENDMDL
