MODEL 1
REMARK VINA RESULT:      -7.9      0.000      0.000
REMARK  Name = 68865
REMARK  7 active torsions:
REMARK  status: ('A' for Active; 'I' for Inactive)
REMARK    1  A    between atoms: C_1  and  O_12
REMARK    2  A    between atoms: C_2  and  N_8
REMARK    3  A    between atoms: O_12  and  C_14
REMARK    4  A    between atoms: C_14  and  C_15
REMARK    5  A    between atoms: C_15  and  N_16
REMARK    6  A    between atoms: N_16  and  C_18
REMARK    7  A    between atoms: N_16  and  C_20
REMARK                            x       y       z     vdW  Elec       q    Type
REMARK                         _______ _______ _______ _____ _____    ______ ____
ROOT
ATOM      1  C   UNL     1      35.062 -16.726 -23.205  0.00  0.00    +0.148 C 
ATOM      2  C   UNL     1      34.845 -18.891 -21.519  0.00  0.00    +0.051 C 
ATOM      3  C   UNL     1      34.916 -16.500 -21.855  0.00  0.00    +0.039 C 
ATOM      4  C   UNL     1      35.104 -17.992 -23.747  0.00  0.00    +0.039 C 
ATOM      5  C   UNL     1      34.806 -17.598 -21.001  0.00  0.00    +0.018 C 
ATOM      6  C   UNL     1      34.995 -19.089 -22.892  0.00  0.00    +0.018 C 
ENDROOT
BRANCH   2   8
ATOM      7  O   UNL     1      32.413 -20.383 -20.556  0.00  0.00    -0.275 OA
ATOM      8  N   UNL     1      34.735 -19.988 -20.664  0.00  0.00    -0.284 N 
ATOM      9  C   UNL     1      33.571 -20.646 -20.245  0.00  0.00    +0.227 C 
ATOM     10  C   UNL     1      33.879 -21.792 -19.314  0.00  0.00    +0.095 C 
ATOM     11  H   UNL     1      35.582 -20.345 -20.310  0.00  0.00    +0.155 HD
ENDBRANCH   2   8
BRANCH   1  12
ATOM     12  O   UNL     1      35.174 -15.627 -24.061  0.00  0.00    -0.426 OA
BRANCH  12  14
ATOM     13  O   UNL     1      34.058 -16.082 -26.064  0.00  0.00    -0.252 OA
ATOM     14  C   UNL     1      34.121 -15.537 -24.971  0.00  0.00    +0.300 C 
BRANCH  14  15
ATOM     15  C   UNL     1      33.068 -14.640 -24.367  0.00  0.00    +0.035 C 
BRANCH  15  16
ATOM     16  N   UNL     1      33.690 -13.378 -23.969  0.00  0.00    +0.394 N 
ATOM     17  H   UNL     1      34.645 -13.572 -23.664  0.00  0.00    -0.079 HD
BRANCH  16  18
ATOM     18  C   UNL     1      33.743 -12.454 -25.101  0.00  0.00    -0.077 C 
ATOM     19  C   UNL     1      34.079 -11.045 -24.646  0.00  0.00    -0.025 C 
ENDBRANCH  16  18
BRANCH  16  20
ATOM     20  C   UNL     1      32.961 -12.779 -22.853  0.00  0.00    -0.077 C 
ATOM     21  C   UNL     1      32.350 -13.845 -21.960  0.00  0.00    -0.025 C 
ENDBRANCH  16  20
ENDBRANCH  15  16
ENDBRANCH  14  15
ENDBRANCH  12  14
ENDBRANCH   1  12
TORSDOF 7
ENDMDL
MODEL 2
REMARK VINA RESULT:      -7.8      1.264      2.317
REMARK  Name = 68865
REMARK  7 active torsions:
REMARK  status: ('A' for Active; 'I' for Inactive)
REMARK    1  A    between atoms: C_1  and  O_12
REMARK    2  A    between atoms: C_2  and  N_8
REMARK    3  A    between atoms: O_12  and  C_14
REMARK    4  A    between atoms: C_14  and  C_15
REMARK    5  A    between atoms: C_15  and  N_16
REMARK    6  A    between atoms: N_16  and  C_18
REMARK    7  A    between atoms: N_16  and  C_20
REMARK                            x       y       z     vdW  Elec       q    Type
REMARK                         _______ _______ _______ _____ _____    ______ ____
ROOT
ATOM      1  C   UNL     1      35.171 -16.947 -23.017  0.00  0.00    +0.148 C 
ATOM      2  C   UNL     1      34.856 -19.227 -21.505  0.00  0.00    +0.051 C 
ATOM      3  C   UNL     1      34.881 -18.131 -23.658  0.00  0.00    +0.039 C 
ATOM      4  C   UNL     1      35.310 -16.858 -21.649  0.00  0.00    +0.039 C 
ATOM      5  C   UNL     1      34.722 -19.286 -22.891  0.00  0.00    +0.018 C 
ATOM      6  C   UNL     1      35.149 -18.013 -20.883  0.00  0.00    +0.018 C 
ENDROOT
BRANCH   2   8
ATOM      7  O   UNL     1      32.476 -20.236 -19.961  0.00  0.00    -0.275 OA
ATOM      8  N   UNL     1      34.696 -20.383 -20.739  0.00  0.00    -0.284 N 
ATOM      9  C   UNL     1      33.561 -20.805 -20.036  0.00  0.00    +0.227 C 
ATOM     10  C   UNL     1      33.796 -22.116 -19.330  0.00  0.00    +0.095 C 
ATOM     11  H   UNL     1      35.481 -20.975 -20.687  0.00  0.00    +0.155 HD
ENDBRANCH   2   8
BRANCH   1  12
ATOM     12  O   UNL     1      35.329 -15.790 -23.784  0.00  0.00    -0.426 OA
BRANCH  12  14
ATOM     13  O   UNL     1      33.269 -15.295 -24.773  0.00  0.00    -0.252 OA
ATOM     14  C   UNL     1      34.140 -15.077 -23.943  0.00  0.00    +0.300 C 
BRANCH  14  15
ATOM     15  C   UNL     1      34.120 -13.980 -22.906  0.00  0.00    +0.035 C 
BRANCH  15  16
ATOM     16  N   UNL     1      32.768 -13.867 -22.361  0.00  0.00    +0.394 N 
ATOM     17  H   UNL     1      32.169 -14.538 -22.843  0.00  0.00    -0.079 HD
BRANCH  16  18
ATOM     18  C   UNL     1      32.763 -14.182 -20.933  0.00  0.00    -0.077 C 
ATOM     19  C   UNL     1      32.286 -15.603 -20.686  0.00  0.00    -0.025 C 
ENDBRANCH  16  18
BRANCH  16  20
ATOM     20  C   UNL     1      32.236 -12.524 -22.590  0.00  0.00    -0.077 C 
ATOM     21  C   UNL     1      31.550 -11.986 -21.346  0.00  0.00    -0.025 C 
ENDBRANCH  16  20
ENDBRANCH  15  16
ENDBRANCH  14  15
ENDBRANCH  12  14
ENDBRANCH   1  12
TORSDOF 7
ENDMDL
MODEL 3
REMARK VINA RESULT:      -7.7      3.660      9.533
REMARK  Name = 68865
REMARK  7 active torsions:
REMARK  status: ('A' for Active; 'I' for Inactive)
REMARK    1  A    between atoms: C_1  and  O_12
REMARK    2  A    between atoms: C_2  and  N_8
REMARK    3  A    between atoms: O_12  and  C_14
REMARK    4  A    between atoms: C_14  and  C_15
REMARK    5  A    between atoms: C_15  and  N_16
REMARK    6  A    between atoms: N_16  and  C_18
REMARK    7  A    between atoms: N_16  and  C_20
REMARK                            x       y       z     vdW  Elec       q    Type
REMARK                         _______ _______ _______ _____ _____    ______ ____
ROOT
ATOM      1  C   UNL     1      34.412 -22.255 -19.126  0.00  0.00    +0.148 C 
ATOM      2  C   UNL     1      34.702 -19.938 -20.587  0.00  0.00    +0.051 C 
ATOM      3  C   UNL     1      33.281 -21.570 -19.512  0.00  0.00    +0.039 C 
ATOM      4  C   UNL     1      35.683 -21.826 -19.441  0.00  0.00    +0.039 C 
ATOM      5  C   UNL     1      33.428 -20.397 -20.253  0.00  0.00    +0.018 C 
ATOM      6  C   UNL     1      35.830 -20.652 -20.182  0.00  0.00    +0.018 C 
ENDROOT
BRANCH   2   8
ATOM      7  O   UNL     1      34.892 -19.513 -23.562  0.00  0.00    -0.275 OA
ATOM      8  N   UNL     1      34.848 -18.764 -21.327  0.00  0.00    -0.284 N 
ATOM      9  C   UNL     1      34.933 -18.623 -22.718  0.00  0.00    +0.227 C 
ATOM     10  C   UNL     1      35.088 -17.179 -23.125  0.00  0.00    +0.095 C 
ATOM     11  H   UNL     1      34.897 -17.931 -20.805  0.00  0.00    +0.155 HD
ENDBRANCH   2   8
BRANCH   1  12
ATOM     12  O   UNL     1      34.266 -23.431 -18.387  0.00  0.00    -0.426 OA
BRANCH  12  14
ATOM     13  O   UNL     1      32.464 -23.342 -16.900  0.00  0.00    -0.252 OA
ATOM     14  C   UNL     1      33.655 -23.223 -17.150  0.00  0.00    +0.300 C 
BRANCH  14  15
ATOM     15  C   UNL     1      34.730 -22.822 -16.169  0.00  0.00    +0.035 C 
BRANCH  15  16
ATOM     16  N   UNL     1      35.388 -24.028 -15.667  0.00  0.00    +0.394 N 
ATOM     17  H   UNL     1      35.360 -24.739 -16.398  0.00  0.00    -0.079 HD
BRANCH  16  18
ATOM     18  C   UNL     1      36.787 -23.750 -15.344  0.00  0.00    -0.077 C 
ATOM     19  C   UNL     1      37.322 -22.593 -16.170  0.00  0.00    -0.025 C 
ENDBRANCH  16  18
BRANCH  16  20
ATOM     20  C   UNL     1      34.684 -24.542 -14.493  0.00  0.00    -0.077 C 
ATOM     21  C   UNL     1      35.239 -23.940 -13.213  0.00  0.00    -0.025 C 
ENDBRANCH  16  20
ENDBRANCH  15  16
ENDBRANCH  14  15
ENDBRANCH  12  14
ENDBRANCH   1  12
TORSDOF 7
ENDMDL
MODEL 4
REMARK VINA RESULT:      -7.6      2.341      3.857
REMARK  Name = 68865
REMARK  7 active torsions:
REMARK  status: ('A' for Active; 'I' for Inactive)
REMARK    1  A    between atoms: C_1  and  O_12
REMARK    2  A    between atoms: C_2  and  N_8
REMARK    3  A    between atoms: O_12  and  C_14
REMARK    4  A    between atoms: C_14  and  C_15
REMARK    5  A    between atoms: C_15  and  N_16
REMARK    6  A    between atoms: N_16  and  C_18
REMARK    7  A    between atoms: N_16  and  C_20
REMARK                            x       y       z     vdW  Elec       q    Type
REMARK                         _______ _______ _______ _____ _____    ______ ____
ROOT
ATOM      1  C   UNL     1      34.714 -19.477 -21.247  0.00  0.00    +0.148 C 
ATOM      2  C   UNL     1      33.518 -21.246 -19.509  0.00  0.00    +0.051 C 
ATOM      3  C   UNL     1      35.509 -20.367 -20.559  0.00  0.00    +0.039 C 
ATOM      4  C   UNL     1      33.345 -19.435 -21.099  0.00  0.00    +0.039 C 
ATOM      5  C   UNL     1      34.902 -21.264 -19.679  0.00  0.00    +0.018 C 
ATOM      6  C   UNL     1      32.739 -20.332 -20.219  0.00  0.00    +0.018 C 
ENDROOT
BRANCH   2   8
ATOM      7  O   UNL     1      34.699 -22.912 -17.296  0.00  0.00    -0.275 OA
ATOM      8  N   UNL     1      32.913 -22.143 -18.628  0.00  0.00    -0.284 N 
ATOM      9  C   UNL     1      33.514 -22.897 -17.612  0.00  0.00    +0.227 C 
ATOM     10  C   UNL     1      32.509 -23.751 -16.880  0.00  0.00    +0.095 C 
ATOM     11  H   UNL     1      31.941 -22.260 -18.734  0.00  0.00    +0.155 HD
ENDBRANCH   2   8
BRANCH   1  12
ATOM     12  O   UNL     1      35.321 -18.580 -22.130  0.00  0.00    -0.426 OA
BRANCH  12  14
ATOM     13  O   UNL     1      35.319 -16.921 -20.483  0.00  0.00    -0.252 OA
ATOM     14  C   UNL     1      35.324 -17.268 -21.656  0.00  0.00    +0.300 C 
BRANCH  14  15
ATOM     15  C   UNL     1      35.333 -16.347 -22.852  0.00  0.00    +0.035 C 
BRANCH  15  16
ATOM     16  N   UNL     1      33.957 -16.130 -23.294  0.00  0.00    +0.394 N 
ATOM     17  H   UNL     1      33.383 -16.904 -22.957  0.00  0.00    -0.079 HD
BRANCH  16  18
ATOM     18  C   UNL     1      33.431 -14.885 -22.735  0.00  0.00    -0.077 C 
ATOM     19  C   UNL     1      33.871 -13.685 -23.555  0.00  0.00    -0.025 C 
ENDBRANCH  16  18
BRANCH  16  20
ATOM     20  C   UNL     1      33.887 -16.104 -24.754  0.00  0.00    -0.077 C 
ATOM     21  C   UNL     1      34.592 -17.306 -25.359  0.00  0.00    -0.025 C 
ENDBRANCH  16  20
ENDBRANCH  15  16
ENDBRANCH  14  15
ENDBRANCH  12  14
ENDBRANCH   1  12
TORSDOF 7
ENDMDL
MODEL 5
REMARK VINA RESULT:      -7.6      3.764      9.496
REMARK  Name = 68865
REMARK  7 active torsions:
REMARK  status: ('A' for Active; 'I' for Inactive)
REMARK    1  A    between atoms: C_1  and  O_12
REMARK    2  A    between atoms: C_2  and  N_8
REMARK    3  A    between atoms: O_12  and  C_14
REMARK    4  A    between atoms: C_14  and  C_15
REMARK    5  A    between atoms: C_15  and  N_16
REMARK    6  A    between atoms: N_16  and  C_18
REMARK    7  A    between atoms: N_16  and  C_20
REMARK                            x       y       z     vdW  Elec       q    Type
REMARK                         _______ _______ _______ _____ _____    ______ ____
ROOT
ATOM      1  C   UNL     1      34.254 -22.209 -19.169  0.00  0.00    +0.148 C 
ATOM      2  C   UNL     1      34.615 -19.907 -20.637  0.00  0.00    +0.051 C 
ATOM      3  C   UNL     1      33.148 -21.467 -19.519  0.00  0.00    +0.039 C 
ATOM      4  C   UNL     1      35.535 -21.845 -19.524  0.00  0.00    +0.039 C 
ATOM      5  C   UNL     1      33.331 -20.301 -20.263  0.00  0.00    +0.018 C 
ATOM      6  C   UNL     1      35.717 -20.679 -20.269  0.00  0.00    +0.018 C 
ENDROOT
BRANCH   2   8
ATOM      7  O   UNL     1      34.889 -19.506 -23.609  0.00  0.00    -0.275 OA
ATOM      8  N   UNL     1      34.797 -18.741 -21.381  0.00  0.00    -0.284 N 
ATOM      9  C   UNL     1      34.921 -18.611 -22.770  0.00  0.00    +0.227 C 
ATOM     10  C   UNL     1      35.106 -17.172 -23.183  0.00  0.00    +0.095 C 
ATOM     11  H   UNL     1      34.844 -17.904 -20.864  0.00  0.00    +0.155 HD
ENDBRANCH   2   8
BRANCH   1  12
ATOM     12  O   UNL     1      34.071 -23.378 -18.426  0.00  0.00    -0.426 OA
BRANCH  12  14
ATOM     13  O   UNL     1      34.892 -22.696 -16.346  0.00  0.00    -0.252 OA
ATOM     14  C   UNL     1      33.999 -23.143 -17.053  0.00  0.00    +0.300 C 
BRANCH  14  15
ATOM     15  C   UNL     1      32.620 -23.544 -16.590  0.00  0.00    +0.035 C 
BRANCH  15  16
ATOM     16  N   UNL     1      32.470 -23.188 -15.180  0.00  0.00    +0.394 N 
ATOM     17  H   UNL     1      33.072 -22.388 -14.984  0.00  0.00    -0.079 HD
BRANCH  16  18
ATOM     18  C   UNL     1      31.087 -22.811 -14.892  0.00  0.00    -0.077 C 
ATOM     19  C   UNL     1      30.242 -22.817 -16.153  0.00  0.00    -0.025 C 
ENDBRANCH  16  18
BRANCH  16  20
ATOM     20  C   UNL     1      32.886 -24.300 -14.326  0.00  0.00    -0.077 C 
ATOM     21  C   UNL     1      31.683 -25.048 -13.774  0.00  0.00    -0.025 C 
ENDBRANCH  16  20
ENDBRANCH  15  16
ENDBRANCH  14  15
ENDBRANCH  12  14
ENDBRANCH   1  12
TORSDOF 7
ENDMDL
MODEL 6
REMARK VINA RESULT:      -7.5      3.581      9.370
REMARK  Name = 68865
REMARK  7 active torsions:
REMARK  status: ('A' for Active; 'I' for Inactive)
REMARK    1  A    between atoms: C_1  and  O_12
REMARK    2  A    between atoms: C_2  and  N_8
REMARK    3  A    between atoms: O_12  and  C_14
REMARK    4  A    between atoms: C_14  and  C_15
REMARK    5  A    between atoms: C_15  and  N_16
REMARK    6  A    between atoms: N_16  and  C_18
REMARK    7  A    between atoms: N_16  and  C_20
REMARK                            x       y       z     vdW  Elec       q    Type
REMARK                         _______ _______ _______ _____ _____    ______ ____
ROOT
ATOM      1  C   UNL     1      34.597 -21.742 -19.577  0.00  0.00    +0.148 C 
ATOM      2  C   UNL     1      34.484 -19.396 -21.015  0.00  0.00    +0.051 C 
ATOM      3  C   UNL     1      35.772 -21.192 -20.038  0.00  0.00    +0.039 C 
ATOM      4  C   UNL     1      33.367 -21.165 -19.807  0.00  0.00    +0.039 C 
ATOM      5  C   UNL     1      35.714 -20.003 -20.766  0.00  0.00    +0.018 C 
ATOM      6  C   UNL     1      33.310 -19.976 -20.535  0.00  0.00    +0.018 C 
ENDROOT
BRANCH   2   8
ATOM      7  O   UNL     1      35.208 -16.582 -20.225  0.00  0.00    -0.275 OA
ATOM      8  N   UNL     1      34.428 -18.208 -21.744  0.00  0.00    -0.284 N 
ATOM      9  C   UNL     1      34.777 -16.918 -21.324  0.00  0.00    +0.227 C 
ATOM     10  C   UNL     1      34.569 -15.899 -22.416  0.00  0.00    +0.095 C 
ATOM     11  H   UNL     1      34.101 -18.286 -22.669  0.00  0.00    +0.155 HD
ENDBRANCH   2   8
BRANCH   1  12
ATOM     12  O   UNL     1      34.654 -22.931 -18.845  0.00  0.00    -0.426 OA
BRANCH  12  14
ATOM     13  O   UNL     1      35.728 -22.157 -16.918  0.00  0.00    -0.252 OA
ATOM     14  C   UNL     1      34.794 -22.719 -17.473  0.00  0.00    +0.300 C 
BRANCH  14  15
ATOM     15  C   UNL     1      33.584 -23.311 -16.791  0.00  0.00    +0.035 C 
BRANCH  15  16
ATOM     16  N   UNL     1      33.752 -23.194 -15.343  0.00  0.00    +0.394 N 
ATOM     17  H   UNL     1      34.307 -22.360 -15.149  0.00  0.00    -0.079 HD
BRANCH  16  18
ATOM     18  C   UNL     1      32.452 -23.050 -14.689  0.00  0.00    -0.077 C 
ATOM     19  C   UNL     1      31.318 -23.418 -15.631  0.00  0.00    -0.025 C 
ENDBRANCH  16  18
BRANCH  16  20
ATOM     20  C   UNL     1      34.463 -24.358 -14.816  0.00  0.00    -0.077 C 
ATOM     21  C   UNL     1      34.595 -24.282 -13.305  0.00  0.00    -0.025 C 
ENDBRANCH  16  20
ENDBRANCH  15  16
ENDBRANCH  14  15
ENDBRANCH  12  14
ENDBRANCH   1  12
TORSDOF 7
ENDMDL
MODEL 7
REMARK VINA RESULT:      -7.4      2.390      7.240
REMARK  Name = 68865
REMARK  7 active torsions:
REMARK  status: ('A' for Active; 'I' for Inactive)
REMARK    1  A    between atoms: C_1  and  O_12
REMARK    2  A    between atoms: C_2  and  N_8
REMARK    3  A    between atoms: O_12  and  C_14
REMARK    4  A    between atoms: C_14  and  C_15
REMARK    5  A    between atoms: C_15  and  N_16
REMARK    6  A    between atoms: N_16  and  C_18
REMARK    7  A    between atoms: N_16  and  C_20
REMARK                            x       y       z     vdW  Elec       q    Type
REMARK                         _______ _______ _______ _____ _____    ______ ____
ROOT
ATOM      1  C   UNL     1      32.861 -15.018 -21.614  0.00  0.00    +0.148 C 
ATOM      2  C   UNL     1      32.126 -12.424 -22.174  0.00  0.00    +0.051 C 
ATOM      3  C   UNL     1      32.876 -14.595 -22.924  0.00  0.00    +0.039 C 
ATOM      4  C   UNL     1      32.493 -14.195 -20.572  0.00  0.00    +0.039 C 
ATOM      5  C   UNL     1      32.503 -13.280 -23.208  0.00  0.00    +0.018 C 
ATOM      6  C   UNL     1      32.121 -12.881 -20.856  0.00  0.00    +0.018 C 
ENDROOT
BRANCH   2   8
ATOM      7  O   UNL     1      33.666 -10.196 -23.489  0.00  0.00    -0.275 OA
ATOM      8  N   UNL     1      31.753 -11.110 -22.459  0.00  0.00    -0.284 N 
ATOM      9  C   UNL     1      32.515 -10.108 -23.074  0.00  0.00    +0.227 C 
ATOM     10  C   UNL     1      31.745  -8.817 -23.199  0.00  0.00    +0.095 C 
ATOM     11  H   UNL     1      30.840 -10.855 -22.194  0.00  0.00    +0.155 HD
ENDBRANCH   2   8
BRANCH   1  12
ATOM     12  O   UNL     1      33.236 -16.334 -21.329  0.00  0.00    -0.426 OA
BRANCH  12  14
ATOM     13  O   UNL     1      35.163 -16.021 -20.042  0.00  0.00    -0.252 OA
ATOM     14  C   UNL     1      34.593 -16.460 -21.032  0.00  0.00    +0.300 C 
BRANCH  14  15
ATOM     15  C   UNL     1      35.239 -17.236 -22.154  0.00  0.00    +0.035 C 
BRANCH  15  16
ATOM     16  N   UNL     1      34.534 -18.505 -22.321  0.00  0.00    +0.394 N 
ATOM     17  H   UNL     1      33.530 -18.320 -22.308  0.00  0.00    -0.079 HD
BRANCH  16  18
ATOM     18  C   UNL     1      34.878 -19.116 -23.604  0.00  0.00    -0.077 C 
ATOM     19  C   UNL     1      34.552 -18.187 -24.760  0.00  0.00    -0.025 C 
ENDBRANCH  16  18
BRANCH  16  20
ATOM     20  C   UNL     1      34.850 -19.414 -21.220  0.00  0.00    -0.077 C 
ATOM     21  C   UNL     1      33.592 -20.046 -20.650  0.00  0.00    -0.025 C 
ENDBRANCH  16  20
ENDBRANCH  15  16
ENDBRANCH  14  15
ENDBRANCH  12  14
ENDBRANCH   1  12
TORSDOF 7
ENDMDL
MODEL 8
REMARK VINA RESULT:      -7.3      2.120      3.087
REMARK  Name = 68865
REMARK  7 active torsions:
REMARK  status: ('A' for Active; 'I' for Inactive)
REMARK    1  A    between atoms: C_1  and  O_12
REMARK    2  A    between atoms: C_2  and  N_8
REMARK    3  A    between atoms: O_12  and  C_14
REMARK    4  A    between atoms: C_14  and  C_15
REMARK    5  A    between atoms: C_15  and  N_16
REMARK    6  A    between atoms: N_16  and  C_18
REMARK    7  A    between atoms: N_16  and  C_20
REMARK                            x       y       z     vdW  Elec       q    Type
REMARK                         _______ _______ _______ _____ _____    ______ ____
ROOT
ATOM      1  C   UNL     1      34.507 -14.900 -22.425  0.00  0.00    +0.148 C 
ATOM      2  C   UNL     1      35.137 -17.380 -21.410  0.00  0.00    +0.051 C 
ATOM      3  C   UNL     1      34.896 -15.891 -23.297  0.00  0.00    +0.039 C 
ATOM      4  C   UNL     1      34.420 -15.099 -21.064  0.00  0.00    +0.039 C 
ATOM      5  C   UNL     1      35.216 -17.149 -22.782  0.00  0.00    +0.018 C 
ATOM      6  C   UNL     1      34.739 -16.356 -20.550  0.00  0.00    +0.018 C 
ENDROOT
BRANCH   2   8
ATOM      7  O   UNL     1      33.396 -19.781 -20.891  0.00  0.00    -0.275 OA
ATOM      8  N   UNL     1      35.457 -18.638 -20.896  0.00  0.00    -0.284 N 
ATOM      9  C   UNL     1      34.602 -19.724 -20.672  0.00  0.00    +0.227 C 
ATOM     10  C   UNL     1      35.340 -20.909 -20.102  0.00  0.00    +0.095 C 
ATOM     11  H   UNL     1      36.403 -18.779 -20.661  0.00  0.00    +0.155 HD
ENDBRANCH   2   8
BRANCH   1  12
ATOM     12  O   UNL     1      34.185 -13.641 -22.940  0.00  0.00    -0.426 OA
BRANCH  12  14
ATOM     13  O   UNL     1      32.262 -13.735 -24.267  0.00  0.00    -0.252 OA
ATOM     14  C   UNL     1      32.823 -13.495 -23.207  0.00  0.00    +0.300 C 
BRANCH  14  15
ATOM     15  C   UNL     1      32.161 -12.984 -21.950  0.00  0.00    +0.035 C 
BRANCH  15  16
ATOM     16  N   UNL     1      31.464 -11.736 -22.257  0.00  0.00    +0.394 N 
ATOM     17  H   UNL     1      30.867 -11.890 -23.070  0.00  0.00    -0.079 HD
BRANCH  16  18
ATOM     18  C   UNL     1      30.620 -11.332 -21.132  0.00  0.00    -0.077 C 
ATOM     19  C   UNL     1      31.423 -11.249 -19.845  0.00  0.00    -0.025 C 
ENDBRANCH  16  18
BRANCH  16  20
ATOM     20  C   UNL     1      32.423 -10.681 -22.580  0.00  0.00    -0.077 C 
ATOM     21  C   UNL     1      31.715  -9.415 -23.034  0.00  0.00    -0.025 C 
ENDBRANCH  16  20
ENDBRANCH  15  16
ENDBRANCH  14  15
ENDBRANCH  12  14
ENDBRANCH   1  12
TORSDOF 7
ENDMDL
MODEL 9
REMARK VINA RESULT:      -7.3      3.498      8.912
REMARK  Name = 68865
REMARK  7 active torsions:
REMARK  status: ('A' for Active; 'I' for Inactive)
REMARK    1  A    between atoms: C_1  and  O_12
REMARK    2  A    between atoms: C_2  and  N_8
REMARK    3  A    between atoms: O_12  and  C_14
REMARK    4  A    between atoms: C_14  and  C_15
REMARK    5  A    between atoms: C_15  and  N_16
REMARK    6  A    between atoms: N_16  and  C_18
REMARK    7  A    between atoms: N_16  and  C_20
REMARK                            x       y       z     vdW  Elec       q    Type
REMARK                         _______ _______ _______ _____ _____    ______ ____
ROOT
ATOM      1  C   UNL     1      34.756 -21.098 -19.577  0.00  0.00    +0.148 C 
ATOM      2  C   UNL     1      34.660 -19.297 -21.657  0.00  0.00    +0.051 C 
ATOM      3  C   UNL     1      35.940 -20.622 -20.094  0.00  0.00    +0.039 C 
ATOM      4  C   UNL     1      33.525 -20.709 -20.059  0.00  0.00    +0.039 C 
ATOM      5  C   UNL     1      35.891 -19.709 -21.148  0.00  0.00    +0.018 C 
ATOM      6  C   UNL     1      33.477 -19.796 -21.113  0.00  0.00    +0.018 C 
ENDROOT
BRANCH   2   8
ATOM      7  O   UNL     1      34.871 -19.731 -24.630  0.00  0.00    -0.275 OA
ATOM      8  N   UNL     1      34.613 -18.384 -22.712  0.00  0.00    -0.284 N 
ATOM      9  C   UNL     1      34.718 -18.642 -24.085  0.00  0.00    +0.227 C 
ATOM     10  C   UNL     1      34.617 -17.378 -24.901  0.00  0.00    +0.095 C 
ATOM     11  H   UNL     1      34.489 -17.441 -22.459  0.00  0.00    +0.155 HD
ENDBRANCH   2   8
BRANCH   1  12
ATOM     12  O   UNL     1      34.803 -22.010 -18.520  0.00  0.00    -0.426 OA
BRANCH  12  14
ATOM     13  O   UNL     1      33.814 -23.946 -19.379  0.00  0.00    -0.252 OA
ATOM     14  C   UNL     1      33.821 -22.997 -18.608  0.00  0.00    +0.300 C 
BRANCH  14  15
ATOM     15  C   UNL     1      32.761 -22.683 -17.580  0.00  0.00    +0.035 C 
BRANCH  15  16
ATOM     16  N   UNL     1      32.774 -23.723 -16.553  0.00  0.00    +0.394 N 
ATOM     17  H   UNL     1      32.930 -24.623 -17.007  0.00  0.00    -0.079 HD
BRANCH  16  18
ATOM     18  C   UNL     1      33.859 -23.488 -15.601  0.00  0.00    -0.077 C 
ATOM     19  C   UNL     1      33.427 -23.817 -14.183  0.00  0.00    -0.025 C 
ENDBRANCH  16  18
BRANCH  16  20
ATOM     20  C   UNL     1      31.487 -23.772 -15.859  0.00  0.00    -0.077 C 
ATOM     21  C   UNL     1      30.489 -22.813 -16.486  0.00  0.00    -0.025 C 
ENDBRANCH  16  20
ENDBRANCH  15  16
ENDBRANCH  14  15
ENDBRANCH  12  14
ENDBRANCH   1  12
TORSDOF 7
ENDMDL
