MODEL 1
REMARK VINA RESULT:     -11.1      0.000      0.000
REMARK  Name = 447098
REMARK  3 active torsions:
REMARK  status: ('A' for Active; 'I' for Inactive)
REMARK    1  A    between atoms: C_6  and  O_17
REMARK    2  A    between atoms: O_17  and  C_18
REMARK    3  A    between atoms: C_21  and  O_24
REMARK                            x       y       z     vdW  Elec       q    Type
REMARK                         _______ _______ _______ _____ _____    ______ ____
ROOT
ATOM      1  N   UNL     1      33.475 -14.589 -24.244  0.00  0.00    -0.332 NA
ATOM      2  N   UNL     1      33.951 -16.545 -25.568  0.00  0.00    -0.317 NA
ATOM      3  N   UNL     1      34.897 -18.453 -24.618  0.00  0.00    -0.335 N 
ATOM      4  N   UNL     1      32.999 -14.639 -26.542  0.00  0.00    -0.283 N 
ATOM      5  C   UNL     1      34.449 -16.516 -23.203  0.00  0.00    +0.177 C 
ATOM      6  C   UNL     1      34.943 -17.152 -22.050  0.00  0.00    +0.137 C 
ATOM      7  C   UNL     1      33.951 -15.205 -23.148  0.00  0.00    +0.137 C 
ATOM      8  C   UNL     1      34.420 -17.133 -24.451  0.00  0.00    +0.181 C 
ATOM      9  C   UNL     1      34.944 -16.479 -20.832  0.00  0.00    +0.034 C 
ATOM     10  C   UNL     1      33.963 -14.556 -21.916  0.00  0.00    +0.030 C 
ATOM     11  C   UNL     1      34.454 -15.180 -20.765  0.00  0.00    +0.005 C 
ATOM     12  C   UNL     1      33.501 -15.292 -25.395  0.00  0.00    +0.197 C 
ATOM     13  H   UNL     1      34.871 -18.878 -25.505  0.00  0.00    +0.144 HD
ATOM     14  H   UNL     1      35.256 -18.948 -23.847  0.00  0.00    +0.144 HD
ATOM     15  H   UNL     1      32.656 -13.718 -26.473  0.00  0.00    +0.156 HD
ATOM     16  H   UNL     1      32.992 -15.103 -27.409  0.00  0.00    +0.156 HD
ENDROOT
BRANCH   6  17
ATOM     17  O   UNL     1      35.440 -18.422 -22.044  0.00  0.00    -0.457 OA
BRANCH  17  18
ATOM     18  C   UNL     1      34.799 -19.356 -21.249  0.00  0.00    +0.145 C 
ATOM     19  C   UNL     1      35.557 -20.270 -20.538  0.00  0.00    +0.041 C 
ATOM     20  C   UNL     1      33.417 -19.355 -21.187  0.00  0.00    +0.041 C 
ATOM     21  C   UNL     1      33.518 -21.227 -19.662  0.00  0.00    +0.139 C 
ATOM     22  C   UNL     1      34.911 -21.213 -19.738  0.00  0.00    +0.040 C 
ATOM     23  C   UNL     1      32.771 -20.298 -20.387  0.00  0.00    +0.040 C 
BRANCH  21  24
ATOM     24  O   UNL     1      32.888 -22.147 -18.882  0.00  0.00    -0.471 OA
ATOM     25  C   UNL     1      33.695 -22.878 -17.960  0.00  0.00    +0.252 C 
ENDBRANCH  21  24
ENDBRANCH  17  18
ENDBRANCH   6  17
TORSDOF 3
ENDMDL
MODEL 2
REMARK VINA RESULT:     -10.8      1.356      2.469
REMARK  Name = 447098
REMARK  3 active torsions:
REMARK  status: ('A' for Active; 'I' for Inactive)
REMARK    1  A    between atoms: C_6  and  O_17
REMARK    2  A    between atoms: O_17  and  C_18
REMARK    3  A    between atoms: C_21  and  O_24
REMARK                            x       y       z     vdW  Elec       q    Type
REMARK                         _______ _______ _______ _____ _____    ______ ____
ROOT
ATOM      1  N   UNL     1      33.806 -15.263 -24.665  0.00  0.00    -0.332 NA
ATOM      2  N   UNL     1      34.126 -14.496 -22.404  0.00  0.00    -0.317 NA
ATOM      3  N   UNL     1      34.935 -15.918 -20.742  0.00  0.00    -0.335 N 
ATOM      4  N   UNL     1      33.313 -13.051 -24.059  0.00  0.00    -0.283 N 
ATOM      5  C   UNL     1      34.641 -16.779 -23.006  0.00  0.00    +0.177 C 
ATOM      6  C   UNL     1      35.096 -18.063 -22.656  0.00  0.00    +0.137 C 
ATOM      7  C   UNL     1      34.242 -16.487 -24.320  0.00  0.00    +0.137 C 
ATOM      8  C   UNL     1      34.558 -15.733 -22.092  0.00  0.00    +0.181 C 
ATOM      9  C   UNL     1      35.155 -19.066 -23.619  0.00  0.00    +0.034 C 
ATOM     10  C   UNL     1      34.312 -17.510 -25.263  0.00  0.00    +0.030 C 
ATOM     11  C   UNL     1      34.762 -18.789 -24.923  0.00  0.00    +0.005 C 
ATOM     12  C   UNL     1      33.772 -14.334 -23.689  0.00  0.00    +0.197 C 
ATOM     13  H   UNL     1      34.872 -15.170 -20.106  0.00  0.00    +0.144 HD
ATOM     14  H   UNL     1      35.260 -16.795 -20.438  0.00  0.00    +0.144 HD
ATOM     15  H   UNL     1      33.040 -12.875 -24.988  0.00  0.00    +0.156 HD
ATOM     16  H   UNL     1      33.267 -12.332 -23.388  0.00  0.00    +0.156 HD
ENDROOT
BRANCH   6  17
ATOM     17  O   UNL     1      35.495 -18.404 -21.397  0.00  0.00    -0.457 OA
BRANCH  17  18
ATOM     18  C   UNL     1      34.857 -19.472 -20.791  0.00  0.00    +0.145 C 
ATOM     19  C   UNL     1      35.618 -20.493 -20.249  0.00  0.00    +0.041 C 
ATOM     20  C   UNL     1      33.474 -19.493 -20.742  0.00  0.00    +0.041 C 
ATOM     21  C   UNL     1      33.582 -21.610 -19.581  0.00  0.00    +0.139 C 
ATOM     22  C   UNL     1      34.975 -21.571 -19.639  0.00  0.00    +0.040 C 
ATOM     23  C   UNL     1      32.831 -20.571 -20.132  0.00  0.00    +0.040 C 
BRANCH  21  24
ATOM     24  O   UNL     1      32.955 -22.661 -18.985  0.00  0.00    -0.471 OA
ATOM     25  C   UNL     1      33.383 -23.012 -17.671  0.00  0.00    +0.252 C 
ENDBRANCH  21  24
ENDBRANCH  17  18
ENDBRANCH   6  17
TORSDOF 3
ENDMDL
MODEL 3
REMARK VINA RESULT:     -10.3      1.077      1.555
REMARK  Name = 447098
REMARK  3 active torsions:
REMARK  status: ('A' for Active; 'I' for Inactive)
REMARK    1  A    between atoms: C_6  and  O_17
REMARK    2  A    between atoms: O_17  and  C_18
REMARK    3  A    between atoms: C_21  and  O_24
REMARK                            x       y       z     vdW  Elec       q    Type
REMARK                         _______ _______ _______ _____ _____    ______ ____
ROOT
ATOM      1  N   UNL     1      32.862 -14.072 -24.545  0.00  0.00    -0.332 NA
ATOM      2  N   UNL     1      33.609 -15.791 -26.059  0.00  0.00    -0.317 NA
ATOM      3  N   UNL     1      34.929 -17.567 -25.323  0.00  0.00    -0.335 N 
ATOM      4  N   UNL     1      32.282 -14.016 -26.818  0.00  0.00    -0.283 N 
ATOM      5  C   UNL     1      34.218 -15.869 -23.721  0.00  0.00    +0.177 C 
ATOM      6  C   UNL     1      34.878 -16.497 -22.651  0.00  0.00    +0.137 C 
ATOM      7  C   UNL     1      33.497 -14.680 -23.528  0.00  0.00    +0.137 C 
ATOM      8  C   UNL     1      34.233 -16.374 -25.018  0.00  0.00    +0.181 C 
ATOM      9  C   UNL     1      34.823 -15.939 -21.377  0.00  0.00    +0.034 C 
ATOM     10  C   UNL     1      33.459 -14.144 -22.243  0.00  0.00    +0.030 C 
ATOM     11  C   UNL     1      34.113 -14.762 -21.173  0.00  0.00    +0.005 C 
ATOM     12  C   UNL     1      32.952 -14.660 -25.755  0.00  0.00    +0.197 C 
ATOM     13  H   UNL     1      34.932 -17.914 -26.244  0.00  0.00    +0.144 HD
ATOM     14  H   UNL     1      35.411 -18.050 -24.614  0.00  0.00    +0.144 HD
ATOM     15  H   UNL     1      31.784 -13.182 -26.653  0.00  0.00    +0.156 HD
ATOM     16  H   UNL     1      32.312 -14.400 -27.724  0.00  0.00    +0.156 HD
ENDROOT
BRANCH   6  17
ATOM     17  O   UNL     1      35.593 -17.651 -22.778  0.00  0.00    -0.457 OA
BRANCH  17  18
ATOM     18  C   UNL     1      35.349 -18.661 -21.864  0.00  0.00    +0.145 C 
ATOM     19  C   UNL     1      34.063 -19.156 -21.733  0.00  0.00    +0.041 C 
ATOM     20  C   UNL     1      36.396 -19.148 -21.102  0.00  0.00    +0.041 C 
ATOM     21  C   UNL     1      34.859 -20.677 -20.032  0.00  0.00    +0.139 C 
ATOM     22  C   UNL     1      33.817 -20.173 -20.810  0.00  0.00    +0.040 C 
ATOM     23  C   UNL     1      36.149 -20.165 -20.178  0.00  0.00    +0.040 C 
BRANCH  21  24
ATOM     24  O   UNL     1      34.619 -21.669 -19.132  0.00  0.00    -0.471 OA
ATOM     25  C   UNL     1      35.686 -22.021 -18.253  0.00  0.00    +0.252 C 
ENDBRANCH  21  24
ENDBRANCH  17  18
ENDBRANCH   6  17
TORSDOF 3
ENDMDL
MODEL 4
REMARK VINA RESULT:      -9.5      3.509      7.079
REMARK  Name = 447098
REMARK  3 active torsions:
REMARK  status: ('A' for Active; 'I' for Inactive)
REMARK    1  A    between atoms: C_6  and  O_17
REMARK    2  A    between atoms: O_17  and  C_18
REMARK    3  A    between atoms: C_21  and  O_24
REMARK                            x       y       z     vdW  Elec       q    Type
REMARK                         _______ _______ _______ _____ _____    ______ ____
ROOT
ATOM      1  N   UNL     1      35.155 -22.305 -18.202  0.00  0.00    -0.332 NA
ATOM      2  N   UNL     1      32.892 -22.142 -19.015  0.00  0.00    -0.317 NA
ATOM      3  N   UNL     1      32.341 -20.747 -20.800  0.00  0.00    -0.335 N 
ATOM      4  N   UNL     1      33.425 -23.552 -17.221  0.00  0.00    -0.283 N 
ATOM      5  C   UNL     1      34.658 -20.849 -20.041  0.00  0.00    +0.177 C 
ATOM      6  C   UNL     1      35.092 -19.923 -21.005  0.00  0.00    +0.137 C 
ATOM      7  C   UNL     1      35.559 -21.417 -19.127  0.00  0.00    +0.137 C 
ATOM      8  C   UNL     1      33.332 -21.257 -19.929  0.00  0.00    +0.181 C 
ATOM      9  C   UNL     1      36.433 -19.557 -21.063  0.00  0.00    +0.034 C 
ATOM     10  C   UNL     1      36.896 -21.034 -19.208  0.00  0.00    +0.030 C 
ATOM     11  C   UNL     1      37.336 -20.113 -20.164  0.00  0.00    +0.005 C 
ATOM     12  C   UNL     1      33.843 -22.619 -18.196  0.00  0.00    +0.197 C 
ATOM     13  H   UNL     1      31.406 -21.043 -20.711  0.00  0.00    +0.144 HD
ATOM     14  H   UNL     1      32.585 -20.094 -21.495  0.00  0.00    +0.144 HD
ATOM     15  H   UNL     1      34.081 -23.934 -16.593  0.00  0.00    +0.156 HD
ATOM     16  H   UNL     1      32.480 -23.820 -17.169  0.00  0.00    +0.156 HD
ENDROOT
BRANCH   6  17
ATOM     17  O   UNL     1      34.262 -19.338 -21.916  0.00  0.00    -0.457 OA
BRANCH  17  18
ATOM     18  C   UNL     1      34.336 -17.963 -22.060  0.00  0.00    +0.145 C 
ATOM     19  C   UNL     1      33.960 -17.153 -21.003  0.00  0.00    +0.041 C 
ATOM     20  C   UNL     1      34.781 -17.433 -23.258  0.00  0.00    +0.041 C 
ATOM     21  C   UNL     1      34.480 -15.215 -22.349  0.00  0.00    +0.139 C 
ATOM     22  C   UNL     1      34.033 -15.767 -21.148  0.00  0.00    +0.040 C 
ATOM     23  C   UNL     1      34.854 -16.048 -23.403  0.00  0.00    +0.040 C 
BRANCH  21  24
ATOM     24  O   UNL     1      34.551 -13.863 -22.490  0.00  0.00    -0.471 OA
ATOM     25  C   UNL     1      33.818 -13.284 -23.568  0.00  0.00    +0.252 C 
ENDBRANCH  21  24
ENDBRANCH  17  18
ENDBRANCH   6  17
TORSDOF 3
ENDMDL
MODEL 5
REMARK VINA RESULT:      -9.2      4.461      6.868
REMARK  Name = 447098
REMARK  3 active torsions:
REMARK  status: ('A' for Active; 'I' for Inactive)
REMARK    1  A    between atoms: C_6  and  O_17
REMARK    2  A    between atoms: O_17  and  C_18
REMARK    3  A    between atoms: C_21  and  O_24
REMARK                            x       y       z     vdW  Elec       q    Type
REMARK                         _______ _______ _______ _____ _____    ______ ____
ROOT
ATOM      1  N   UNL     1      33.391  -8.242 -22.646  0.00  0.00    -0.332 NA
ATOM      2  N   UNL     1      31.645  -9.476 -21.535  0.00  0.00    -0.317 NA
ATOM      3  N   UNL     1      31.185 -11.694 -22.089  0.00  0.00    -0.335 N 
ATOM      4  N   UNL     1      32.092  -7.248 -20.963  0.00  0.00    -0.283 N 
ATOM      5  C   UNL     1      32.971 -10.519 -23.266  0.00  0.00    +0.177 C 
ATOM      6  C   UNL     1      33.282 -11.637 -24.061  0.00  0.00    +0.137 C 
ATOM      7  C   UNL     1      33.680  -9.315 -23.402  0.00  0.00    +0.137 C 
ATOM      8  C   UNL     1      31.961 -10.532 -22.309  0.00  0.00    +0.181 C 
ATOM      9  C   UNL     1      34.305 -11.557 -25.001  0.00  0.00    +0.034 C 
ATOM     10  C   UNL     1      34.699  -9.264 -24.350  0.00  0.00    +0.030 C 
ATOM     11  C   UNL     1      35.014 -10.370 -25.146  0.00  0.00    +0.005 C 
ATOM     12  C   UNL     1      32.390  -8.380 -21.754  0.00  0.00    +0.197 C 
ATOM     13  H   UNL     1      30.473 -11.690 -21.408  0.00  0.00    +0.144 HD
ATOM     14  H   UNL     1      31.356 -12.507 -22.616  0.00  0.00    +0.144 HD
ATOM     15  H   UNL     1      32.606  -6.416 -21.081  0.00  0.00    +0.156 HD
ATOM     16  H   UNL     1      31.372  -7.290 -20.294  0.00  0.00    +0.156 HD
ENDROOT
BRANCH   6  17
ATOM     17  O   UNL     1      32.627 -12.830 -23.973  0.00  0.00    -0.457 OA
BRANCH  17  18
ATOM     18  C   UNL     1      33.380 -13.953 -23.680  0.00  0.00    +0.145 C 
ATOM     19  C   UNL     1      33.544 -14.928 -24.648  0.00  0.00    +0.041 C 
ATOM     20  C   UNL     1      33.949 -14.075 -22.424  0.00  0.00    +0.041 C 
ATOM     21  C   UNL     1      34.883 -16.202 -23.092  0.00  0.00    +0.139 C 
ATOM     22  C   UNL     1      34.302 -16.061 -24.352  0.00  0.00    +0.040 C 
ATOM     23  C   UNL     1      34.707 -15.208 -22.128  0.00  0.00    +0.040 C 
BRANCH  21  24
ATOM     24  O   UNL     1      35.623 -17.307 -22.803  0.00  0.00    -0.471 OA
ATOM     25  C   UNL     1      35.313 -18.500 -23.521  0.00  0.00    +0.252 C 
ENDBRANCH  21  24
ENDBRANCH  17  18
ENDBRANCH   6  17
TORSDOF 3
ENDMDL
MODEL 6
REMARK VINA RESULT:      -9.0      5.894      9.582
REMARK  Name = 447098
REMARK  3 active torsions:
REMARK  status: ('A' for Active; 'I' for Inactive)
REMARK    1  A    between atoms: C_6  and  O_17
REMARK    2  A    between atoms: O_17  and  C_18
REMARK    3  A    between atoms: C_21  and  O_24
REMARK                            x       y       z     vdW  Elec       q    Type
REMARK                         _______ _______ _______ _____ _____    ______ ____
ROOT
ATOM      1  N   UNL     1      33.697 -23.820 -13.265  0.00  0.00    -0.332 NA
ATOM      2  N   UNL     1      36.039 -23.771 -13.829  0.00  0.00    -0.317 NA
ATOM      3  N   UNL     1      36.753 -23.403 -16.017  0.00  0.00    -0.335 N 
ATOM      4  N   UNL     1      35.342 -24.140 -11.622  0.00  0.00    -0.283 N 
ATOM      5  C   UNL     1      34.361 -23.438 -15.536  0.00  0.00    +0.177 C 
ATOM      6  C   UNL     1      34.014 -23.197 -16.877  0.00  0.00    +0.137 C 
ATOM      7  C   UNL     1      33.375 -23.590 -14.550  0.00  0.00    +0.137 C 
ATOM      8  C   UNL     1      35.681 -23.541 -15.106  0.00  0.00    +0.181 C 
ATOM      9  C   UNL     1      32.673 -23.105 -17.242  0.00  0.00    +0.034 C 
ATOM     10  C   UNL     1      32.042 -23.494 -14.943  0.00  0.00    +0.030 C 
ATOM     11  C   UNL     1      31.687 -23.254 -16.274  0.00  0.00    +0.005 C 
ATOM     12  C   UNL     1      35.011 -23.898 -12.974  0.00  0.00    +0.197 C 
ATOM     13  H   UNL     1      37.683 -23.477 -15.700  0.00  0.00    +0.144 HD
ATOM     14  H   UNL     1      36.572 -23.234 -16.970  0.00  0.00    +0.144 HD
ATOM     15  H   UNL     1      34.628 -24.243 -10.952  0.00  0.00    +0.156 HD
ATOM     16  H   UNL     1      36.285 -24.206 -11.351  0.00  0.00    +0.156 HD
ENDROOT
BRANCH   6  17
ATOM     17  O   UNL     1      34.928 -23.042 -17.877  0.00  0.00    -0.457 OA
BRANCH  17  18
ATOM     18  C   UNL     1      34.697 -22.044 -18.808  0.00  0.00    +0.145 C 
ATOM     19  C   UNL     1      33.394 -21.737 -19.158  0.00  0.00    +0.041 C 
ATOM     20  C   UNL     1      35.775 -21.380 -19.367  0.00  0.00    +0.041 C 
ATOM     21  C   UNL     1      34.235 -20.051 -20.672  0.00  0.00    +0.139 C 
ATOM     22  C   UNL     1      33.161 -20.732 -20.098  0.00  0.00    +0.040 C 
ATOM     23  C   UNL     1      35.542 -20.375 -20.306  0.00  0.00    +0.040 C 
BRANCH  21  24
ATOM     24  O   UNL     1      34.007 -19.071 -21.588  0.00  0.00    -0.471 OA
ATOM     25  C   UNL     1      34.801 -19.093 -22.773  0.00  0.00    +0.252 C 
ENDBRANCH  21  24
ENDBRANCH  17  18
ENDBRANCH   6  17
TORSDOF 3
ENDMDL
MODEL 7
REMARK VINA RESULT:      -9.0      3.814      7.252
REMARK  Name = 447098
REMARK  3 active torsions:
REMARK  status: ('A' for Active; 'I' for Inactive)
REMARK    1  A    between atoms: C_6  and  O_17
REMARK    2  A    between atoms: O_17  and  C_18
REMARK    3  A    between atoms: C_21  and  O_24
REMARK                            x       y       z     vdW  Elec       q    Type
REMARK                         _______ _______ _______ _____ _____    ______ ____
ROOT
ATOM      1  N   UNL     1      34.871 -18.136 -23.070  0.00  0.00    -0.332 NA
ATOM      2  N   UNL     1      34.267 -17.596 -25.339  0.00  0.00    -0.317 NA
ATOM      3  N   UNL     1      33.642 -15.433 -25.947  0.00  0.00    -0.335 N 
ATOM      4  N   UNL     1      34.894 -19.775 -24.750  0.00  0.00    -0.283 N 
ATOM      5  C   UNL     1      34.237 -15.892 -23.625  0.00  0.00    +0.177 C 
ATOM      6  C   UNL     1      34.016 -14.561 -23.229  0.00  0.00    +0.137 C 
ATOM      7  C   UNL     1      34.656 -16.861 -22.701  0.00  0.00    +0.137 C 
ATOM      8  C   UNL     1      34.061 -16.328 -24.935  0.00  0.00    +0.181 C 
ATOM      9  C   UNL     1      34.211 -14.190 -21.901  0.00  0.00    +0.034 C 
ATOM     10  C   UNL     1      34.843 -16.463 -21.379  0.00  0.00    +0.030 C 
ATOM     11  C   UNL     1      34.624 -15.141 -20.976  0.00  0.00    +0.005 C 
ATOM     12  C   UNL     1      34.665 -18.434 -24.369  0.00  0.00    +0.197 C 
ATOM     13  H   UNL     1      33.521 -15.754 -26.870  0.00  0.00    +0.144 HD
ATOM     14  H   UNL     1      33.470 -14.489 -25.729  0.00  0.00    +0.144 HD
ATOM     15  H   UNL     1      35.187 -20.434 -24.079  0.00  0.00    +0.156 HD
ATOM     16  H   UNL     1      34.760 -20.051 -25.685  0.00  0.00    +0.156 HD
ENDROOT
BRANCH   6  17
ATOM     17  O   UNL     1      33.608 -13.578 -24.081  0.00  0.00    -0.457 OA
BRANCH  17  18
ATOM     18  C   UNL     1      33.122 -12.408 -23.525  0.00  0.00    +0.145 C 
ATOM     19  C   UNL     1      32.110 -12.478 -22.584  0.00  0.00    +0.041 C 
ATOM     20  C   UNL     1      33.659 -11.197 -23.924  0.00  0.00    +0.041 C 
ATOM     21  C   UNL     1      32.148 -10.068 -22.414  0.00  0.00    +0.139 C 
ATOM     22  C   UNL     1      31.619 -11.298 -22.024  0.00  0.00    +0.040 C 
ATOM     23  C   UNL     1      33.168 -10.017 -23.364  0.00  0.00    +0.040 C 
BRANCH  21  24
ATOM     24  O   UNL     1      31.668  -8.917 -21.867  0.00  0.00    -0.471 OA
ATOM     25  C   UNL     1      32.287  -8.463 -20.664  0.00  0.00    +0.252 C 
ENDBRANCH  21  24
ENDBRANCH  17  18
ENDBRANCH   6  17
TORSDOF 3
ENDMDL
MODEL 8
REMARK VINA RESULT:      -8.9      4.963      8.441
REMARK  Name = 447098
REMARK  3 active torsions:
REMARK  status: ('A' for Active; 'I' for Inactive)
REMARK    1  A    between atoms: C_6  and  O_17
REMARK    2  A    between atoms: O_17  and  C_18
REMARK    3  A    between atoms: C_21  and  O_24
REMARK                            x       y       z     vdW  Elec       q    Type
REMARK                         _______ _______ _______ _____ _____    ______ ____
ROOT
ATOM      1  N   UNL     1      34.360 -23.212 -14.644  0.00  0.00    -0.332 NA
ATOM      2  N   UNL     1      32.582 -23.600 -16.223  0.00  0.00    -0.317 NA
ATOM      3  N   UNL     1      32.866 -23.178 -18.498  0.00  0.00    -0.335 N 
ATOM      4  N   UNL     1      32.276 -24.032 -13.940  0.00  0.00    -0.283 N 
ATOM      5  C   UNL     1      34.720 -22.756 -16.969  0.00  0.00    +0.177 C 
ATOM      6  C   UNL     1      35.568 -22.317 -18.002  0.00  0.00    +0.137 C 
ATOM      7  C   UNL     1      35.162 -22.794 -15.638  0.00  0.00    +0.137 C 
ATOM      8  C   UNL     1      33.412 -23.175 -17.194  0.00  0.00    +0.181 C 
ATOM      9  C   UNL     1      36.867 -21.911 -17.709  0.00  0.00    +0.034 C 
ATOM     10  C   UNL     1      36.466 -22.382 -15.374  0.00  0.00    +0.030 C 
ATOM     11  C   UNL     1      37.316 -21.943 -16.394  0.00  0.00    +0.005 C 
ATOM     12  C   UNL     1      33.113 -23.593 -14.990  0.00  0.00    +0.197 C 
ATOM     13  H   UNL     1      31.939 -23.477 -18.644  0.00  0.00    +0.144 HD
ATOM     14  H   UNL     1      33.412 -22.881 -19.261  0.00  0.00    +0.144 HD
ATOM     15  H   UNL     1      32.614 -24.047 -13.015  0.00  0.00    +0.156 HD
ATOM     16  H   UNL     1      31.356 -24.322 -14.133  0.00  0.00    +0.156 HD
ENDROOT
BRANCH   6  17
ATOM     17  O   UNL     1      35.193 -22.259 -19.312  0.00  0.00    -0.457 OA
BRANCH  17  18
ATOM     18  C   UNL     1      35.261 -21.029 -19.943  0.00  0.00    +0.145 C 
ATOM     19  C   UNL     1      36.500 -20.476 -20.211  0.00  0.00    +0.041 C 
ATOM     20  C   UNL     1      34.087 -20.383 -20.288  0.00  0.00    +0.041 C 
ATOM     21  C   UNL     1      35.396 -18.568 -21.202  0.00  0.00    +0.139 C 
ATOM     22  C   UNL     1      36.569 -19.235 -20.846  0.00  0.00    +0.040 C 
ATOM     23  C   UNL     1      34.155 -19.142 -20.923  0.00  0.00    +0.040 C 
BRANCH  21  24
ATOM     24  O   UNL     1      35.463 -17.358 -21.822  0.00  0.00    -0.471 OA
ATOM     25  C   UNL     1      34.685 -16.300 -21.265  0.00  0.00    +0.252 C 
ENDBRANCH  21  24
ENDBRANCH  17  18
ENDBRANCH   6  17
TORSDOF 3
ENDMDL
MODEL 9
REMARK VINA RESULT:      -8.9      7.814     10.026
REMARK  Name = 447098
REMARK  3 active torsions:
REMARK  status: ('A' for Active; 'I' for Inactive)
REMARK    1  A    between atoms: C_6  and  O_17
REMARK    2  A    between atoms: O_17  and  C_18
REMARK    3  A    between atoms: C_21  and  O_24
REMARK                            x       y       z     vdW  Elec       q    Type
REMARK                         _______ _______ _______ _____ _____    ______ ____
ROOT
ATOM      1  N   UNL     1      30.778 -22.894 -16.882  0.00  0.00    -0.332 NA
ATOM      2  N   UNL     1      30.693 -23.254 -14.501  0.00  0.00    -0.317 NA
ATOM      3  N   UNL     1      32.639 -23.446 -13.232  0.00  0.00    -0.335 N 
ATOM      4  N   UNL     1      28.725 -23.062 -15.758  0.00  0.00    -0.283 N 
ATOM      5  C   UNL     1      32.819 -23.083 -15.638  0.00  0.00    +0.177 C 
ATOM      6  C   UNL     1      34.224 -23.088 -15.608  0.00  0.00    +0.137 C 
ATOM      7  C   UNL     1      32.122 -22.901 -16.843  0.00  0.00    +0.137 C 
ATOM      8  C   UNL     1      32.039 -23.255 -14.498  0.00  0.00    +0.181 C 
ATOM      9  C   UNL     1      34.945 -22.911 -16.785  0.00  0.00    +0.034 C 
ATOM     10  C   UNL     1      32.868 -22.726 -18.006  0.00  0.00    +0.030 C 
ATOM     11  C   UNL     1      34.267 -22.730 -17.985  0.00  0.00    +0.005 C 
ATOM     12  C   UNL     1      30.136 -23.071 -15.710  0.00  0.00    +0.197 C 
ATOM     13  H   UNL     1      32.076 -23.566 -12.433  0.00  0.00    +0.144 HD
ATOM     14  H   UNL     1      33.619 -23.459 -13.148  0.00  0.00    +0.144 HD
ATOM     15  H   UNL     1      28.263 -22.932 -16.619  0.00  0.00    +0.156 HD
ATOM     16  H   UNL     1      28.203 -23.185 -14.933  0.00  0.00    +0.156 HD
ENDROOT
BRANCH   6  17
ATOM     17  O   UNL     1      34.954 -23.262 -14.469  0.00  0.00    -0.457 OA
BRANCH  17  18
ATOM     18  C   UNL     1      36.018 -24.144 -14.518  0.00  0.00    +0.145 C 
ATOM     19  C   UNL     1      37.267 -23.719 -14.100  0.00  0.00    +0.041 C 
ATOM     20  C   UNL     1      35.808 -25.430 -14.985  0.00  0.00    +0.041 C 
ATOM     21  C   UNL     1      38.148 -25.909 -14.619  0.00  0.00    +0.139 C 
ATOM     22  C   UNL     1      38.341 -24.609 -14.151  0.00  0.00    +0.040 C 
ATOM     23  C   UNL     1      36.881 -26.319 -15.036  0.00  0.00    +0.040 C 
BRANCH  21  24
ATOM     24  O   UNL     1      39.196 -26.777 -14.668  0.00  0.00    -0.471 OA
ATOM     25  C   UNL     1      40.506 -26.216 -14.609  0.00  0.00    +0.252 C 
ENDBRANCH  21  24
ENDBRANCH  17  18
ENDBRANCH   6  17
TORSDOF 3
ENDMDL
