MODEL 1
REMARK VINA RESULT:     -10.1      0.000      0.000
REMARK  Name = 448406
REMARK  3 active torsions:
REMARK  status: ('A' for Active; 'I' for Inactive)
REMARK    1  A    between atoms: N_2  and  C_15
REMARK    2  A    between atoms: C_18  and  C_22
REMARK    3  A    between atoms: C_22  and  O_23
REMARK                            x       y       z     vdW  Elec       q    Type
REMARK                         _______ _______ _______ _____ _____    ______ ____
ROOT
ATOM      1  O   UNL     1      33.438 -14.131 -22.152  0.00  0.00    -0.207 OA
ATOM      2  N   UNL     1      35.404 -17.792 -22.436  0.00  0.00    -0.137 N 
ATOM      3  N   UNL     1      35.279 -17.926 -23.783  0.00  0.00    -0.215 N 
ATOM      4  N   UNL     1      34.822 -16.609 -21.987  0.00  0.00    -0.143 NA
ATOM      5  N   UNL     1      34.209 -16.410 -25.397  0.00  0.00    -0.309 NA
ATOM      6  N   UNL     1      33.253 -14.409 -24.446  0.00  0.00    -0.251 NA
ATOM      7  N   UNL     1      33.126 -14.791 -26.723  0.00  0.00    -0.283 N 
ATOM      8  C   UNL     1      34.614 -16.845 -24.263  0.00  0.00    +0.243 C 
ATOM      9  C   UNL     1      34.353 -16.044 -23.056  0.00  0.00    +0.241 C 
ATOM     10  C   UNL     1      33.636 -14.768 -23.176  0.00  0.00    +0.239 C 
ATOM     11  C   UNL     1      33.530 -15.192 -25.470  0.00  0.00    +0.208 C 
ATOM     12  H   UNL     1      35.613 -18.681 -24.320  0.00  0.00    +0.175 HD
ATOM     13  H   UNL     1      33.319 -15.354 -27.506  0.00  0.00    +0.156 HD
ATOM     14  H   UNL     1      32.643 -13.941 -26.836  0.00  0.00    +0.156 HD
ENDROOT
BRANCH   2  15
ATOM     15  C   UNL     1      35.525 -18.850 -21.543  0.00  0.00    +0.090 C 
ATOM     16  C   UNL     1      34.389 -19.547 -21.097  0.00  0.00    +0.025 C 
ATOM     17  C   UNL     1      36.786 -19.244 -21.063  0.00  0.00    +0.018 C 
ATOM     18  C   UNL     1      34.510 -20.607 -20.199  0.00  0.00    +0.077 C 
ATOM     19  C   UNL     1      36.907 -20.305 -20.165  0.00  0.00    +0.002 C 
ATOM     20  C   UNL     1      35.769 -20.986 -19.733  0.00  0.00    +0.007 C 
BRANCH  18  22
ATOM     21  O   UNL     1      33.254 -22.534 -19.540  0.00  0.00    -0.245 OA
ATOM     22  C   UNL     1      33.325 -21.318 -19.749  0.00  0.00    +0.338 C 
BRANCH  22  23
ATOM     23  O   UNL     1      32.259 -20.491 -19.567  0.00  0.00    -0.477 OA
ATOM     24  H   UNL     1      31.828 -20.458 -18.736  0.00  0.00    +0.295 HD
ENDBRANCH  22  23
ENDBRANCH  18  22
ENDBRANCH   2  15
TORSDOF 3
ENDMDL
MODEL 2
REMARK VINA RESULT:      -9.9      7.171      9.756
REMARK  Name = 448406
REMARK  3 active torsions:
REMARK  status: ('A' for Active; 'I' for Inactive)
REMARK    1  A    between atoms: N_2  and  C_15
REMARK    2  A    between atoms: C_18  and  C_22
REMARK    3  A    between atoms: C_22  and  O_23
REMARK                            x       y       z     vdW  Elec       q    Type
REMARK                         _______ _______ _______ _____ _____    ______ ____
ROOT
ATOM      1  O   UNL     1      31.990 -23.625 -15.646  0.00  0.00    -0.207 OA
ATOM      2  N   UNL     1      36.115 -23.344 -15.143  0.00  0.00    -0.137 N 
ATOM      3  N   UNL     1      36.386 -22.866 -16.386  0.00  0.00    -0.215 N 
ATOM      4  N   UNL     1      34.751 -23.560 -14.968  0.00  0.00    -0.143 NA
ATOM      5  N   UNL     1      34.835 -22.376 -18.229  0.00  0.00    -0.309 NA
ATOM      6  N   UNL     1      32.508 -22.807 -17.753  0.00  0.00    -0.251 NA
ATOM      7  N   UNL     1      33.141 -21.990 -19.822  0.00  0.00    -0.283 N 
ATOM      8  C   UNL     1      35.219 -22.752 -17.067  0.00  0.00    +0.243 C 
ATOM      9  C   UNL     1      34.213 -23.213 -16.097  0.00  0.00    +0.241 C 
ATOM     10  C   UNL     1      32.796 -23.234 -16.478  0.00  0.00    +0.239 C 
ATOM     11  C   UNL     1      33.477 -22.410 -18.555  0.00  0.00    +0.208 C 
ATOM     12  H   UNL     1      37.280 -22.641 -16.734  0.00  0.00    +0.175 HD
ATOM     13  H   UNL     1      33.842 -21.689 -20.442  0.00  0.00    +0.156 HD
ATOM     14  H   UNL     1      32.199 -21.993 -20.107  0.00  0.00    +0.156 HD
ENDROOT
BRANCH   2  15
ATOM     15  C   UNL     1      37.005 -24.075 -14.364  0.00  0.00    +0.090 C 
ATOM     16  C   UNL     1      38.162 -24.637 -14.930  0.00  0.00    +0.025 C 
ATOM     17  C   UNL     1      36.765 -24.270 -12.993  0.00  0.00    +0.018 C 
ATOM     18  C   UNL     1      39.053 -25.372 -14.148  0.00  0.00    +0.077 C 
ATOM     19  C   UNL     1      37.657 -25.005 -12.212  0.00  0.00    +0.002 C 
ATOM     20  C   UNL     1      38.800 -25.556 -12.789  0.00  0.00    +0.007 C 
BRANCH  18  22
ATOM     21  O   UNL     1      41.144 -26.535 -14.140  0.00  0.00    -0.245 OA
ATOM     22  C   UNL     1      40.245 -25.946 -14.750  0.00  0.00    +0.338 C 
BRANCH  22  23
ATOM     23  O   UNL     1      40.283 -25.772 -16.099  0.00  0.00    -0.477 OA
ATOM     24  H   UNL     1      40.467 -24.926 -16.458  0.00  0.00    +0.295 HD
ENDBRANCH  22  23
ENDBRANCH  18  22
ENDBRANCH   2  15
TORSDOF 3
ENDMDL
MODEL 3
REMARK VINA RESULT:      -9.9      3.285      7.152
REMARK  Name = 448406
REMARK  3 active torsions:
REMARK  status: ('A' for Active; 'I' for Inactive)
REMARK    1  A    between atoms: N_2  and  C_15
REMARK    2  A    between atoms: C_18  and  C_22
REMARK    3  A    between atoms: C_22  and  O_23
REMARK                            x       y       z     vdW  Elec       q    Type
REMARK                         _______ _______ _______ _____ _____    ______ ____
ROOT
ATOM      1  O   UNL     1      33.113 -22.285 -19.488  0.00  0.00    -0.207 OA
ATOM      2  N   UNL     1      35.466 -19.291 -21.174  0.00  0.00    -0.137 N 
ATOM      3  N   UNL     1      36.533 -19.454 -20.347  0.00  0.00    -0.215 N 
ATOM      4  N   UNL     1      34.444 -20.185 -20.867  0.00  0.00    -0.143 NA
ATOM      5  N   UNL     1      36.829 -21.047 -18.498  0.00  0.00    -0.309 NA
ATOM      6  N   UNL     1      34.959 -22.522 -18.106  0.00  0.00    -0.251 NA
ATOM      7  N   UNL     1      36.854 -22.669 -16.788  0.00  0.00    -0.283 N 
ATOM      8  C   UNL     1      36.251 -20.454 -19.474  0.00  0.00    +0.243 C 
ATOM      9  C   UNL     1      34.897 -20.875 -19.866  0.00  0.00    +0.241 C 
ATOM     10  C   UNL     1      34.237 -21.963 -19.134  0.00  0.00    +0.239 C 
ATOM     11  C   UNL     1      36.169 -22.078 -17.826  0.00  0.00    +0.208 C 
ATOM     12  H   UNL     1      37.369 -18.934 -20.377  0.00  0.00    +0.175 HD
ATOM     13  H   UNL     1      37.758 -22.359 -16.556  0.00  0.00    +0.156 HD
ATOM     14  H   UNL     1      36.438 -23.401 -16.278  0.00  0.00    +0.156 HD
ENDROOT
BRANCH   2  15
ATOM     15  C   UNL     1      35.134 -18.102 -21.813  0.00  0.00    +0.090 C 
ATOM     16  C   UNL     1      34.941 -18.064 -23.205  0.00  0.00    +0.025 C 
ATOM     17  C   UNL     1      34.986 -16.911 -21.082  0.00  0.00    +0.018 C 
ATOM     18  C   UNL     1      34.610 -16.870 -23.846  0.00  0.00    +0.077 C 
ATOM     19  C   UNL     1      34.655 -15.718 -21.724  0.00  0.00    +0.002 C 
ATOM     20  C   UNL     1      34.466 -15.697 -23.105  0.00  0.00    +0.007 C 
BRANCH  18  22
ATOM     21  O   UNL     1      34.117 -15.853 -25.955  0.00  0.00    -0.245 OA
ATOM     22  C   UNL     1      34.413 -16.849 -25.287  0.00  0.00    +0.338 C 
BRANCH  22  23
ATOM     23  O   UNL     1      34.595 -18.072 -25.855  0.00  0.00    -0.477 OA
ATOM     24  H   UNL     1      34.157 -18.822 -25.503  0.00  0.00    +0.295 HD
ENDBRANCH  22  23
ENDBRANCH  18  22
ENDBRANCH   2  15
TORSDOF 3
ENDMDL
MODEL 4
REMARK VINA RESULT:      -9.9      2.977      7.042
REMARK  Name = 448406
REMARK  3 active torsions:
REMARK  status: ('A' for Active; 'I' for Inactive)
REMARK    1  A    between atoms: N_2  and  C_15
REMARK    2  A    between atoms: C_18  and  C_22
REMARK    3  A    between atoms: C_22  and  O_23
REMARK                            x       y       z     vdW  Elec       q    Type
REMARK                         _______ _______ _______ _____ _____    ______ ____
ROOT
ATOM      1  O   UNL     1      37.039 -21.484 -19.569  0.00  0.00    -0.207 OA
ATOM      2  N   UNL     1      34.351 -18.884 -21.402  0.00  0.00    -0.137 N 
ATOM      3  N   UNL     1      33.223 -19.461 -20.908  0.00  0.00    -0.215 N 
ATOM      4  N   UNL     1      35.495 -19.544 -20.960  0.00  0.00    -0.143 NA
ATOM      5  N   UNL     1      33.002 -21.407 -19.422  0.00  0.00    -0.309 NA
ATOM      6  N   UNL     1      35.085 -22.428 -18.753  0.00  0.00    -0.251 NA
ATOM      7  N   UNL     1      33.073 -23.286 -18.001  0.00  0.00    -0.283 N 
ATOM      8  C   UNL     1      33.583 -20.512 -20.130  0.00  0.00    +0.243 C 
ATOM      9  C   UNL     1      35.053 -20.506 -20.209  0.00  0.00    +0.241 C 
ATOM     10  C   UNL     1      35.821 -21.521 -19.478  0.00  0.00    +0.239 C 
ATOM     11  C   UNL     1      33.768 -22.356 -18.741  0.00  0.00    +0.208 C 
ATOM     12  H   UNL     1      32.300 -19.166 -21.085  0.00  0.00    +0.175 HD
ATOM     13  H   UNL     1      32.090 -23.257 -17.973  0.00  0.00    +0.156 HD
ATOM     14  H   UNL     1      33.560 -23.979 -17.500  0.00  0.00    +0.156 HD
ENDROOT
BRANCH   2  15
ATOM     15  C   UNL     1      34.419 -18.170 -22.592  0.00  0.00    +0.090 C 
ATOM     16  C   UNL     1      34.249 -16.775 -22.604  0.00  0.00    +0.025 C 
ATOM     17  C   UNL     1      34.658 -18.828 -23.811  0.00  0.00    +0.018 C 
ATOM     18  C   UNL     1      34.315 -16.059 -23.800  0.00  0.00    +0.077 C 
ATOM     19  C   UNL     1      34.725 -18.111 -25.006  0.00  0.00    +0.002 C 
ATOM     20  C   UNL     1      34.554 -16.727 -25.001  0.00  0.00    +0.007 C 
BRANCH  18  22
ATOM     21  O   UNL     1      33.503 -13.969 -24.633  0.00  0.00    -0.245 OA
ATOM     22  C   UNL     1      34.138 -14.616 -23.794  0.00  0.00    +0.338 C 
BRANCH  22  23
ATOM     23  O   UNL     1      34.755 -14.020 -22.737  0.00  0.00    -0.477 OA
ATOM     24  H   UNL     1      34.930 -14.511 -21.959  0.00  0.00    +0.295 HD
ENDBRANCH  22  23
ENDBRANCH  18  22
ENDBRANCH   2  15
TORSDOF 3
ENDMDL
MODEL 5
REMARK VINA RESULT:      -9.8      5.920      8.859
REMARK  Name = 448406
REMARK  3 active torsions:
REMARK  status: ('A' for Active; 'I' for Inactive)
REMARK    1  A    between atoms: N_2  and  C_15
REMARK    2  A    between atoms: C_18  and  C_22
REMARK    3  A    between atoms: C_22  and  O_23
REMARK                            x       y       z     vdW  Elec       q    Type
REMARK                         _______ _______ _______ _____ _____    ______ ____
ROOT
ATOM      1  O   UNL     1      29.328 -22.392 -17.087  0.00  0.00    -0.207 OA
ATOM      2  N   UNL     1      33.400 -22.840 -17.839  0.00  0.00    -0.137 N 
ATOM      3  N   UNL     1      33.700 -23.470 -16.672  0.00  0.00    -0.215 N 
ATOM      4  N   UNL     1      32.044 -22.532 -17.916  0.00  0.00    -0.143 NA
ATOM      5  N   UNL     1      32.210 -24.079 -14.813  0.00  0.00    -0.309 NA
ATOM      6  N   UNL     1      29.894 -23.470 -15.114  0.00  0.00    -0.251 NA
ATOM      7  N   UNL     1      30.573 -24.548 -13.184  0.00  0.00    -0.283 N 
ATOM      8  C   UNL     1      32.561 -23.596 -15.946  0.00  0.00    +0.243 C 
ATOM      9  C   UNL     1      31.541 -22.973 -16.805  0.00  0.00    +0.241 C 
ATOM     10  C   UNL     1      30.147 -22.918 -16.348  0.00  0.00    +0.239 C 
ATOM     11  C   UNL     1      30.874 -24.007 -14.414  0.00  0.00    +0.208 C 
ATOM     12  H   UNL     1      34.594 -23.782 -16.399  0.00  0.00    +0.175 HD
ATOM     13  H   UNL     1      31.284 -24.956 -12.640  0.00  0.00    +0.156 HD
ATOM     14  H   UNL     1      29.648 -24.526 -12.850  0.00  0.00    +0.156 HD
ENDROOT
BRANCH   2  15
ATOM     15  C   UNL     1      34.295 -22.076 -18.579  0.00  0.00    +0.090 C 
ATOM     16  C   UNL     1      33.840 -21.233 -19.607  0.00  0.00    +0.025 C 
ATOM     17  C   UNL     1      35.675 -22.132 -18.318  0.00  0.00    +0.018 C 
ATOM     18  C   UNL     1      34.738 -20.468 -20.351  0.00  0.00    +0.077 C 
ATOM     19  C   UNL     1      36.572 -21.367 -19.063  0.00  0.00    +0.002 C 
ATOM     20  C   UNL     1      36.104 -20.535 -20.079  0.00  0.00    +0.007 C 
BRANCH  18  22
ATOM     21  O   UNL     1      34.656 -19.593 -22.577  0.00  0.00    -0.245 OA
ATOM     22  C   UNL     1      34.250 -19.599 -21.410  0.00  0.00    +0.338 C 
BRANCH  22  23
ATOM     23  O   UNL     1      33.264 -18.763 -20.985  0.00  0.00    -0.477 OA
ATOM     24  H   UNL     1      32.376 -18.915 -21.244  0.00  0.00    +0.295 HD
ENDBRANCH  22  23
ENDBRANCH  18  22
ENDBRANCH   2  15
TORSDOF 3
ENDMDL
MODEL 6
REMARK VINA RESULT:      -9.8      3.227      7.246
REMARK  Name = 448406
REMARK  3 active torsions:
REMARK  status: ('A' for Active; 'I' for Inactive)
REMARK    1  A    between atoms: N_2  and  C_15
REMARK    2  A    between atoms: C_18  and  C_22
REMARK    3  A    between atoms: C_22  and  O_23
REMARK                            x       y       z     vdW  Elec       q    Type
REMARK                         _______ _______ _______ _____ _____    ______ ____
ROOT
ATOM      1  O   UNL     1      33.079 -22.607 -18.992  0.00  0.00    -0.207 OA
ATOM      2  N   UNL     1      35.546 -19.961 -21.056  0.00  0.00    -0.137 N 
ATOM      3  N   UNL     1      36.595 -20.030 -20.194  0.00  0.00    -0.215 N 
ATOM      4  N   UNL     1      34.493 -20.772 -20.640  0.00  0.00    -0.143 NA
ATOM      5  N   UNL     1      36.816 -21.340 -18.125  0.00  0.00    -0.309 NA
ATOM      6  N   UNL     1      34.897 -22.689 -17.556  0.00  0.00    -0.251 NA
ATOM      7  N   UNL     1      36.768 -22.691 -16.195  0.00  0.00    -0.283 N 
ATOM      8  C   UNL     1      36.270 -20.881 -19.189  0.00  0.00    +0.243 C 
ATOM      9  C   UNL     1      34.910 -21.319 -19.540  0.00  0.00    +0.241 C 
ATOM     10  C   UNL     1      34.208 -22.268 -18.668  0.00  0.00    +0.239 C 
ATOM     11  C   UNL     1      36.116 -22.242 -17.321  0.00  0.00    +0.208 C 
ATOM     12  H   UNL     1      37.447 -19.543 -20.284  0.00  0.00    +0.175 HD
ATOM     13  H   UNL     1      37.677 -22.376 -15.994  0.00  0.00    +0.156 HD
ATOM     14  H   UNL     1      36.323 -23.329 -15.590  0.00  0.00    +0.156 HD
ENDROOT
BRANCH   2  15
ATOM     15  C   UNL     1      35.259 -18.871 -21.869  0.00  0.00    +0.090 C 
ATOM     16  C   UNL     1      35.099 -17.587 -21.320  0.00  0.00    +0.025 C 
ATOM     17  C   UNL     1      35.120 -19.029 -23.259  0.00  0.00    +0.018 C 
ATOM     18  C   UNL     1      34.809 -16.494 -22.136  0.00  0.00    +0.077 C 
ATOM     19  C   UNL     1      34.830 -17.935 -24.074  0.00  0.00    +0.002 C 
ATOM     20  C   UNL     1      34.675 -16.668 -23.514  0.00  0.00    +0.007 C 
BRANCH  18  22
ATOM     21  O   UNL     1      34.344 -14.147 -22.170  0.00  0.00    -0.245 OA
ATOM     22  C   UNL     1      34.648 -15.173 -21.551  0.00  0.00    +0.338 C 
BRANCH  22  23
ATOM     23  O   UNL     1      34.866 -15.168 -20.208  0.00  0.00    -0.477 OA
ATOM     24  H   UNL     1      35.641 -14.771 -19.861  0.00  0.00    +0.295 HD
ENDBRANCH  22  23
ENDBRANCH  18  22
ENDBRANCH   2  15
TORSDOF 3
ENDMDL
MODEL 7
REMARK VINA RESULT:      -9.7      7.938     10.495
REMARK  Name = 448406
REMARK  3 active torsions:
REMARK  status: ('A' for Active; 'I' for Inactive)
REMARK    1  A    between atoms: N_2  and  C_15
REMARK    2  A    between atoms: C_18  and  C_22
REMARK    3  A    between atoms: C_22  and  O_23
REMARK                            x       y       z     vdW  Elec       q    Type
REMARK                         _______ _______ _______ _____ _____    ______ ____
ROOT
ATOM      1  O   UNL     1      34.286 -22.851 -18.377  0.00  0.00    -0.207 OA
ATOM      2  N   UNL     1      35.395 -24.757 -14.844  0.00  0.00    -0.137 N 
ATOM      3  N   UNL     1      34.169 -24.714 -14.258  0.00  0.00    -0.215 N 
ATOM      4  N   UNL     1      35.376 -24.172 -16.107  0.00  0.00    -0.143 NA
ATOM      5  N   UNL     1      32.068 -23.778 -15.130  0.00  0.00    -0.309 NA
ATOM      6  N   UNL     1      32.217 -22.805 -17.333  0.00  0.00    -0.251 NA
ATOM      7  N   UNL     1      30.202 -22.814 -16.197  0.00  0.00    -0.283 N 
ATOM      8  C   UNL     1      33.307 -24.103 -15.109  0.00  0.00    +0.243 C 
ATOM      9  C   UNL     1      34.149 -23.783 -16.273  0.00  0.00    +0.241 C 
ATOM     10  C   UNL     1      33.555 -23.101 -17.430  0.00  0.00    +0.239 C 
ATOM     11  C   UNL     1      31.541 -23.131 -16.249  0.00  0.00    +0.208 C 
ATOM     12  H   UNL     1      33.944 -25.066 -13.366  0.00  0.00    +0.175 HD
ATOM     13  H   UNL     1      29.672 -23.045 -15.401  0.00  0.00    +0.156 HD
ATOM     14  H   UNL     1      29.775 -22.357 -16.957  0.00  0.00    +0.156 HD
ENDROOT
BRANCH   2  15
ATOM     15  C   UNL     1      36.601 -24.800 -14.154  0.00  0.00    +0.090 C 
ATOM     16  C   UNL     1      37.758 -25.318 -14.761  0.00  0.00    +0.025 C 
ATOM     17  C   UNL     1      36.690 -24.328 -12.833  0.00  0.00    +0.018 C 
ATOM     18  C   UNL     1      38.967 -25.362 -14.068  0.00  0.00    +0.077 C 
ATOM     19  C   UNL     1      37.900 -24.373 -12.141  0.00  0.00    +0.002 C 
ATOM     20  C   UNL     1      39.038 -24.890 -12.758  0.00  0.00    +0.007 C 
BRANCH  18  22
ATOM     21  O   UNL     1      41.067 -26.508 -14.141  0.00  0.00    -0.245 OA
ATOM     22  C   UNL     1      40.155 -25.901 -14.712  0.00  0.00    +0.338 C 
BRANCH  22  23
ATOM     23  O   UNL     1      40.170 -25.669 -16.053  0.00  0.00    -0.477 OA
ATOM     24  H   UNL     1      40.762 -26.143 -16.603  0.00  0.00    +0.295 HD
ENDBRANCH  22  23
ENDBRANCH  18  22
ENDBRANCH   2  15
TORSDOF 3
ENDMDL
MODEL 8
REMARK VINA RESULT:      -9.6      8.553     11.247
REMARK  Name = 448406
REMARK  3 active torsions:
REMARK  status: ('A' for Active; 'I' for Inactive)
REMARK    1  A    between atoms: N_2  and  C_15
REMARK    2  A    between atoms: C_18  and  C_22
REMARK    3  A    between atoms: C_22  and  O_23
REMARK                            x       y       z     vdW  Elec       q    Type
REMARK                         _______ _______ _______ _____ _____    ______ ____
ROOT
ATOM      1  O   UNL     1      37.901 -22.796 -12.190  0.00  0.00    -0.207 OA
ATOM      2  N   UNL     1      34.964 -24.507 -14.597  0.00  0.00    -0.137 N 
ATOM      3  N   UNL     1      35.720 -25.546 -15.041  0.00  0.00    -0.215 N 
ATOM      4  N   UNL     1      35.682 -23.693 -13.724  0.00  0.00    -0.143 NA
ATOM      5  N   UNL     1      38.055 -26.103 -14.507  0.00  0.00    -0.309 NA
ATOM      6  N   UNL     1      39.146 -24.586 -12.979  0.00  0.00    -0.251 NA
ATOM      7  N   UNL     1      40.291 -26.407 -13.830  0.00  0.00    -0.283 N 
ATOM      8  C   UNL     1      36.952 -25.452 -14.481  0.00  0.00    +0.243 C 
ATOM      9  C   UNL     1      36.855 -24.242 -13.649  0.00  0.00    +0.241 C 
ATOM     10  C   UNL     1      38.020 -23.806 -12.869  0.00  0.00    +0.239 C 
ATOM     11  C   UNL     1      39.140 -25.656 -13.751  0.00  0.00    +0.208 C 
ATOM     12  H   UNL     1      35.423 -26.248 -15.665  0.00  0.00    +0.175 HD
ATOM     13  H   UNL     1      40.316 -27.210 -14.397  0.00  0.00    +0.156 HD
ATOM     14  H   UNL     1      41.089 -26.140 -13.318  0.00  0.00    +0.156 HD
ENDROOT
BRANCH   2  15
ATOM     15  C   UNL     1      33.896 -23.951 -15.290  0.00  0.00    +0.090 C 
ATOM     16  C   UNL     1      34.059 -23.481 -16.605  0.00  0.00    +0.025 C 
ATOM     17  C   UNL     1      32.628 -23.844 -14.691  0.00  0.00    +0.018 C 
ATOM     18  C   UNL     1      32.987 -22.921 -17.299  0.00  0.00    +0.077 C 
ATOM     19  C   UNL     1      31.557 -23.284 -15.387  0.00  0.00    +0.002 C 
ATOM     20  C   UNL     1      31.736 -22.823 -16.691  0.00  0.00    +0.007 C 
BRANCH  18  22
ATOM     21  O   UNL     1      32.707 -21.393 -19.120  0.00  0.00    -0.245 OA
ATOM     22  C   UNL     1      33.173 -22.441 -18.659  0.00  0.00    +0.338 C 
BRANCH  22  23
ATOM     23  O   UNL     1      33.939 -23.281 -19.407  0.00  0.00    -0.477 OA
ATOM     24  H   UNL     1      34.775 -23.562 -19.089  0.00  0.00    +0.295 HD
ENDBRANCH  22  23
ENDBRANCH  18  22
ENDBRANCH   2  15
TORSDOF 3
ENDMDL
MODEL 9
REMARK VINA RESULT:      -9.5      4.839      7.027
REMARK  Name = 448406
REMARK  3 active torsions:
REMARK  status: ('A' for Active; 'I' for Inactive)
REMARK    1  A    between atoms: N_2  and  C_15
REMARK    2  A    between atoms: C_18  and  C_22
REMARK    3  A    between atoms: C_22  and  O_23
REMARK                            x       y       z     vdW  Elec       q    Type
REMARK                         _______ _______ _______ _____ _____    ______ ____
ROOT
ATOM      1  O   UNL     1      37.038 -21.448 -19.561  0.00  0.00    -0.207 OA
ATOM      2  N   UNL     1      33.438 -22.814 -17.973  0.00  0.00    -0.137 N 
ATOM      3  N   UNL     1      32.630 -22.030 -18.735  0.00  0.00    -0.215 N 
ATOM      4  N   UNL     1      34.782 -22.596 -18.266  0.00  0.00    -0.143 NA
ATOM      5  N   UNL     1      33.245 -20.384 -20.455  0.00  0.00    -0.309 NA
ATOM      6  N   UNL     1      35.615 -20.135 -20.835  0.00  0.00    -0.251 NA
ATOM      7  N   UNL     1      34.102 -18.875 -22.049  0.00  0.00    -0.283 N 
ATOM      8  C   UNL     1      33.409 -21.275 -19.550  0.00  0.00    +0.243 C 
ATOM      9  C   UNL     1      34.775 -21.690 -19.195  0.00  0.00    +0.241 C 
ATOM     10  C   UNL     1      35.919 -21.078 -19.883  0.00  0.00    +0.239 C 
ATOM     11  C   UNL     1      34.358 -19.826 -21.087  0.00  0.00    +0.208 C 
ATOM     12  H   UNL     1      31.646 -22.013 -18.701  0.00  0.00    +0.175 HD
ATOM     13  H   UNL     1      33.174 -18.624 -22.258  0.00  0.00    +0.156 HD
ATOM     14  H   UNL     1      34.848 -18.447 -22.528  0.00  0.00    +0.156 HD
ENDROOT
BRANCH   2  15
ATOM     15  C   UNL     1      33.108 -23.305 -16.715  0.00  0.00    +0.090 C 
ATOM     16  C   UNL     1      31.765 -23.499 -16.349  0.00  0.00    +0.025 C 
ATOM     17  C   UNL     1      34.111 -23.616 -15.780  0.00  0.00    +0.018 C 
ATOM     18  C   UNL     1      31.435 -23.989 -15.086  0.00  0.00    +0.077 C 
ATOM     19  C   UNL     1      33.779 -24.106 -14.517  0.00  0.00    +0.002 C 
ATOM     20  C   UNL     1      32.442 -24.293 -14.170  0.00  0.00    +0.007 C 
BRANCH  18  22
ATOM     21  O   UNL     1      29.077 -23.610 -15.242  0.00  0.00    -0.245 OA
ATOM     22  C   UNL     1      30.040 -24.185 -14.724  0.00  0.00    +0.338 C 
BRANCH  22  23
ATOM     23  O   UNL     1      29.884 -25.098 -13.726  0.00  0.00    -0.477 OA
ATOM     24  H   UNL     1      29.106 -25.093 -13.204  0.00  0.00    +0.295 HD
ENDBRANCH  22  23
ENDBRANCH  18  22
ENDBRANCH   2  15
TORSDOF 3
ENDMDL
