MODEL 1
REMARK VINA RESULT:      -9.1      0.000      0.000
REMARK  Name = 2381
REMARK  6 active torsions:
REMARK  status: ('A' for Active; 'I' for Inactive)
REMARK    1  A    between atoms: C_1  and  C_2
REMARK    2  A    between atoms: C_1  and  C_9
REMARK    3  A    between atoms: C_1  and  O_15
REMARK    4  A    between atoms: C_1  and  C_17
REMARK    5  A    between atoms: C_17  and  C_18
REMARK    6  A    between atoms: C_18  and  N_19
REMARK                            x       y       z     vdW  Elec       q    Type
REMARK                         _______ _______ _______ _____ _____    ______ ____
ROOT
ATOM      1  C   UNL     1      35.743 -23.732 -15.012  0.00  0.00    +0.105 C 
ENDROOT
BRANCH   1   2
ATOM      2  C   UNL     1      37.083 -23.683 -14.294  0.00  0.00    +0.029 C 
ATOM      3  C   UNL     1      37.007 -23.801 -12.748  0.00  0.00    +0.003 C 
ATOM      4  C   UNL     1      38.438 -25.430 -13.293  0.00  0.00    +0.000 C 
ATOM      5  C   UNL     1      38.038 -24.858 -14.673  0.00  0.00    +0.003 C 
ATOM      6  C   UNL     1      38.465 -24.163 -12.432  0.00  0.00    +0.000 C 
ATOM      7  C   UNL     1      36.361 -25.113 -12.366  0.00  0.00    +0.000 C 
ATOM      8  C   UNL     1      37.217 -26.089 -12.699  0.00  0.00    +0.000 C 
ENDBRANCH   1   2
BRANCH   1   9
ATOM      9  C   UNL     1      35.687 -22.997 -16.357  0.00  0.00    +0.002 C 
ATOM     10  C   UNL     1      36.785 -22.271 -16.752  0.00  0.00    -0.002 C 
ATOM     11  C   UNL     1      34.543 -23.095 -17.111  0.00  0.00    -0.002 C 
ATOM     12  C   UNL     1      36.734 -21.602 -17.975  0.00  0.00    -0.000 C 
ATOM     13  C   UNL     1      34.492 -22.427 -18.334  0.00  0.00    -0.000 C 
ATOM     14  C   UNL     1      35.589 -21.680 -18.767  0.00  0.00    -0.000 C 
ENDBRANCH   1   9
BRANCH   1  15
ATOM     15  O   UNL     1      35.504 -25.125 -15.315  0.00  0.00    -0.383 OA
ATOM     16  H   UNL     1      35.309 -25.222 -16.260  0.00  0.00    +0.211 HD
ENDBRANCH   1  15
BRANCH   1  17
ATOM     17  C   UNL     1      34.581 -23.275 -14.081  0.00  0.00    +0.008 C 
BRANCH  17  18
ATOM     18  C   UNL     1      33.607 -24.388 -13.680  0.00  0.00    -0.075 C 
BRANCH  18  19
ATOM     19  N   UNL     1      32.414 -24.337 -14.526  0.00  0.00    +0.387 N 
ATOM     20  C   UNL     1      31.965 -22.949 -14.698  0.00  0.00    -0.077 C 
ATOM     21  C   UNL     1      31.347 -25.174 -13.960  0.00  0.00    -0.077 C 
ATOM     22  C   UNL     1      30.747 -22.873 -15.620  0.00  0.00    -0.023 C 
ATOM     23  C   UNL     1      30.109 -25.172 -14.857  0.00  0.00    -0.023 C 
ATOM     24  C   UNL     1      29.610 -23.753 -15.110  0.00  0.00    -0.004 C 
ATOM     25  H   UNL     1      32.649 -24.708 -15.447  0.00  0.00    -0.080 HD
ENDBRANCH  18  19
ENDBRANCH  17  18
ENDBRANCH   1  17
TORSDOF 6
ENDMDL
MODEL 2
REMARK VINA RESULT:      -9.0      0.766      1.627
REMARK  Name = 2381
REMARK  6 active torsions:
REMARK  status: ('A' for Active; 'I' for Inactive)
REMARK    1  A    between atoms: C_1  and  C_2
REMARK    2  A    between atoms: C_1  and  C_9
REMARK    3  A    between atoms: C_1  and  O_15
REMARK    4  A    between atoms: C_1  and  C_17
REMARK    5  A    between atoms: C_17  and  C_18
REMARK    6  A    between atoms: C_18  and  N_19
REMARK                            x       y       z     vdW  Elec       q    Type
REMARK                         _______ _______ _______ _____ _____    ______ ____
ROOT
ATOM      1  C   UNL     1      35.358 -23.509 -15.297  0.00  0.00    +0.105 C 
ENDROOT
BRANCH   1   2
ATOM      2  C   UNL     1      36.504 -23.207 -14.342  0.00  0.00    +0.029 C 
ATOM      3  C   UNL     1      36.156 -23.332 -12.835  0.00  0.00    +0.003 C 
ATOM      4  C   UNL     1      37.938 -24.665 -13.037  0.00  0.00    +0.000 C 
ATOM      5  C   UNL     1      37.712 -24.183 -14.488  0.00  0.00    +0.003 C 
ATOM      6  C   UNL     1      37.567 -23.413 -12.236  0.00  0.00    +0.000 C 
ATOM      7  C   UNL     1      35.700 -24.740 -12.529  0.00  0.00    +0.000 C 
ATOM      8  C   UNL     1      36.768 -25.540 -12.657  0.00  0.00    +0.000 C 
ENDBRANCH   1   2
BRANCH   1   9
ATOM      9  C   UNL     1      35.445 -22.828 -16.668  0.00  0.00    +0.002 C 
ATOM     10  C   UNL     1      34.375 -22.937 -17.523  0.00  0.00    -0.002 C 
ATOM     11  C   UNL     1      36.590 -22.137 -16.985  0.00  0.00    -0.002 C 
ATOM     12  C   UNL     1      34.455 -22.318 -18.770  0.00  0.00    -0.000 C 
ATOM     13  C   UNL     1      36.670 -21.517 -18.232  0.00  0.00    -0.000 C 
ATOM     14  C   UNL     1      35.601 -21.608 -19.126  0.00  0.00    -0.000 C 
ENDBRANCH   1   9
BRANCH   1  15
ATOM     15  O   UNL     1      35.421 -24.929 -15.558  0.00  0.00    -0.383 OA
ATOM     16  H   UNL     1      34.918 -25.406 -14.881  0.00  0.00    +0.211 HD
ENDBRANCH   1  15
BRANCH   1  17
ATOM     17  C   UNL     1      33.976 -23.241 -14.630  0.00  0.00    +0.008 C 
BRANCH  17  18
ATOM     18  C   UNL     1      33.070 -24.471 -14.522  0.00  0.00    -0.075 C 
BRANCH  18  19
ATOM     19  N   UNL     1      31.669 -24.076 -14.674  0.00  0.00    +0.387 N 
ATOM     20  C   UNL     1      30.787 -25.242 -14.526  0.00  0.00    -0.077 C 
ATOM     21  C   UNL     1      31.460 -23.413 -15.969  0.00  0.00    -0.077 C 
ATOM     22  C   UNL     1      29.316 -24.839 -14.633  0.00  0.00    -0.023 C 
ATOM     23  C   UNL     1      30.011 -22.949 -16.123  0.00  0.00    -0.023 C 
ATOM     24  C   UNL     1      29.036 -24.108 -15.942  0.00  0.00    -0.004 C 
ATOM     25  H   UNL     1      31.435 -23.410 -13.938  0.00  0.00    -0.080 HD
ENDBRANCH  18  19
ENDBRANCH  17  18
ENDBRANCH   1  17
TORSDOF 6
ENDMDL
MODEL 3
REMARK VINA RESULT:      -8.9      1.525      5.550
REMARK  Name = 2381
REMARK  6 active torsions:
REMARK  status: ('A' for Active; 'I' for Inactive)
REMARK    1  A    between atoms: C_1  and  C_2
REMARK    2  A    between atoms: C_1  and  C_9
REMARK    3  A    between atoms: C_1  and  O_15
REMARK    4  A    between atoms: C_1  and  C_17
REMARK    5  A    between atoms: C_17  and  C_18
REMARK    6  A    between atoms: C_18  and  N_19
REMARK                            x       y       z     vdW  Elec       q    Type
REMARK                         _______ _______ _______ _____ _____    ______ ____
ROOT
ATOM      1  C   UNL     1      33.391 -23.557 -15.548  0.00  0.00    +0.105 C 
ENDROOT
BRANCH   1   2
ATOM      2  C   UNL     1      31.942 -23.894 -15.861  0.00  0.00    +0.029 C 
ATOM      3  C   UNL     1      31.372 -25.124 -15.105  0.00  0.00    +0.003 C 
ATOM      4  C   UNL     1      29.895 -23.521 -14.612  0.00  0.00    +0.000 C 
ATOM      5  C   UNL     1      30.938 -22.766 -15.467  0.00  0.00    +0.003 C 
ATOM      6  C   UNL     1      29.868 -24.890 -15.299  0.00  0.00    +0.000 C 
ATOM      7  C   UNL     1      31.447 -24.888 -13.614  0.00  0.00    +0.000 C 
ATOM      8  C   UNL     1      30.565 -23.922 -13.320  0.00  0.00    +0.000 C 
ENDBRANCH   1   2
BRANCH   1   9
ATOM      9  C   UNL     1      34.200 -22.973 -16.712  0.00  0.00    +0.002 C 
ATOM     10  C   UNL     1      33.598 -22.874 -17.944  0.00  0.00    -0.002 C 
ATOM     11  C   UNL     1      35.493 -22.573 -16.476  0.00  0.00    -0.002 C 
ATOM     12  C   UNL     1      34.334 -22.343 -19.003  0.00  0.00    -0.000 C 
ATOM     13  C   UNL     1      36.229 -22.041 -17.536  0.00  0.00    -0.000 C 
ATOM     14  C   UNL     1      35.649 -21.927 -18.800  0.00  0.00    -0.000 C 
ENDBRANCH   1   9
BRANCH   1  15
ATOM     15  O   UNL     1      33.350 -22.522 -14.540  0.00  0.00    -0.383 OA
ATOM     16  H   UNL     1      32.574 -22.651 -13.974  0.00  0.00    +0.211 HD
ENDBRANCH   1  15
BRANCH   1  17
ATOM     17  C   UNL     1      34.132 -24.769 -14.909  0.00  0.00    +0.008 C 
BRANCH  17  18
ATOM     18  C   UNL     1      34.899 -24.445 -13.623  0.00  0.00    -0.075 C 
BRANCH  18  19
ATOM     19  N   UNL     1      36.129 -25.234 -13.561  0.00  0.00    +0.387 N 
ATOM     20  C   UNL     1      37.247 -24.407 -13.086  0.00  0.00    -0.077 C 
ATOM     21  C   UNL     1      36.426 -25.827 -14.872  0.00  0.00    -0.077 C 
ATOM     22  C   UNL     1      38.531 -25.229 -12.968  0.00  0.00    -0.023 C 
ATOM     23  C   UNL     1      37.683 -26.697 -14.812  0.00  0.00    -0.023 C 
ATOM     24  C   UNL     1      38.878 -25.908 -14.289  0.00  0.00    -0.004 C 
ATOM     25  H   UNL     1      35.996 -25.995 -12.894  0.00  0.00    -0.080 HD
ENDBRANCH  18  19
ENDBRANCH  17  18
ENDBRANCH   1  17
TORSDOF 6
ENDMDL
MODEL 4
REMARK VINA RESULT:      -8.6     11.152     14.126
REMARK  Name = 2381
REMARK  6 active torsions:
REMARK  status: ('A' for Active; 'I' for Inactive)
REMARK    1  A    between atoms: C_1  and  C_2
REMARK    2  A    between atoms: C_1  and  C_9
REMARK    3  A    between atoms: C_1  and  O_15
REMARK    4  A    between atoms: C_1  and  C_17
REMARK    5  A    between atoms: C_17  and  C_18
REMARK    6  A    between atoms: C_18  and  N_19
REMARK                            x       y       z     vdW  Elec       q    Type
REMARK                         _______ _______ _______ _____ _____    ______ ____
ROOT
ATOM      1  C   UNL     1      33.081 -13.433 -23.073  0.00  0.00    +0.105 C 
ENDROOT
BRANCH   1   2
ATOM      2  C   UNL     1      34.071 -14.358 -22.382  0.00  0.00    +0.029 C 
ATOM      3  C   UNL     1      34.000 -14.361 -20.831  0.00  0.00    +0.003 C 
ATOM      4  C   UNL     1      33.784 -16.528 -21.333  0.00  0.00    +0.000 C 
ATOM      5  C   UNL     1      33.862 -15.866 -22.728  0.00  0.00    +0.003 C 
ATOM      6  C   UNL     1      34.756 -15.661 -20.527  0.00  0.00    +0.000 C 
ATOM      7  C   UNL     1      32.622 -14.790 -20.382  0.00  0.00    +0.000 C 
ATOM      8  C   UNL     1      32.491 -16.089 -20.689  0.00  0.00    +0.000 C 
ENDBRANCH   1   2
BRANCH   1   9
ATOM      9  C   UNL     1      33.291 -13.248 -24.581  0.00  0.00    +0.002 C 
ATOM     10  C   UNL     1      33.841 -12.071 -25.026  0.00  0.00    -0.002 C 
ATOM     11  C   UNL     1      32.921 -14.269 -25.423  0.00  0.00    -0.002 C 
ATOM     12  C   UNL     1      34.032 -11.903 -26.398  0.00  0.00    -0.000 C 
ATOM     13  C   UNL     1      33.113 -14.102 -26.795  0.00  0.00    -0.000 C 
ATOM     14  C   UNL     1      33.668 -12.918 -27.282  0.00  0.00    -0.000 C 
ENDBRANCH   1   9
BRANCH   1  15
ATOM     15  O   UNL     1      31.785 -14.057 -22.930  0.00  0.00    -0.383 OA
ATOM     16  H   UNL     1      31.339 -14.078 -23.791  0.00  0.00    +0.211 HD
ENDBRANCH   1  15
BRANCH   1  17
ATOM     17  C   UNL     1      32.991 -12.055 -22.351  0.00  0.00    +0.008 C 
BRANCH  17  18
ATOM     18  C   UNL     1      31.565 -11.571 -22.072  0.00  0.00    -0.075 C 
BRANCH  18  19
ATOM     19  N   UNL     1      31.581 -10.161 -21.682  0.00  0.00    +0.387 N 
ATOM     20  C   UNL     1      32.536  -9.411 -22.511  0.00  0.00    -0.077 C 
ATOM     21  C   UNL     1      31.898 -10.027 -20.253  0.00  0.00    -0.077 C 
ATOM     22  C   UNL     1      32.530  -7.925 -22.149  0.00  0.00    -0.023 C 
ATOM     23  C   UNL     1      31.871  -8.561 -19.818  0.00  0.00    -0.023 C 
ATOM     24  C   UNL     1      32.814  -7.714 -20.666  0.00  0.00    -0.004 C 
ATOM     25  H   UNL     1      30.653  -9.768 -21.838  0.00  0.00    -0.080 HD
ENDBRANCH  18  19
ENDBRANCH  17  18
ENDBRANCH   1  17
TORSDOF 6
ENDMDL
MODEL 5
REMARK VINA RESULT:      -8.4      1.722      4.973
REMARK  Name = 2381
REMARK  6 active torsions:
REMARK  status: ('A' for Active; 'I' for Inactive)
REMARK    1  A    between atoms: C_1  and  C_2
REMARK    2  A    between atoms: C_1  and  C_9
REMARK    3  A    between atoms: C_1  and  O_15
REMARK    4  A    between atoms: C_1  and  C_17
REMARK    5  A    between atoms: C_17  and  C_18
REMARK    6  A    between atoms: C_18  and  N_19
REMARK                            x       y       z     vdW  Elec       q    Type
REMARK                         _______ _______ _______ _____ _____    ______ ____
ROOT
ATOM      1  C   UNL     1      34.000 -23.718 -15.171  0.00  0.00    +0.105 C 
ENDROOT
BRANCH   1   2
ATOM      2  C   UNL     1      34.855 -24.728 -14.422  0.00  0.00    +0.029 C 
ATOM      3  C   UNL     1      36.189 -25.108 -15.119  0.00  0.00    +0.003 C 
ATOM      4  C   UNL     1      36.865 -24.462 -13.088  0.00  0.00    +0.000 C 
ATOM      5  C   UNL     1      35.339 -24.225 -13.026  0.00  0.00    +0.003 C 
ATOM      6  C   UNL     1      36.944 -25.734 -13.938  0.00  0.00    +0.000 C 
ATOM      7  C   UNL     1      37.041 -23.873 -15.301  0.00  0.00    +0.000 C 
ATOM      8  C   UNL     1      37.441 -23.483 -14.082  0.00  0.00    +0.000 C 
ENDBRANCH   1   2
BRANCH   1   9
ATOM      9  C   UNL     1      32.489 -23.822 -14.927  0.00  0.00    +0.002 C 
ATOM     10  C   UNL     1      31.728 -22.683 -15.033  0.00  0.00    -0.002 C 
ATOM     11  C   UNL     1      31.960 -25.051 -14.613  0.00  0.00    -0.002 C 
ATOM     12  C   UNL     1      30.354 -22.779 -14.811  0.00  0.00    -0.000 C 
ATOM     13  C   UNL     1      30.586 -25.147 -14.392  0.00  0.00    -0.000 C 
ATOM     14  C   UNL     1      29.783 -24.010 -14.490  0.00  0.00    -0.000 C 
ENDBRANCH   1   9
BRANCH   1  15
ATOM     15  O   UNL     1      34.389 -22.419 -14.672  0.00  0.00    -0.383 OA
ATOM     16  H   UNL     1      33.731 -22.107 -14.031  0.00  0.00    +0.211 HD
ENDBRANCH   1  15
BRANCH   1  17
ATOM     17  C   UNL     1      34.319 -23.721 -16.696  0.00  0.00    +0.008 C 
BRANCH  17  18
ATOM     18  C   UNL     1      33.234 -23.094 -17.577  0.00  0.00    -0.075 C 
BRANCH  18  19
ATOM     19  N   UNL     1      33.840 -22.492 -18.765  0.00  0.00    +0.387 N 
ATOM     20  C   UNL     1      35.229 -22.097 -18.489  0.00  0.00    -0.077 C 
ATOM     21  C   UNL     1      33.044 -21.345 -19.223  0.00  0.00    -0.077 C 
ATOM     22  C   UNL     1      35.894 -21.510 -19.734  0.00  0.00    -0.023 C 
ATOM     23  C   UNL     1      33.637 -20.733 -20.493  0.00  0.00    -0.023 C 
ATOM     24  C   UNL     1      35.095 -20.335 -20.288  0.00  0.00    -0.004 C 
ATOM     25  H   UNL     1      33.854 -23.185 -19.513  0.00  0.00    -0.080 HD
ENDBRANCH  18  19
ENDBRANCH  17  18
ENDBRANCH   1  17
TORSDOF 6
ENDMDL
MODEL 6
REMARK VINA RESULT:      -8.4     11.465     14.485
REMARK  Name = 2381
REMARK  6 active torsions:
REMARK  status: ('A' for Active; 'I' for Inactive)
REMARK    1  A    between atoms: C_1  and  C_2
REMARK    2  A    between atoms: C_1  and  C_9
REMARK    3  A    between atoms: C_1  and  O_15
REMARK    4  A    between atoms: C_1  and  C_17
REMARK    5  A    between atoms: C_17  and  C_18
REMARK    6  A    between atoms: C_18  and  N_19
REMARK                            x       y       z     vdW  Elec       q    Type
REMARK                         _______ _______ _______ _____ _____    ______ ____
ROOT
ATOM      1  C   UNL     1      33.207 -13.357 -23.149  0.00  0.00    +0.105 C 
ENDROOT
BRANCH   1   2
ATOM      2  C   UNL     1      34.122 -14.357 -22.458  0.00  0.00    +0.029 C 
ATOM      3  C   UNL     1      34.107 -14.303 -20.907  0.00  0.00    +0.003 C 
ATOM      4  C   UNL     1      33.653 -16.451 -21.326  0.00  0.00    +0.000 C 
ATOM      5  C   UNL     1      33.748 -15.845 -22.744  0.00  0.00    +0.003 C 
ATOM      6  C   UNL     1      34.736 -15.664 -20.582  0.00  0.00    +0.000 C 
ATOM      7  C   UNL     1      32.709 -14.574 -20.399  0.00  0.00    +0.000 C 
ATOM      8  C   UNL     1      32.436 -15.861 -20.656  0.00  0.00    +0.000 C 
ENDBRANCH   1   2
BRANCH   1   9
ATOM      9  C   UNL     1      33.315 -13.311 -24.678  0.00  0.00    +0.002 C 
ATOM     10  C   UNL     1      32.891 -14.402 -25.398  0.00  0.00    -0.002 C 
ATOM     11  C   UNL     1      33.830 -12.180 -25.265  0.00  0.00    -0.002 C 
ATOM     12  C   UNL     1      32.989 -14.360 -26.788  0.00  0.00    -0.000 C 
ATOM     13  C   UNL     1      33.928 -12.138 -26.655  0.00  0.00    -0.000 C 
ATOM     14  C   UNL     1      33.507 -13.228 -27.418  0.00  0.00    -0.000 C 
ENDBRANCH   1   9
BRANCH   1  15
ATOM     15  O   UNL     1      31.858 -13.787 -22.862  0.00  0.00    -0.383 OA
ATOM     16  H   UNL     1      31.388 -13.085 -22.384  0.00  0.00    +0.211 HD
ENDBRANCH   1  15
BRANCH   1  17
ATOM     17  C   UNL     1      33.358 -11.932 -22.538  0.00  0.00    +0.008 C 
BRANCH  17  18
ATOM     18  C   UNL     1      32.046 -11.155 -22.395  0.00  0.00    -0.075 C 
BRANCH  18  19
ATOM     19  N   UNL     1      32.323  -9.724 -22.263  0.00  0.00    +0.387 N 
ATOM     20  C   UNL     1      32.023  -9.267 -20.899  0.00  0.00    -0.077 C 
ATOM     21  C   UNL     1      31.560  -8.959 -23.259  0.00  0.00    -0.077 C 
ATOM     22  C   UNL     1      32.353  -7.784 -20.729  0.00  0.00    -0.023 C 
ATOM     23  C   UNL     1      31.876  -7.465 -23.167  0.00  0.00    -0.023 C 
ATOM     24  C   UNL     1      31.623  -6.931 -21.761  0.00  0.00    -0.004 C 
ATOM     25  H   UNL     1      33.315  -9.566 -22.436  0.00  0.00    -0.080 HD
ENDBRANCH  18  19
ENDBRANCH  17  18
ENDBRANCH   1  17
TORSDOF 6
ENDMDL
MODEL 7
REMARK VINA RESULT:      -7.9     14.276     17.436
REMARK  Name = 2381
REMARK  6 active torsions:
REMARK  status: ('A' for Active; 'I' for Inactive)
REMARK    1  A    between atoms: C_1  and  C_2
REMARK    2  A    between atoms: C_1  and  C_9
REMARK    3  A    between atoms: C_1  and  O_15
REMARK    4  A    between atoms: C_1  and  C_17
REMARK    5  A    between atoms: C_17  and  C_18
REMARK    6  A    between atoms: C_18  and  N_19
REMARK                            x       y       z     vdW  Elec       q    Type
REMARK                         _______ _______ _______ _____ _____    ______ ____
ROOT
ATOM      1  C   UNL     1      32.889  -9.101 -23.201  0.00  0.00    +0.105 C 
ENDROOT
BRANCH   1   2
ATOM      2  C   UNL     1      33.107  -7.596 -23.232  0.00  0.00    +0.029 C 
ATOM      3  C   UNL     1      32.191  -6.817 -24.213  0.00  0.00    +0.003 C 
ATOM      4  C   UNL     1      31.837  -5.765 -22.272  0.00  0.00    +0.000 C 
ATOM      5  C   UNL     1      32.813  -6.894 -21.870  0.00  0.00    +0.003 C 
ATOM      6  C   UNL     1      32.356  -5.392 -23.665  0.00  0.00    +0.000 C 
ATOM      7  C   UNL     1      30.742  -7.035 -23.842  0.00  0.00    +0.000 C 
ATOM      8  C   UNL     1      30.532  -6.409 -22.676  0.00  0.00    +0.000 C 
ENDBRANCH   1   2
BRANCH   1   9
ATOM      9  C   UNL     1      32.198  -9.642 -21.944  0.00  0.00    +0.002 C 
ATOM     10  C   UNL     1      31.295 -10.669 -22.082  0.00  0.00    -0.002 C 
ATOM     11  C   UNL     1      32.510  -9.077 -20.731  0.00  0.00    -0.002 C 
ATOM     12  C   UNL     1      30.666 -11.160 -20.938  0.00  0.00    -0.000 C 
ATOM     13  C   UNL     1      31.882  -9.569 -19.587  0.00  0.00    -0.000 C 
ATOM     14  C   UNL     1      30.959 -10.611 -19.690  0.00  0.00    -0.000 C 
ENDBRANCH   1   9
BRANCH   1  15
ATOM     15  O   UNL     1      31.996  -9.397 -24.299  0.00  0.00    -0.383 OA
ATOM     16  H   UNL     1      32.433  -9.186 -25.138  0.00  0.00    +0.211 HD
ENDBRANCH   1  15
BRANCH   1  17
ATOM     17  C   UNL     1      34.211  -9.874 -23.485  0.00  0.00    +0.008 C 
BRANCH  17  18
ATOM     18  C   UNL     1      34.328 -10.443 -24.903  0.00  0.00    -0.075 C 
BRANCH  18  19
ATOM     19  N   UNL     1      33.557 -11.681 -25.011  0.00  0.00    +0.387 N 
ATOM     20  C   UNL     1      33.871 -12.581 -23.893  0.00  0.00    -0.077 C 
ATOM     21  C   UNL     1      33.808 -12.332 -26.304  0.00  0.00    -0.077 C 
ATOM     22  C   UNL     1      33.037 -13.861 -23.963  0.00  0.00    -0.023 C 
ATOM     23  C   UNL     1      32.972 -13.604 -26.453  0.00  0.00    -0.023 C 
ATOM     24  C   UNL     1      33.221 -14.570 -25.301  0.00  0.00    -0.004 C 
ATOM     25  H   UNL     1      32.563 -11.454 -24.961  0.00  0.00    -0.080 HD
ENDBRANCH  18  19
ENDBRANCH  17  18
ENDBRANCH   1  17
TORSDOF 6
ENDMDL
MODEL 8
REMARK VINA RESULT:      -7.8      1.514      5.783
REMARK  Name = 2381
REMARK  6 active torsions:
REMARK  status: ('A' for Active; 'I' for Inactive)
REMARK    1  A    between atoms: C_1  and  C_2
REMARK    2  A    between atoms: C_1  and  C_9
REMARK    3  A    between atoms: C_1  and  O_15
REMARK    4  A    between atoms: C_1  and  C_17
REMARK    5  A    between atoms: C_17  and  C_18
REMARK    6  A    between atoms: C_18  and  N_19
REMARK                            x       y       z     vdW  Elec       q    Type
REMARK                         _______ _______ _______ _____ _____    ______ ____
ROOT
ATOM      1  C   UNL     1      34.325 -24.381 -14.649  0.00  0.00    +0.105 C 
ENDROOT
BRANCH   1   2
ATOM      2  C   UNL     1      33.105 -23.775 -13.972  0.00  0.00    +0.029 C 
ATOM      3  C   UNL     1      32.247 -22.844 -14.871  0.00  0.00    +0.003 C 
ATOM      4  C   UNL     1      30.745 -24.319 -14.122  0.00  0.00    +0.000 C 
ATOM      5  C   UNL     1      32.062 -24.835 -13.499  0.00  0.00    +0.003 C 
ATOM      6  C   UNL     1      30.947 -22.802 -14.056  0.00  0.00    +0.000 C 
ATOM      7  C   UNL     1      31.739 -23.613 -16.068  0.00  0.00    +0.000 C 
ATOM      8  C   UNL     1      30.842 -24.502 -15.617  0.00  0.00    +0.000 C 
ENDBRANCH   1   2
BRANCH   1   9
ATOM      9  C   UNL     1      35.622 -24.337 -13.832  0.00  0.00    +0.002 C 
ATOM     10  C   UNL     1      35.690 -23.486 -12.755  0.00  0.00    -0.002 C 
ATOM     11  C   UNL     1      36.663 -25.150 -14.211  0.00  0.00    -0.002 C 
ATOM     12  C   UNL     1      36.870 -23.445 -12.013  0.00  0.00    -0.000 C 
ATOM     13  C   UNL     1      37.843 -25.110 -13.469  0.00  0.00    -0.000 C 
ATOM     14  C   UNL     1      37.947 -24.257 -12.369  0.00  0.00    -0.000 C 
ENDBRANCH   1   9
BRANCH   1  15
ATOM     15  O   UNL     1      34.024 -25.783 -14.832  0.00  0.00    -0.383 OA
ATOM     16  H   UNL     1      33.991 -26.223 -13.968  0.00  0.00    +0.211 HD
ENDBRANCH   1  15
BRANCH   1  17
ATOM     17  C   UNL     1      34.543 -23.785 -16.071  0.00  0.00    +0.008 C 
BRANCH  17  18
ATOM     18  C   UNL     1      35.666 -22.748 -16.165  0.00  0.00    -0.075 C 
BRANCH  18  19
ATOM     19  N   UNL     1      35.492 -21.928 -17.364  0.00  0.00    +0.387 N 
ATOM     20  C   UNL     1      34.463 -22.509 -18.238  0.00  0.00    -0.077 C 
ATOM     21  C   UNL     1      36.770 -21.779 -18.075  0.00  0.00    -0.077 C 
ATOM     22  C   UNL     1      34.233 -21.638 -19.474  0.00  0.00    -0.023 C 
ATOM     23  C   UNL     1      36.615 -20.884 -19.305  0.00  0.00    -0.023 C 
ATOM     24  C   UNL     1      35.531 -21.409 -20.240  0.00  0.00    -0.004 C 
ATOM     25  H   UNL     1      35.178 -21.000 -17.083  0.00  0.00    -0.080 HD
ENDBRANCH  18  19
ENDBRANCH  17  18
ENDBRANCH   1  17
TORSDOF 6
ENDMDL
MODEL 9
REMARK VINA RESULT:      -7.7     10.322     13.876
REMARK  Name = 2381
REMARK  6 active torsions:
REMARK  status: ('A' for Active; 'I' for Inactive)
REMARK    1  A    between atoms: C_1  and  C_2
REMARK    2  A    between atoms: C_1  and  C_9
REMARK    3  A    between atoms: C_1  and  O_15
REMARK    4  A    between atoms: C_1  and  C_17
REMARK    5  A    between atoms: C_17  and  C_18
REMARK    6  A    between atoms: C_18  and  N_19
REMARK                            x       y       z     vdW  Elec       q    Type
REMARK                         _______ _______ _______ _____ _____    ______ ____
ROOT
ATOM      1  C   UNL     1      32.989 -12.799 -23.094  0.00  0.00    +0.105 C 
ENDROOT
BRANCH   1   2
ATOM      2  C   UNL     1      31.851 -11.865 -22.709  0.00  0.00    +0.029 C 
ATOM      3  C   UNL     1      31.074 -12.265 -21.426  0.00  0.00    +0.003 C 
ATOM      4  C   UNL     1      31.680 -10.158 -20.992  0.00  0.00    +0.000 C 
ATOM      5  C   UNL     1      32.320 -10.414 -22.376  0.00  0.00    +0.003 C 
ATOM      6  C   UNL     1      30.368 -10.940 -21.111  0.00  0.00    +0.000 C 
ATOM      7  C   UNL     1      32.018 -12.304 -20.247  0.00  0.00    +0.000 C 
ATOM      8  C   UNL     1      32.386 -11.040 -19.991  0.00  0.00    +0.000 C 
ENDBRANCH   1   2
BRANCH   1   9
ATOM      9  C   UNL     1      33.156 -13.050 -24.597  0.00  0.00    +0.002 C 
ATOM     10  C   UNL     1      32.783 -14.273 -25.102  0.00  0.00    -0.002 C 
ATOM     11  C   UNL     1      33.672 -12.043 -25.376  0.00  0.00    -0.002 C 
ATOM     12  C   UNL     1      32.936 -14.501 -26.470  0.00  0.00    -0.000 C 
ATOM     13  C   UNL     1      33.824 -12.271 -26.744  0.00  0.00    -0.000 C 
ATOM     14  C   UNL     1      33.457 -13.501 -27.291  0.00  0.00    -0.000 C 
ENDBRANCH   1   9
BRANCH   1  15
ATOM     15  O   UNL     1      34.204 -12.143 -22.667  0.00  0.00    -0.383 OA
ATOM     16  H   UNL     1      34.971 -12.664 -22.952  0.00  0.00    +0.211 HD
ENDBRANCH   1  15
BRANCH   1  17
ATOM     17  C   UNL     1      32.911 -14.143 -22.310  0.00  0.00    +0.008 C 
BRANCH  17  18
ATOM     18  C   UNL     1      34.265 -14.701 -21.862  0.00  0.00    -0.075 C 
BRANCH  18  19
ATOM     19  N   UNL     1      34.337 -16.133 -22.151  0.00  0.00    +0.387 N 
ATOM     20  C   UNL     1      34.959 -16.853 -21.030  0.00  0.00    -0.077 C 
ATOM     21  C   UNL     1      35.067 -16.368 -23.404  0.00  0.00    -0.077 C 
ATOM     22  C   UNL     1      34.998 -18.358 -21.295  0.00  0.00    -0.023 C 
ATOM     23  C   UNL     1      35.109 -17.858 -23.746  0.00  0.00    -0.023 C 
ATOM     24  C   UNL     1      35.710 -18.673 -22.606  0.00  0.00    -0.004 C 
ATOM     25  H   UNL     1      33.389 -16.492 -22.267  0.00  0.00    -0.080 HD
ENDBRANCH  18  19
ENDBRANCH  17  18
ENDBRANCH   1  17
TORSDOF 6
ENDMDL
