MODEL 1
REMARK VINA RESULT:      -8.5      0.000      0.000
REMARK  Name = 9614919
REMARK  4 active torsions:
REMARK  status: ('A' for Active; 'I' for Inactive)
REMARK    1  A    between atoms: C_4  and  C_20
REMARK    2  A    between atoms: C_5  and  C_13
REMARK    3  A    between atoms: N_19  and  C_20
REMARK    4  A    between atoms: N_19  and  O_21
REMARK                            x       y       z     vdW  Elec       q    Type
REMARK                         _______ _______ _______ _____ _____    ______ ____
ROOT
ATOM      1  N   UNL     1      34.192 -18.719 -21.809  0.00  0.00    +0.388 N 
ATOM      2  C   UNL     1      34.638 -18.389 -23.177  0.00  0.00    -0.056 C 
ATOM      3  C   UNL     1      35.131 -17.953 -20.968  0.00  0.00    -0.058 C 
ATOM      4  C   UNL     1      34.093 -16.968 -23.466  0.00  0.00    +0.005 C 
ATOM      5  C   UNL     1      34.640 -15.915 -22.468  0.00  0.00    +0.020 C 
ATOM      6  C   UNL     1      34.676 -16.481 -21.024  0.00  0.00    -0.016 C 
ATOM      7  C   UNL     1      36.171 -18.447 -23.096  0.00  0.00    -0.023 C 
ATOM      8  C   UNL     1      36.496 -18.154 -21.630  0.00  0.00    -0.023 C 
ATOM      9  C   UNL     1      34.224 -20.153 -21.533  0.00  0.00    -0.100 C 
ATOM     10  H   UNL     1      33.217 -18.475 -21.639  0.00  0.00    -0.080 HD
ENDROOT
BRANCH   5  13
ATOM     11 CL   UNL     1      34.031 -11.280 -24.730  0.00  0.00    -0.081 Cl
ATOM     12 CL   UNL     1      31.619 -10.697 -22.653  0.00  0.00    -0.081 Cl
ATOM     13  C   UNL     1      33.888 -14.593 -22.526  0.00  0.00    -0.022 C 
ATOM     14  C   UNL     1      34.240 -13.641 -23.476  0.00  0.00    +0.008 C 
ATOM     15  C   UNL     1      32.853 -14.348 -21.630  0.00  0.00    -0.003 C 
ATOM     16  C   UNL     1      33.550 -12.429 -23.532  0.00  0.00    +0.068 C 
ATOM     17  C   UNL     1      32.162 -13.137 -21.684  0.00  0.00    +0.012 C 
ATOM     18  C   UNL     1      32.511 -12.178 -22.635  0.00  0.00    +0.068 C 
ENDBRANCH   5  13
BRANCH   4  19
ATOM     19  C   UNL     1      34.415 -16.587 -24.884  0.00  0.00    +0.120 C 
BRANCH  19  20
ATOM     20  N   UNL     1      33.482 -16.492 -25.771  0.00  0.00    -0.084 NA
BRANCH  20  21
ATOM     21  O   UNL     1      33.749 -15.379 -26.581  0.00  0.00    -0.263 OA
ATOM     22  C   UNL     1      32.641 -14.496 -26.497  0.00  0.00    +0.202 C 
ENDBRANCH  20  21
ENDBRANCH  19  20
ENDBRANCH   4  19
TORSDOF 4
ENDMDL
MODEL 2
REMARK VINA RESULT:      -8.4     11.446     13.506
REMARK  Name = 9614919
REMARK  4 active torsions:
REMARK  status: ('A' for Active; 'I' for Inactive)
REMARK    1  A    between atoms: C_4  and  C_20
REMARK    2  A    between atoms: C_5  and  C_13
REMARK    3  A    between atoms: N_19  and  C_20
REMARK    4  A    between atoms: N_19  and  O_21
REMARK                            x       y       z     vdW  Elec       q    Type
REMARK                         _______ _______ _______ _____ _____    ______ ____
ROOT
ATOM      1  N   UNL     1      38.360 -24.920 -15.018  0.00  0.00    +0.388 N 
ATOM      2  C   UNL     1      38.016 -24.401 -13.680  0.00  0.00    -0.056 C 
ATOM      3  C   UNL     1      37.638 -26.206 -15.064  0.00  0.00    -0.058 C 
ATOM      4  C   UNL     1      36.575 -23.847 -13.801  0.00  0.00    +0.005 C 
ATOM      5  C   UNL     1      35.558 -24.941 -14.218  0.00  0.00    +0.020 C 
ATOM      6  C   UNL     1      36.153 -25.871 -15.307  0.00  0.00    -0.016 C 
ATOM      7  C   UNL     1      38.119 -25.630 -12.764  0.00  0.00    -0.023 C 
ATOM      8  C   UNL     1      37.865 -26.825 -13.683  0.00  0.00    -0.023 C 
ATOM      9  C   UNL     1      39.800 -25.071 -15.215  0.00  0.00    -0.100 C 
ATOM     10  H   UNL     1      38.092 -24.287 -15.771  0.00  0.00    -0.080 HD
ENDROOT
BRANCH   5  13
ATOM     11 CL   UNL     1      30.523 -24.228 -13.163  0.00  0.00    -0.081 Cl
ATOM     12 CL   UNL     1      30.260 -22.657 -15.981  0.00  0.00    -0.081 Cl
ATOM     13  C   UNL     1      34.214 -24.372 -14.649  0.00  0.00    -0.022 C 
ATOM     14  C   UNL     1      33.103 -24.527 -13.827  0.00  0.00    +0.008 C 
ATOM     15  C   UNL     1      34.107 -23.699 -15.862  0.00  0.00    -0.003 C 
ATOM     16  C   UNL     1      31.871 -24.003 -14.222  0.00  0.00    +0.068 C 
ATOM     17  C   UNL     1      32.876 -23.174 -16.257  0.00  0.00    +0.012 C 
ATOM     18  C   UNL     1      31.758 -23.327 -15.437  0.00  0.00    +0.068 C 
ENDBRANCH   5  13
BRANCH   4  19
ATOM     19  C   UNL     1      36.175 -23.202 -12.504  0.00  0.00    +0.120 C 
BRANCH  19  20
ATOM     20  N   UNL     1      37.050 -22.619 -11.757  0.00  0.00    -0.084 NA
BRANCH  20  21
ATOM     21  O   UNL     1      36.976 -23.168 -10.470  0.00  0.00    -0.263 OA
ATOM     22  C   UNL     1      35.853 -24.035 -10.424  0.00  0.00    +0.202 C 
ENDBRANCH  20  21
ENDBRANCH  19  20
ENDBRANCH   4  19
TORSDOF 4
ENDMDL
MODEL 3
REMARK VINA RESULT:      -8.1      7.130      9.810
REMARK  Name = 9614919
REMARK  4 active torsions:
REMARK  status: ('A' for Active; 'I' for Inactive)
REMARK    1  A    between atoms: C_4  and  C_20
REMARK    2  A    between atoms: C_5  and  C_13
REMARK    3  A    between atoms: N_19  and  C_20
REMARK    4  A    between atoms: N_19  and  O_21
REMARK                            x       y       z     vdW  Elec       q    Type
REMARK                         _______ _______ _______ _____ _____    ______ ____
ROOT
ATOM      1  N   UNL     1      35.858 -22.938 -14.212  0.00  0.00    +0.388 N 
ATOM      2  C   UNL     1      34.716 -23.643 -14.828  0.00  0.00    -0.056 C 
ATOM      3  C   UNL     1      37.010 -23.459 -14.971  0.00  0.00    -0.058 C 
ATOM      4  C   UNL     1      34.449 -22.918 -16.170  0.00  0.00    +0.005 C 
ATOM      5  C   UNL     1      35.673 -22.971 -17.120  0.00  0.00    +0.020 C 
ATOM      6  C   UNL     1      36.995 -22.749 -16.340  0.00  0.00    -0.016 C 
ATOM      7  C   UNL     1      35.218 -25.084 -15.005  0.00  0.00    -0.023 C 
ATOM      8  C   UNL     1      36.739 -24.959 -15.103  0.00  0.00    -0.023 C 
ATOM      9  C   UNL     1      35.968 -23.183 -12.776  0.00  0.00    -0.100 C 
ATOM     10  H   UNL     1      35.773 -21.923 -14.264  0.00  0.00    -0.080 HD
ENDROOT
BRANCH   5  13
ATOM     11 CL   UNL     1      32.626 -20.586 -20.585  0.00  0.00    -0.081 Cl
ATOM     12 CL   UNL     1      35.273 -19.153 -21.774  0.00  0.00    -0.081 Cl
ATOM     13  C   UNL     1      35.556 -22.011 -18.295  0.00  0.00    -0.022 C 
ATOM     14  C   UNL     1      34.308 -21.751 -18.853  0.00  0.00    +0.008 C 
ATOM     15  C   UNL     1      36.697 -21.399 -18.803  0.00  0.00    -0.003 C 
ATOM     16  C   UNL     1      34.200 -20.870 -19.929  0.00  0.00    +0.068 C 
ATOM     17  C   UNL     1      36.590 -20.517 -19.879  0.00  0.00    +0.012 C 
ATOM     18  C   UNL     1      35.342 -20.253 -20.442  0.00  0.00    +0.068 C 
ENDBRANCH   5  13
BRANCH   4  19
ATOM     19  C   UNL     1      33.231 -23.508 -16.824  0.00  0.00    +0.120 C 
BRANCH  19  20
ATOM     20  N   UNL     1      32.084 -23.480 -16.233  0.00  0.00    -0.084 NA
BRANCH  20  21
ATOM     21  O   UNL     1      31.215 -22.676 -16.984  0.00  0.00    -0.263 OA
ATOM     22  C   UNL     1      29.901 -22.852 -16.477  0.00  0.00    +0.202 C 
ENDBRANCH  20  21
ENDBRANCH  19  20
ENDBRANCH   4  19
TORSDOF 4
ENDMDL
MODEL 4
REMARK VINA RESULT:      -8.1      9.126     11.598
REMARK  Name = 9614919
REMARK  4 active torsions:
REMARK  status: ('A' for Active; 'I' for Inactive)
REMARK    1  A    between atoms: C_4  and  C_20
REMARK    2  A    between atoms: C_5  and  C_13
REMARK    3  A    between atoms: N_19  and  C_20
REMARK    4  A    between atoms: N_19  and  O_21
REMARK                            x       y       z     vdW  Elec       q    Type
REMARK                         _______ _______ _______ _____ _____    ______ ____
ROOT
ATOM      1  N   UNL     1      36.918 -23.057 -13.041  0.00  0.00    +0.388 N 
ATOM      2  C   UNL     1      35.672 -23.847 -12.999  0.00  0.00    -0.056 C 
ATOM      3  C   UNL     1      37.722 -23.769 -14.051  0.00  0.00    -0.058 C 
ATOM      4  C   UNL     1      34.870 -23.435 -14.258  0.00  0.00    +0.005 C 
ATOM      5  C   UNL     1      35.640 -23.736 -15.570  0.00  0.00    +0.020 C 
ATOM      6  C   UNL     1      37.143 -23.385 -15.428  0.00  0.00    -0.016 C 
ATOM      7  C   UNL     1      36.153 -25.306 -13.036  0.00  0.00    -0.023 C 
ATOM      8  C   UNL     1      37.510 -25.253 -13.738  0.00  0.00    -0.023 C 
ATOM      9  C   UNL     1      37.582 -22.977 -11.742  0.00  0.00    -0.100 C 
ATOM     10  H   UNL     1      36.760 -22.078 -13.277  0.00  0.00    -0.080 HD
ENDROOT
BRANCH   5  13
ATOM     11 CL   UNL     1      36.316 -20.793 -19.796  0.00  0.00    -0.081 Cl
ATOM     12 CL   UNL     1      33.148 -21.090 -20.385  0.00  0.00    -0.081 Cl
ATOM     13  C   UNL     1      35.026 -23.061 -16.788  0.00  0.00    -0.022 C 
ATOM     14  C   UNL     1      35.832 -22.320 -17.646  0.00  0.00    +0.008 C 
ATOM     15  C   UNL     1      33.663 -23.191 -17.036  0.00  0.00    -0.003 C 
ATOM     16  C   UNL     1      35.269 -21.703 -18.765  0.00  0.00    +0.068 C 
ATOM     17  C   UNL     1      33.100 -22.575 -18.154  0.00  0.00    +0.012 C 
ATOM     18  C   UNL     1      33.903 -21.831 -19.018  0.00  0.00    +0.068 C 
ENDBRANCH   5  13
BRANCH   4  19
ATOM     19  C   UNL     1      33.532 -24.119 -14.246  0.00  0.00    +0.120 C 
BRANCH  19  20
ATOM     20  N   UNL     1      32.702 -23.933 -13.276  0.00  0.00    -0.084 NA
BRANCH  20  21
ATOM     21  O   UNL     1      31.883 -25.065 -13.166  0.00  0.00    -0.263 OA
ATOM     22  C   UNL     1      31.007 -25.088 -14.283  0.00  0.00    +0.202 C 
ENDBRANCH  20  21
ENDBRANCH  19  20
ENDBRANCH   4  19
TORSDOF 4
ENDMDL
MODEL 5
REMARK VINA RESULT:      -8.1      7.193      9.799
REMARK  Name = 9614919
REMARK  4 active torsions:
REMARK  status: ('A' for Active; 'I' for Inactive)
REMARK    1  A    between atoms: C_4  and  C_20
REMARK    2  A    between atoms: C_5  and  C_13
REMARK    3  A    between atoms: N_19  and  C_20
REMARK    4  A    between atoms: N_19  and  O_21
REMARK                            x       y       z     vdW  Elec       q    Type
REMARK                         _______ _______ _______ _____ _____    ______ ____
ROOT
ATOM      1  N   UNL     1      35.820 -22.923 -14.229  0.00  0.00    +0.388 N 
ATOM      2  C   UNL     1      34.634 -23.675 -14.682  0.00  0.00    -0.056 C 
ATOM      3  C   UNL     1      36.887 -23.436 -15.110  0.00  0.00    -0.058 C 
ATOM      4  C   UNL     1      34.184 -22.995 -15.999  0.00  0.00    +0.005 C 
ATOM      5  C   UNL     1      35.284 -23.042 -17.090  0.00  0.00    +0.020 C 
ATOM      6  C   UNL     1      36.684 -22.765 -16.484  0.00  0.00    -0.016 C 
ATOM      7  C   UNL     1      35.152 -25.107 -14.884  0.00  0.00    -0.023 C 
ATOM      8  C   UNL     1      36.645 -24.946 -15.171  0.00  0.00    -0.023 C 
ATOM      9  C   UNL     1      36.112 -23.126 -12.811  0.00  0.00    -0.100 C 
ATOM     10  H   UNL     1      35.701 -21.913 -14.295  0.00  0.00    -0.080 HD
ENDROOT
BRANCH   5  13
ATOM     11 CL   UNL     1      37.097 -19.673 -20.603  0.00  0.00    -0.081 Cl
ATOM     12 CL   UNL     1      34.082 -19.404 -21.750  0.00  0.00    -0.081 Cl
ATOM     13  C   UNL     1      34.997 -22.119 -18.266  0.00  0.00    -0.022 C 
ATOM     14  C   UNL     1      36.034 -21.396 -18.845  0.00  0.00    +0.008 C 
ATOM     15  C   UNL     1      33.699 -22.007 -18.754  0.00  0.00    -0.003 C 
ATOM     16  C   UNL     1      35.771 -20.551 -19.924  0.00  0.00    +0.068 C 
ATOM     17  C   UNL     1      33.435 -21.163 -19.833  0.00  0.00    +0.012 C 
ATOM     18  C   UNL     1      34.471 -20.434 -20.417  0.00  0.00    +0.068 C 
ENDBRANCH   5  13
BRANCH   4  19
ATOM     19  C   UNL     1      32.913 -23.634 -16.484  0.00  0.00    +0.120 C 
BRANCH  19  20
ATOM     20  N   UNL     1      31.781 -23.363 -15.926  0.00  0.00    -0.084 NA
BRANCH  20  21
ATOM     21  O   UNL     1      30.937 -22.786 -16.885  0.00  0.00    -0.263 OA
ATOM     22  C   UNL     1      29.608 -22.836 -16.392  0.00  0.00    +0.202 C 
ENDBRANCH  20  21
ENDBRANCH  19  20
ENDBRANCH   4  19
TORSDOF 4
ENDMDL
MODEL 6
REMARK VINA RESULT:      -8.0      0.661      1.549
REMARK  Name = 9614919
REMARK  4 active torsions:
REMARK  status: ('A' for Active; 'I' for Inactive)
REMARK    1  A    between atoms: C_4  and  C_20
REMARK    2  A    between atoms: C_5  and  C_13
REMARK    3  A    between atoms: N_19  and  C_20
REMARK    4  A    between atoms: N_19  and  O_21
REMARK                            x       y       z     vdW  Elec       q    Type
REMARK                         _______ _______ _______ _____ _____    ______ ____
ROOT
ATOM      1  N   UNL     1      34.115 -18.603 -21.758  0.00  0.00    +0.388 N 
ATOM      2  C   UNL     1      34.572 -18.340 -23.136  0.00  0.00    -0.056 C 
ATOM      3  C   UNL     1      35.097 -17.861 -20.943  0.00  0.00    -0.058 C 
ATOM      4  C   UNL     1      34.101 -16.903 -23.469  0.00  0.00    +0.005 C 
ATOM      5  C   UNL     1      34.707 -15.849 -22.506  0.00  0.00    +0.020 C 
ATOM      6  C   UNL     1      34.720 -16.370 -21.045  0.00  0.00    -0.016 C 
ATOM      7  C   UNL     1      36.100 -18.476 -23.058  0.00  0.00    -0.023 C 
ATOM      8  C   UNL     1      36.446 -18.155 -21.603  0.00  0.00    -0.023 C 
ATOM      9  C   UNL     1      34.073 -20.027 -21.436  0.00  0.00    -0.100 C 
ATOM     10  H   UNL     1      33.155 -18.303 -21.593  0.00  0.00    -0.080 HD
ENDROOT
BRANCH   5  13
ATOM     11 CL   UNL     1      31.527 -12.341 -20.371  0.00  0.00    -0.081 Cl
ATOM     12 CL   UNL     1      32.039 -10.457 -22.952  0.00  0.00    -0.081 Cl
ATOM     13  C   UNL     1      34.025 -14.492 -22.604  0.00  0.00    -0.022 C 
ATOM     14  C   UNL     1      33.186 -14.065 -21.581  0.00  0.00    +0.008 C 
ATOM     15  C   UNL     1      34.249 -13.687 -23.716  0.00  0.00    -0.003 C 
ATOM     16  C   UNL     1      32.562 -12.820 -21.670  0.00  0.00    +0.068 C 
ATOM     17  C   UNL     1      33.626 -12.441 -23.806  0.00  0.00    +0.012 C 
ATOM     18  C   UNL     1      32.783 -12.008 -22.783  0.00  0.00    +0.068 C 
ENDBRANCH   5  13
BRANCH   4  19
ATOM     19  C   UNL     1      34.435 -16.584 -24.899  0.00  0.00    +0.120 C 
BRANCH  19  20
ATOM     20  N   UNL     1      33.516 -16.558 -25.804  0.00  0.00    -0.084 NA
BRANCH  20  21
ATOM     21  O   UNL     1      33.726 -15.440 -26.622  0.00  0.00    -0.263 OA
ATOM     22  C   UNL     1      32.549 -14.648 -26.601  0.00  0.00    +0.202 C 
ENDBRANCH  20  21
ENDBRANCH  19  20
ENDBRANCH   4  19
TORSDOF 4
ENDMDL
MODEL 7
REMARK VINA RESULT:      -7.8      9.614     12.289
REMARK  Name = 9614919
REMARK  4 active torsions:
REMARK  status: ('A' for Active; 'I' for Inactive)
REMARK    1  A    between atoms: C_4  and  C_20
REMARK    2  A    between atoms: C_5  and  C_13
REMARK    3  A    between atoms: N_19  and  C_20
REMARK    4  A    between atoms: N_19  and  O_21
REMARK                            x       y       z     vdW  Elec       q    Type
REMARK                         _______ _______ _______ _____ _____    ______ ____
ROOT
ATOM      1  N   UNL     1      36.875 -25.281 -13.438  0.00  0.00    +0.388 N 
ATOM      2  C   UNL     1      36.869 -24.105 -14.330  0.00  0.00    -0.056 C 
ATOM      3  C   UNL     1      36.230 -24.764 -12.215  0.00  0.00    -0.058 C 
ATOM      4  C   UNL     1      35.422 -23.992 -14.869  0.00  0.00    +0.005 C 
ATOM      5  C   UNL     1      34.386 -23.794 -13.732  0.00  0.00    +0.020 C 
ATOM      6  C   UNL     1      34.719 -24.689 -12.510  0.00  0.00    -0.016 C 
ATOM      7  C   UNL     1      37.270 -22.938 -13.415  0.00  0.00    -0.023 C 
ATOM      8  C   UNL     1      36.842 -23.376 -12.014  0.00  0.00    -0.023 C 
ATOM      9  C   UNL     1      38.218 -25.801 -13.193  0.00  0.00    -0.100 C 
ATOM     10  H   UNL     1      36.388 -26.084 -13.835  0.00  0.00    -0.080 HD
ENDROOT
BRANCH   5  13
ATOM     11 CL   UNL     1      30.531 -22.386 -16.915  0.00  0.00    -0.081 Cl
ATOM     12 CL   UNL     1      28.688 -24.650 -15.518  0.00  0.00    -0.081 Cl
ATOM     13  C   UNL     1      32.950 -23.996 -14.193  0.00  0.00    -0.022 C 
ATOM     14  C   UNL     1      32.436 -23.208 -15.216  0.00  0.00    +0.008 C 
ATOM     15  C   UNL     1      32.162 -24.971 -13.588  0.00  0.00    -0.003 C 
ATOM     16  C   UNL     1      31.120 -23.395 -15.641  0.00  0.00    +0.068 C 
ATOM     17  C   UNL     1      30.846 -25.159 -14.011  0.00  0.00    +0.012 C 
ATOM     18  C   UNL     1      30.325 -24.371 -15.038  0.00  0.00    +0.068 C 
ENDBRANCH   5  13
BRANCH   4  19
ATOM     19  C   UNL     1      35.345 -22.876 -15.872  0.00  0.00    +0.120 C 
BRANCH  19  20
ATOM     20  N   UNL     1      36.234 -22.758 -16.800  0.00  0.00    -0.084 NA
BRANCH  20  21
ATOM     21  O   UNL     1      35.592 -22.381 -17.987  0.00  0.00    -0.263 OA
ATOM     22  C   UNL     1      36.477 -21.554 -18.726  0.00  0.00    +0.202 C 
ENDBRANCH  20  21
ENDBRANCH  19  20
ENDBRANCH   4  19
TORSDOF 4
ENDMDL
MODEL 8
REMARK VINA RESULT:      -7.8      9.946     12.641
REMARK  Name = 9614919
REMARK  4 active torsions:
REMARK  status: ('A' for Active; 'I' for Inactive)
REMARK    1  A    between atoms: C_4  and  C_20
REMARK    2  A    between atoms: C_5  and  C_13
REMARK    3  A    between atoms: N_19  and  C_20
REMARK    4  A    between atoms: N_19  and  O_21
REMARK                            x       y       z     vdW  Elec       q    Type
REMARK                         _______ _______ _______ _____ _____    ______ ____
ROOT
ATOM      1  N   UNL     1      35.911 -24.217 -11.734  0.00  0.00    +0.388 N 
ATOM      2  C   UNL     1      36.440 -25.336 -12.538  0.00  0.00    -0.056 C 
ATOM      3  C   UNL     1      36.959 -23.188 -11.878  0.00  0.00    -0.058 C 
ATOM      4  C   UNL     1      36.178 -24.952 -14.015  0.00  0.00    +0.005 C 
ATOM      5  C   UNL     1      36.891 -23.634 -14.415  0.00  0.00    +0.020 C 
ATOM      6  C   UNL     1      36.789 -22.579 -13.284  0.00  0.00    -0.016 C 
ATOM      7  C   UNL     1      37.934 -25.382 -12.178  0.00  0.00    -0.023 C 
ATOM      8  C   UNL     1      38.276 -23.957 -11.744  0.00  0.00    -0.023 C 
ATOM      9  C   UNL     1      35.667 -24.585 -10.341  0.00  0.00    -0.100 C 
ATOM     10  H   UNL     1      34.996 -23.899 -12.049  0.00  0.00    -0.080 HD
ENDROOT
BRANCH   5  13
ATOM     11 CL   UNL     1      32.967 -22.979 -17.754  0.00  0.00    -0.081 Cl
ATOM     12 CL   UNL     1      35.013 -21.381 -19.687  0.00  0.00    -0.081 Cl
ATOM     13  C   UNL     1      36.402 -23.073 -15.743  0.00  0.00    -0.022 C 
ATOM     14  C   UNL     1      35.075 -23.247 -16.119  0.00  0.00    +0.008 C 
ATOM     15  C   UNL     1      37.287 -22.387 -16.570  0.00  0.00    -0.003 C 
ATOM     16  C   UNL     1      34.626 -22.731 -17.335  0.00  0.00    +0.068 C 
ATOM     17  C   UNL     1      36.838 -21.870 -17.786  0.00  0.00    +0.012 C 
ATOM     18  C   UNL     1      35.508 -22.042 -18.169  0.00  0.00    +0.068 C 
ENDBRANCH   5  13
BRANCH   4  19
ATOM     19  C   UNL     1      36.596 -26.086 -14.909  0.00  0.00    +0.120 C 
BRANCH  19  20
ATOM     20  N   UNL     1      37.696 -26.029 -15.581  0.00  0.00    -0.084 NA
BRANCH  20  21
ATOM     21  O   UNL     1      38.687 -26.726 -14.875  0.00  0.00    -0.263 OA
ATOM     22  C   UNL     1      39.887 -25.970 -14.935  0.00  0.00    +0.202 C 
ENDBRANCH  20  21
ENDBRANCH  19  20
ENDBRANCH   4  19
TORSDOF 4
ENDMDL
MODEL 9
REMARK VINA RESULT:      -7.8      4.566      7.934
REMARK  Name = 9614919
REMARK  4 active torsions:
REMARK  status: ('A' for Active; 'I' for Inactive)
REMARK    1  A    between atoms: C_4  and  C_20
REMARK    2  A    between atoms: C_5  and  C_13
REMARK    3  A    between atoms: N_19  and  C_20
REMARK    4  A    between atoms: N_19  and  O_21
REMARK                            x       y       z     vdW  Elec       q    Type
REMARK                         _______ _______ _______ _____ _____    ______ ____
ROOT
ATOM      1  N   UNL     1      32.948  -7.480 -24.408  0.00  0.00    +0.388 N 
ATOM      2  C   UNL     1      32.509  -8.063 -23.125  0.00  0.00    -0.056 C 
ATOM      3  C   UNL     1      34.393  -7.778 -24.422  0.00  0.00    -0.058 C 
ATOM      4  C   UNL     1      32.422  -9.591 -23.365  0.00  0.00    +0.005 C 
ATOM      5  C   UNL     1      33.787 -10.199 -23.778  0.00  0.00    +0.020 C 
ATOM      6  C   UNL     1      34.533  -9.273 -24.773  0.00  0.00    -0.016 C 
ATOM      7  C   UNL     1      33.614  -7.665 -22.134  0.00  0.00    -0.023 C 
ATOM      8  C   UNL     1      34.863  -7.480 -22.997  0.00  0.00    -0.023 C 
ATOM      9  C   UNL     1      32.663  -6.051 -24.508  0.00  0.00    -0.100 C 
ATOM     10  H   UNL     1      32.454  -7.868 -25.210  0.00  0.00    -0.080 HD
ENDROOT
BRANCH   5  13
ATOM     11 CL   UNL     1      33.526 -15.294 -22.804  0.00  0.00    -0.081 Cl
ATOM     12 CL   UNL     1      33.306 -15.789 -25.995  0.00  0.00    -0.081 Cl
ATOM     13  C   UNL     1      33.668 -11.615 -24.321  0.00  0.00    -0.022 C 
ATOM     14  C   UNL     1      33.651 -12.693 -23.442  0.00  0.00    +0.008 C 
ATOM     15  C   UNL     1      33.574 -11.822 -25.694  0.00  0.00    -0.003 C 
ATOM     16  C   UNL     1      33.539 -13.992 -23.941  0.00  0.00    +0.068 C 
ATOM     17  C   UNL     1      33.462 -13.120 -26.193  0.00  0.00    +0.012 C 
ATOM     18  C   UNL     1      33.445 -14.205 -25.316  0.00  0.00    +0.068 C 
ENDBRANCH   5  13
BRANCH   4  19
ATOM     19  C   UNL     1      31.881 -10.261 -22.133  0.00  0.00    +0.120 C 
BRANCH  19  20
ATOM     20  N   UNL     1      30.794 -10.955 -22.181  0.00  0.00    -0.084 NA
BRANCH  20  21
ATOM     21  O   UNL     1      30.405 -11.267 -20.871  0.00  0.00    -0.263 OA
ATOM     22  C   UNL     1      31.572 -11.582 -20.127  0.00  0.00    +0.202 C 
ENDBRANCH  20  21
ENDBRANCH  19  20
ENDBRANCH   4  19
TORSDOF 4
ENDMDL
