MODEL 1
REMARK VINA RESULT:     -10.1      0.000      0.000
REMARK  Name = 2750
REMARK  5 active torsions:
REMARK  status: ('A' for Active; 'I' for Inactive)
REMARK    1  A    between atoms: C_1  and  O_7
REMARK    2  A    between atoms: C_4  and  C_16
REMARK    3  A    between atoms: O_7  and  C_8
REMARK    4  A    between atoms: C_8  and  C_9
REMARK    5  A    between atoms: C_16  and  C_21
REMARK                            x       y       z     vdW  Elec       q    Type
REMARK                         _______ _______ _______ _____ _____    ______ ____
ROOT
ATOM      1  C   UNL     1      35.360 -21.666 -18.848  0.00  0.00    +0.139 C 
ATOM      2  C   UNL     1      34.570 -22.443 -17.992  0.00  0.00    +0.037 C 
ATOM      3  C   UNL     1      36.653 -21.305 -18.445  0.00  0.00    +0.037 C 
ATOM      4  C   UNL     1      36.351 -22.488 -16.361  0.00  0.00    -0.021 C 
ATOM      5  C   UNL     1      35.063 -22.852 -16.754  0.00  0.00    -0.001 C 
ATOM      6  C   UNL     1      37.146 -21.715 -17.207  0.00  0.00    -0.001 C 
ENDROOT
BRANCH   1   7
ATOM      7  O   UNL     1      34.883 -21.269 -20.046  0.00  0.00    -0.475 OA
BRANCH   7   8
ATOM      8  C   UNL     1      35.725 -20.537 -20.909  0.00  0.00    +0.205 C 
BRANCH   8   9
ATOM      9  C   UNL     1      34.906 -19.371 -21.496  0.00  0.00    +0.040 C 
ATOM     10  C   UNL     1      35.456 -18.040 -20.935  0.00  0.00    +0.004 C 
ATOM     11  C   UNL     1      35.040 -19.388 -23.036  0.00  0.00    +0.004 C 
ATOM     12  C   UNL     1      34.865 -16.805 -21.614  0.00  0.00    +0.000 C 
ATOM     13  C   UNL     1      34.449 -18.150 -23.711  0.00  0.00    +0.000 C 
ATOM     14  C   UNL     1      35.023 -16.864 -23.129  0.00  0.00    +0.000 C 
ATOM     15  C   UNL     1      33.436 -19.568 -21.078  0.00  0.00    +0.004 C 
ENDBRANCH   8   9
ENDBRANCH   7   8
ENDBRANCH   1   7
BRANCH   4  16
ATOM     16  C   UNL     1      36.879 -22.927 -15.036  0.00  0.00    +0.047 C 
BRANCH  16  21
ATOM     17  S   UNL     1      35.936 -25.150 -13.698  0.00  0.00    -0.048 S 
ATOM     18  O   UNL     1      39.460 -24.465 -15.115  0.00  0.00    -0.274 OA
ATOM     19  O   UNL     1      37.048 -26.576 -11.789  0.00  0.00    -0.263 OA
ATOM     20  N   UNL     1      38.430 -25.601 -13.383  0.00  0.00    -0.246 N 
ATOM     21  C   UNL     1      37.049 -24.442 -14.951  0.00  0.00    +0.137 C 
ATOM     22  C   UNL     1      38.448 -24.817 -14.518  0.00  0.00    +0.239 C 
ATOM     23  C   UNL     1      37.231 -25.902 -12.792  0.00  0.00    +0.279 C 
ATOM     24  H   UNL     1      39.271 -25.941 -13.001  0.00  0.00    +0.158 HD
ENDBRANCH  16  21
ENDBRANCH   4  16
TORSDOF 5
ENDMDL
MODEL 2
REMARK VINA RESULT:     -10.1      5.087      9.239
REMARK  Name = 2750
REMARK  5 active torsions:
REMARK  status: ('A' for Active; 'I' for Inactive)
REMARK    1  A    between atoms: C_1  and  O_7
REMARK    2  A    between atoms: C_4  and  C_16
REMARK    3  A    between atoms: O_7  and  C_8
REMARK    4  A    between atoms: C_8  and  C_9
REMARK    5  A    between atoms: C_16  and  C_21
REMARK                            x       y       z     vdW  Elec       q    Type
REMARK                         _______ _______ _______ _____ _____    ______ ____
ROOT
ATOM      1  C   UNL     1      33.397 -22.358 -18.572  0.00  0.00    +0.139 C 
ATOM      2  C   UNL     1      32.693 -21.409 -19.324  0.00  0.00    +0.037 C 
ATOM      3  C   UNL     1      34.796 -22.380 -18.639  0.00  0.00    +0.037 C 
ATOM      4  C   UNL     1      34.769 -20.527 -20.188  0.00  0.00    -0.021 C 
ATOM      5  C   UNL     1      33.376 -20.497 -20.128  0.00  0.00    -0.001 C 
ATOM      6  C   UNL     1      35.479 -21.469 -19.443  0.00  0.00    -0.001 C 
ENDROOT
BRANCH   1   7
ATOM      7  O   UNL     1      32.735 -23.240 -17.794  0.00  0.00    -0.475 OA
BRANCH   7   8
ATOM      8  C   UNL     1      33.039 -23.299 -16.418  0.00  0.00    +0.205 C 
BRANCH   8   9
ATOM      9  C   UNL     1      31.710 -23.369 -15.641  0.00  0.00    +0.040 C 
ATOM     10  C   UNL     1      30.586 -22.766 -16.515  0.00  0.00    +0.004 C 
ATOM     11  C   UNL     1      31.392 -24.847 -15.321  0.00  0.00    +0.004 C 
ATOM     12  C   UNL     1      29.188 -22.980 -15.937  0.00  0.00    +0.000 C 
ATOM     13  C   UNL     1      29.991 -25.057 -14.744  0.00  0.00    +0.000 C 
ATOM     14  C   UNL     1      28.918 -24.450 -15.641  0.00  0.00    +0.000 C 
ATOM     15  C   UNL     1      31.879 -22.558 -14.341  0.00  0.00    +0.004 C 
ENDBRANCH   8   9
ENDBRANCH   7   8
ENDBRANCH   1   7
BRANCH   4  16
ATOM     16  C   UNL     1      35.499 -19.551 -21.047  0.00  0.00    +0.047 C 
BRANCH  16  21
ATOM     17  S   UNL     1      34.548 -18.820 -23.534  0.00  0.00    -0.048 S 
ATOM     18  O   UNL     1      35.175 -16.630 -20.418  0.00  0.00    -0.274 OA
ATOM     19  O   UNL     1      35.150 -16.747 -25.035  0.00  0.00    -0.263 OA
ATOM     20  N   UNL     1      35.205 -16.487 -22.726  0.00  0.00    -0.246 N 
ATOM     21  C   UNL     1      34.559 -18.562 -21.733  0.00  0.00    +0.137 C 
ATOM     22  C   UNL     1      35.011 -17.135 -21.523  0.00  0.00    +0.239 C 
ATOM     23  C   UNL     1      35.017 -17.174 -23.898  0.00  0.00    +0.279 C 
ATOM     24  H   UNL     1      35.478 -15.542 -22.742  0.00  0.00    +0.158 HD
ENDBRANCH  16  21
ENDBRANCH   4  16
TORSDOF 5
ENDMDL
MODEL 3
REMARK VINA RESULT:     -10.1      4.235      9.348
REMARK  Name = 2750
REMARK  5 active torsions:
REMARK  status: ('A' for Active; 'I' for Inactive)
REMARK    1  A    between atoms: C_1  and  O_7
REMARK    2  A    between atoms: C_4  and  C_16
REMARK    3  A    between atoms: O_7  and  C_8
REMARK    4  A    between atoms: C_8  and  C_9
REMARK    5  A    between atoms: C_16  and  C_21
REMARK                            x       y       z     vdW  Elec       q    Type
REMARK                         _______ _______ _______ _____ _____    ______ ____
ROOT
ATOM      1  C   UNL     1      34.774 -22.383 -18.248  0.00  0.00    +0.139 C 
ATOM      2  C   UNL     1      33.441 -22.159 -18.611  0.00  0.00    +0.037 C 
ATOM      3  C   UNL     1      35.791 -21.690 -18.918  0.00  0.00    +0.037 C 
ATOM      4  C   UNL     1      34.147 -20.570 -20.289  0.00  0.00    -0.021 C 
ATOM      5  C   UNL     1      33.129 -21.256 -19.627  0.00  0.00    -0.001 C 
ATOM      6  C   UNL     1      35.479 -20.788 -19.933  0.00  0.00    -0.001 C 
ENDROOT
BRANCH   1   7
ATOM      7  O   UNL     1      35.076 -23.258 -17.265  0.00  0.00    -0.475 OA
BRANCH   7   8
ATOM      8  C   UNL     1      35.053 -22.815 -15.926  0.00  0.00    +0.205 C 
BRANCH   8   9
ATOM      9  C   UNL     1      36.180 -23.540 -15.166  0.00  0.00    +0.040 C 
ATOM     10  C   UNL     1      36.094 -23.170 -13.668  0.00  0.00    +0.004 C 
ATOM     11  C   UNL     1      36.004 -25.066 -15.341  0.00  0.00    +0.004 C 
ATOM     12  C   UNL     1      37.025 -23.999 -12.783  0.00  0.00    +0.000 C 
ATOM     13  C   UNL     1      36.935 -25.892 -14.454  0.00  0.00    +0.000 C 
ATOM     14  C   UNL     1      36.812 -25.495 -12.987  0.00  0.00    +0.000 C 
ATOM     15  C   UNL     1      37.525 -23.079 -15.762  0.00  0.00    +0.004 C 
ENDBRANCH   8   9
ENDBRANCH   7   8
ENDBRANCH   1   7
BRANCH   4  16
ATOM     16  C   UNL     1      33.813 -19.604 -21.375  0.00  0.00    +0.047 C 
BRANCH  16  21
ATOM     17  S   UNL     1      34.978 -17.103 -21.283  0.00  0.00    -0.048 S 
ATOM     18  O   UNL     1      35.085 -19.745 -24.094  0.00  0.00    -0.274 OA
ATOM     19  O   UNL     1      35.115 -15.229 -23.122  0.00  0.00    -0.263 OA
ATOM     20  N   UNL     1      35.126 -17.450 -23.809  0.00  0.00    -0.246 N 
ATOM     21  C   UNL     1      35.036 -18.828 -21.859  0.00  0.00    +0.137 C 
ATOM     22  C   UNL     1      35.083 -18.757 -23.368  0.00  0.00    +0.239 C 
ATOM     23  C   UNL     1      35.087 -16.430 -22.894  0.00  0.00    +0.279 C 
ATOM     24  H   UNL     1      35.185 -17.253 -24.772  0.00  0.00    +0.158 HD
ENDBRANCH  16  21
ENDBRANCH   4  16
TORSDOF 5
ENDMDL
MODEL 4
REMARK VINA RESULT:     -10.0      1.505      2.469
REMARK  Name = 2750
REMARK  5 active torsions:
REMARK  status: ('A' for Active; 'I' for Inactive)
REMARK    1  A    between atoms: C_1  and  O_7
REMARK    2  A    between atoms: C_4  and  C_16
REMARK    3  A    between atoms: O_7  and  C_8
REMARK    4  A    between atoms: C_8  and  C_9
REMARK    5  A    between atoms: C_16  and  C_21
REMARK                            x       y       z     vdW  Elec       q    Type
REMARK                         _______ _______ _______ _____ _____    ______ ____
ROOT
ATOM      1  C   UNL     1      35.007 -21.734 -19.051  0.00  0.00    +0.139 C 
ATOM      2  C   UNL     1      36.003 -21.772 -18.067  0.00  0.00    +0.037 C 
ATOM      3  C   UNL     1      33.799 -22.407 -18.827  0.00  0.00    +0.037 C 
ATOM      4  C   UNL     1      34.589 -23.139 -16.664  0.00  0.00    -0.021 C 
ATOM      5  C   UNL     1      35.795 -22.472 -16.879  0.00  0.00    -0.001 C 
ATOM      6  C   UNL     1      33.591 -23.107 -17.639  0.00  0.00    -0.001 C 
ENDROOT
BRANCH   1   7
ATOM      7  O   UNL     1      35.209 -21.058 -20.201  0.00  0.00    -0.475 OA
BRANCH   7   8
ATOM      8  C   UNL     1      34.271 -20.079 -20.592  0.00  0.00    +0.205 C 
BRANCH   8   9
ATOM      9  C   UNL     1      35.010 -19.022 -21.434  0.00  0.00    +0.040 C 
ATOM     10  C   UNL     1      34.808 -19.342 -22.932  0.00  0.00    +0.004 C 
ATOM     11  C   UNL     1      34.429 -17.626 -21.112  0.00  0.00    +0.004 C 
ATOM     12  C   UNL     1      35.313 -18.240 -23.863  0.00  0.00    +0.000 C 
ATOM     13  C   UNL     1      34.935 -16.526 -22.046  0.00  0.00    +0.000 C 
ATOM     14  C   UNL     1      34.710 -16.885 -23.510  0.00  0.00    +0.000 C 
ATOM     15  C   UNL     1      36.506 -19.083 -21.064  0.00  0.00    +0.004 C 
ENDBRANCH   8   9
ENDBRANCH   7   8
ENDBRANCH   1   7
BRANCH   4  16
ATOM     16  C   UNL     1      34.366 -23.887 -15.393  0.00  0.00    +0.047 C 
BRANCH  16  21
ATOM     17  S   UNL     1      36.906 -24.902 -15.017  0.00  0.00    -0.048 S 
ATOM     18  O   UNL     1      34.310 -23.783 -12.389  0.00  0.00    -0.274 OA
ATOM     19  O   UNL     1      37.776 -26.696 -13.303  0.00  0.00    -0.263 OA
ATOM     20  N   UNL     1      36.029 -25.308 -12.653  0.00  0.00    -0.246 N 
ATOM     21  C   UNL     1      35.567 -23.806 -14.453  0.00  0.00    +0.137 C 
ATOM     22  C   UNL     1      35.211 -24.274 -13.060  0.00  0.00    +0.239 C 
ATOM     23  C   UNL     1      36.983 -25.790 -13.511  0.00  0.00    +0.279 C 
ATOM     24  H   UNL     1      35.926 -25.697 -11.754  0.00  0.00    +0.158 HD
ENDBRANCH  16  21
ENDBRANCH   4  16
TORSDOF 5
ENDMDL
MODEL 5
REMARK VINA RESULT:      -9.9      1.163      1.733
REMARK  Name = 2750
REMARK  5 active torsions:
REMARK  status: ('A' for Active; 'I' for Inactive)
REMARK    1  A    between atoms: C_1  and  O_7
REMARK    2  A    between atoms: C_4  and  C_16
REMARK    3  A    between atoms: O_7  and  C_8
REMARK    4  A    between atoms: C_8  and  C_9
REMARK    5  A    between atoms: C_16  and  C_21
REMARK                            x       y       z     vdW  Elec       q    Type
REMARK                         _______ _______ _______ _____ _____    ______ ____
ROOT
ATOM      1  C   UNL     1      34.954 -21.585 -19.331  0.00  0.00    +0.139 C 
ATOM      2  C   UNL     1      33.845 -22.274 -18.825  0.00  0.00    +0.037 C 
ATOM      3  C   UNL     1      36.133 -21.540 -18.577  0.00  0.00    +0.037 C 
ATOM      4  C   UNL     1      35.093 -22.858 -16.840  0.00  0.00    -0.021 C 
ATOM      5  C   UNL     1      33.914 -22.908 -17.585  0.00  0.00    -0.001 C 
ATOM      6  C   UNL     1      36.202 -22.173 -17.336  0.00  0.00    -0.001 C 
ENDROOT
BRANCH   1   7
ATOM      7  O   UNL     1      34.887 -20.971 -20.531  0.00  0.00    -0.475 OA
BRANCH   7   8
ATOM      8  C   UNL     1      34.112 -19.798 -20.656  0.00  0.00    +0.205 C 
BRANCH   8   9
ATOM      9  C   UNL     1      34.885 -18.811 -21.552  0.00  0.00    +0.040 C 
ATOM     10  C   UNL     1      34.672 -19.204 -23.031  0.00  0.00    +0.004 C 
ATOM     11  C   UNL     1      34.350 -17.383 -21.304  0.00  0.00    +0.004 C 
ATOM     12  C   UNL     1      35.211 -18.169 -24.018  0.00  0.00    +0.000 C 
ATOM     13  C   UNL     1      34.890 -16.350 -22.294  0.00  0.00    +0.000 C 
ATOM     14  C   UNL     1      34.654 -16.778 -23.738  0.00  0.00    +0.000 C 
ATOM     15  C   UNL     1      36.378 -18.902 -21.177  0.00  0.00    +0.004 C 
ENDBRANCH   8   9
ENDBRANCH   7   8
ENDBRANCH   1   7
BRANCH   4  16
ATOM     16  C   UNL     1      35.166 -23.537 -15.514  0.00  0.00    +0.047 C 
BRANCH  16  21
ATOM     17  S   UNL     1      36.237 -26.023 -14.973  0.00  0.00    -0.048 S 
ATOM     18  O   UNL     1      37.529 -22.533 -13.951  0.00  0.00    -0.274 OA
ATOM     19  O   UNL     1      37.250 -26.983 -12.745  0.00  0.00    -0.263 OA
ATOM     20  N   UNL     1      37.505 -24.715 -13.184  0.00  0.00    -0.246 N 
ATOM     21  C   UNL     1      36.498 -24.253 -15.301  0.00  0.00    +0.137 C 
ATOM     22  C   UNL     1      37.227 -23.713 -14.091  0.00  0.00    +0.239 C 
ATOM     23  C   UNL     1      37.086 -25.994 -13.444  0.00  0.00    +0.279 C 
ATOM     24  H   UNL     1      38.000 -24.512 -12.357  0.00  0.00    +0.158 HD
ENDBRANCH  16  21
ENDBRANCH   4  16
TORSDOF 5
ENDMDL
MODEL 6
REMARK VINA RESULT:      -9.9      3.528      4.330
REMARK  Name = 2750
REMARK  5 active torsions:
REMARK  status: ('A' for Active; 'I' for Inactive)
REMARK    1  A    between atoms: C_1  and  O_7
REMARK    2  A    between atoms: C_4  and  C_16
REMARK    3  A    between atoms: O_7  and  C_8
REMARK    4  A    between atoms: C_8  and  C_9
REMARK    5  A    between atoms: C_16  and  C_21
REMARK                            x       y       z     vdW  Elec       q    Type
REMARK                         _______ _______ _______ _____ _____    ______ ____
ROOT
ATOM      1  C   UNL     1      35.078 -20.519 -19.944  0.00  0.00    +0.139 C 
ATOM      2  C   UNL     1      35.895 -21.291 -19.108  0.00  0.00    +0.037 C 
ATOM      3  C   UNL     1      33.700 -20.769 -19.972  0.00  0.00    +0.037 C 
ATOM      4  C   UNL     1      33.970 -22.537 -18.349  0.00  0.00    -0.021 C 
ATOM      5  C   UNL     1      35.343 -22.296 -18.314  0.00  0.00    -0.001 C 
ATOM      6  C   UNL     1      33.148 -21.773 -19.178  0.00  0.00    -0.001 C 
ENDROOT
BRANCH   1   7
ATOM      7  O   UNL     1      35.613 -19.547 -20.713  0.00  0.00    -0.475 OA
BRANCH   7   8
ATOM      8  C   UNL     1      34.804 -18.455 -21.093  0.00  0.00    +0.205 C 
BRANCH   8   9
ATOM      9  C   UNL     1      35.195 -18.052 -22.528  0.00  0.00    +0.040 C 
ATOM     10  C   UNL     1      34.450 -18.967 -23.527  0.00  0.00    +0.004 C 
ATOM     11  C   UNL     1      34.792 -16.579 -22.764  0.00  0.00    +0.004 C 
ATOM     12  C   UNL     1      34.590 -18.519 -24.981  0.00  0.00    +0.000 C 
ATOM     13  C   UNL     1      34.932 -16.135 -24.220  0.00  0.00    +0.000 C 
ATOM     14  C   UNL     1      34.178 -17.063 -25.166  0.00  0.00    +0.000 C 
ATOM     15  C   UNL     1      36.720 -18.226 -22.670  0.00  0.00    +0.004 C 
ENDBRANCH   8   9
ENDBRANCH   7   8
ENDBRANCH   1   7
BRANCH   4  16
ATOM     16  C   UNL     1      33.380 -23.611 -17.499  0.00  0.00    +0.047 C 
BRANCH  16  21
ATOM     17  S   UNL     1      33.519 -24.038 -14.775  0.00  0.00    -0.048 S 
ATOM     18  O   UNL     1      30.575 -22.716 -16.893  0.00  0.00    -0.274 OA
ATOM     19  O   UNL     1      31.772 -25.128 -13.139  0.00  0.00    -0.263 OA
ATOM     20  N   UNL     1      30.974 -23.938 -14.970  0.00  0.00    -0.246 N 
ATOM     21  C   UNL     1      32.853 -23.077 -16.169  0.00  0.00    +0.137 C 
ATOM     22  C   UNL     1      31.349 -23.207 -16.078  0.00  0.00    +0.239 C 
ATOM     23  C   UNL     1      31.940 -24.461 -14.150  0.00  0.00    +0.279 C 
ATOM     24  H   UNL     1      30.021 -24.083 -14.770  0.00  0.00    +0.158 HD
ENDBRANCH  16  21
ENDBRANCH   4  16
TORSDOF 5
ENDMDL
MODEL 7
REMARK VINA RESULT:      -9.8      7.909     12.476
REMARK  Name = 2750
REMARK  5 active torsions:
REMARK  status: ('A' for Active; 'I' for Inactive)
REMARK    1  A    between atoms: C_1  and  O_7
REMARK    2  A    between atoms: C_4  and  C_16
REMARK    3  A    between atoms: O_7  and  C_8
REMARK    4  A    between atoms: C_8  and  C_9
REMARK    5  A    between atoms: C_16  and  C_21
REMARK                            x       y       z     vdW  Elec       q    Type
REMARK                         _______ _______ _______ _____ _____    ______ ____
ROOT
ATOM      1  C   UNL     1      33.702 -15.501 -21.818  0.00  0.00    +0.139 C 
ATOM      2  C   UNL     1      32.682 -14.656 -21.364  0.00  0.00    +0.037 C 
ATOM      3  C   UNL     1      34.446 -15.129 -22.944  0.00  0.00    +0.037 C 
ATOM      4  C   UNL     1      33.158 -13.096 -23.146  0.00  0.00    -0.021 C 
ATOM      5  C   UNL     1      32.411 -13.458 -22.026  0.00  0.00    -0.001 C 
ATOM      6  C   UNL     1      34.176 -13.932 -23.606  0.00  0.00    -0.001 C 
ENDROOT
BRANCH   1   7
ATOM      7  O   UNL     1      33.963 -16.661 -21.178  0.00  0.00    -0.475 OA
BRANCH   7   8
ATOM      8  C   UNL     1      35.154 -17.354 -21.480  0.00  0.00    +0.205 C 
BRANCH   8   9
ATOM      9  C   UNL     1      34.844 -18.863 -21.454  0.00  0.00    +0.040 C 
ATOM     10  C   UNL     1      35.933 -19.585 -20.628  0.00  0.00    +0.004 C 
ATOM     11  C   UNL     1      33.460 -19.081 -20.801  0.00  0.00    +0.004 C 
ATOM     12  C   UNL     1      35.611 -21.052 -20.349  0.00  0.00    +0.000 C 
ATOM     13  C   UNL     1      33.142 -20.550 -20.523  0.00  0.00    +0.000 C 
ATOM     14  C   UNL     1      34.241 -21.217 -19.703  0.00  0.00    +0.000 C 
ATOM     15  C   UNL     1      34.842 -19.372 -22.909  0.00  0.00    +0.004 C 
ENDBRANCH   8   9
ENDBRANCH   7   8
ENDBRANCH   1   7
BRANCH   4  16
ATOM     16  C   UNL     1      32.869 -11.815 -23.853  0.00  0.00    +0.047 C 
BRANCH  16  21
ATOM     17  S   UNL     1      31.340  -9.896 -22.587  0.00  0.00    -0.048 S 
ATOM     18  O   UNL     1      34.932  -9.632 -23.974  0.00  0.00    -0.274 OA
ATOM     19  O   UNL     1      30.997  -7.353 -23.161  0.00  0.00    -0.263 OA
ATOM     20  N   UNL     1      33.057  -8.321 -23.632  0.00  0.00    -0.246 N 
ATOM     21  C   UNL     1      32.981 -10.604 -22.930  0.00  0.00    +0.137 C 
ATOM     22  C   UNL     1      33.782  -9.493 -23.570  0.00  0.00    +0.239 C 
ATOM     23  C   UNL     1      31.766  -8.303 -23.173  0.00  0.00    +0.279 C 
ATOM     24  H   UNL     1      33.464  -7.505 -24.004  0.00  0.00    +0.158 HD
ENDBRANCH  16  21
ENDBRANCH   4  16
TORSDOF 5
ENDMDL
MODEL 8
REMARK VINA RESULT:      -9.7      2.440      3.255
REMARK  Name = 2750
REMARK  5 active torsions:
REMARK  status: ('A' for Active; 'I' for Inactive)
REMARK    1  A    between atoms: C_1  and  O_7
REMARK    2  A    between atoms: C_4  and  C_16
REMARK    3  A    between atoms: O_7  and  C_8
REMARK    4  A    between atoms: C_8  and  C_9
REMARK    5  A    between atoms: C_16  and  C_21
REMARK                            x       y       z     vdW  Elec       q    Type
REMARK                         _______ _______ _______ _____ _____    ______ ____
ROOT
ATOM      1  C   UNL     1      34.938 -21.000 -19.848  0.00  0.00    +0.139 C 
ATOM      2  C   UNL     1      33.638 -21.485 -19.658  0.00  0.00    +0.037 C 
ATOM      3  C   UNL     1      35.950 -21.397 -18.965  0.00  0.00    +0.037 C 
ATOM      4  C   UNL     1      34.369 -22.743 -17.730  0.00  0.00    -0.021 C 
ATOM      5  C   UNL     1      33.355 -22.352 -18.604  0.00  0.00    -0.001 C 
ATOM      6  C   UNL     1      35.667 -22.265 -17.911  0.00  0.00    -0.001 C 
ENDROOT
BRANCH   1   7
ATOM      7  O   UNL     1      35.212 -20.159 -20.867  0.00  0.00    -0.475 OA
BRANCH   7   8
ATOM      8  C   UNL     1      34.285 -19.143 -21.182  0.00  0.00    +0.205 C 
BRANCH   8   9
ATOM      9  C   UNL     1      34.910 -18.252 -22.273  0.00  0.00    +0.040 C 
ATOM     10  C   UNL     1      34.439 -18.749 -23.658  0.00  0.00    +0.004 C 
ATOM     11  C   UNL     1      34.450 -16.792 -22.054  0.00  0.00    +0.004 C 
ATOM     12  C   UNL     1      34.819 -17.810 -24.802  0.00  0.00    +0.000 C 
ATOM     13  C   UNL     1      34.831 -15.856 -23.201  0.00  0.00    +0.000 C 
ATOM     14  C   UNL     1      34.342 -16.385 -24.545  0.00  0.00    +0.000 C 
ATOM     15  C   UNL     1      36.443 -18.360 -22.151  0.00  0.00    +0.004 C 
ENDBRANCH   8   9
ENDBRANCH   7   8
ENDBRANCH   1   7
BRANCH   4  16
ATOM     16  C   UNL     1      34.066 -23.672 -16.603  0.00  0.00    +0.047 C 
BRANCH  16  21
ATOM     17  S   UNL     1      35.553 -23.834 -14.283  0.00  0.00    -0.048 S 
ATOM     18  O   UNL     1      31.893 -22.706 -14.764  0.00  0.00    -0.274 OA
ATOM     19  O   UNL     1      34.893 -24.751 -11.909  0.00  0.00    -0.263 OA
ATOM     20  N   UNL     1      33.243 -23.739 -13.196  0.00  0.00    -0.246 N 
ATOM     21  C   UNL     1      34.244 -23.008 -15.239  0.00  0.00    +0.137 C 
ATOM     22  C   UNL     1      32.989 -23.121 -14.403  0.00  0.00    +0.239 C 
ATOM     23  C   UNL     1      34.510 -24.186 -12.923  0.00  0.00    +0.279 C 
ATOM     24  H   UNL     1      32.521 -23.858 -12.538  0.00  0.00    +0.158 HD
ENDBRANCH  16  21
ENDBRANCH   4  16
TORSDOF 5
ENDMDL
MODEL 9
REMARK VINA RESULT:      -9.7      8.326     12.161
REMARK  Name = 2750
REMARK  5 active torsions:
REMARK  status: ('A' for Active; 'I' for Inactive)
REMARK    1  A    between atoms: C_1  and  O_7
REMARK    2  A    between atoms: C_4  and  C_16
REMARK    3  A    between atoms: O_7  and  C_8
REMARK    4  A    between atoms: C_8  and  C_9
REMARK    5  A    between atoms: C_16  and  C_21
REMARK                            x       y       z     vdW  Elec       q    Type
REMARK                         _______ _______ _______ _____ _____    ______ ____
ROOT
ATOM      1  C   UNL     1      31.891 -10.621 -21.853  0.00  0.00    +0.139 C 
ATOM      2  C   UNL     1      32.445 -11.259 -22.970  0.00  0.00    +0.037 C 
ATOM      3  C   UNL     1      31.613 -11.373 -20.704  0.00  0.00    +0.037 C 
ATOM      4  C   UNL     1      32.437 -13.367 -21.790  0.00  0.00    -0.021 C 
ATOM      5  C   UNL     1      32.717 -12.626 -22.938  0.00  0.00    -0.001 C 
ATOM      6  C   UNL     1      31.885 -12.740 -20.672  0.00  0.00    -0.001 C 
ENDROOT
BRANCH   1   7
ATOM      7  O   UNL     1      31.627  -9.298 -21.884  0.00  0.00    -0.475 OA
BRANCH   7   8
ATOM      8  C   UNL     1      31.288  -8.697 -23.115  0.00  0.00    +0.205 C 
BRANCH   8   9
ATOM      9  C   UNL     1      32.242  -7.509 -23.343  0.00  0.00    +0.040 C 
ATOM     10  C   UNL     1      33.627  -8.052 -23.763  0.00  0.00    +0.004 C 
ATOM     11  C   UNL     1      31.667  -6.611 -24.462  0.00  0.00    +0.004 C 
ATOM     12  C   UNL     1      34.591  -6.960 -24.227  0.00  0.00    +0.000 C 
ATOM     13  C   UNL     1      32.635  -5.522 -24.925  0.00  0.00    +0.000 C 
ATOM     14  C   UNL     1      33.984  -6.104 -25.332  0.00  0.00    +0.000 C 
ATOM     15  C   UNL     1      32.346  -6.725 -22.020  0.00  0.00    +0.004 C 
ENDBRANCH   8   9
ENDBRANCH   7   8
ENDBRANCH   1   7
BRANCH   4  16
ATOM     16  C   UNL     1      32.729 -14.830 -21.756  0.00  0.00    +0.047 C 
BRANCH  16  21
ATOM     17  S   UNL     1      34.279 -15.979 -23.730  0.00  0.00    -0.048 S 
ATOM     18  O   UNL     1      34.870 -15.865 -19.918  0.00  0.00    -0.274 OA
ATOM     19  O   UNL     1      35.496 -18.309 -23.787  0.00  0.00    -0.263 OA
ATOM     20  N   UNL     1      35.291 -17.223 -21.742  0.00  0.00    -0.246 N 
ATOM     21  C   UNL     1      34.179 -15.141 -22.118  0.00  0.00    +0.137 C 
ATOM     22  C   UNL     1      34.806 -16.090 -21.122  0.00  0.00    +0.239 C 
ATOM     23  C   UNL     1      35.129 -17.371 -23.095  0.00  0.00    +0.279 C 
ATOM     24  H   UNL     1      35.748 -17.919 -21.217  0.00  0.00    +0.158 HD
ENDBRANCH  16  21
ENDBRANCH   4  16
TORSDOF 5
ENDMDL
