MODEL 1
REMARK VINA RESULT:      -2.7      0.000      0.000
REMARK  Name = 6380
REMARK  0 active torsions:
REMARK  status: ('A' for Active; 'I' for Inactive)
REMARK                            x       y       z     vdW  Elec       q    Type
REMARK                         _______ _______ _______ _____ _____    ______ ____
ROOT
ATOM      1  N   UNL     1      34.851 -18.740 -21.604  0.00  0.00    +0.384 N 
ATOM      2  C   UNL     1      34.469 -17.289 -21.353  0.00  0.00    -0.096 C 
ATOM      3  C   UNL     1      36.245 -19.001 -21.052  0.00  0.00    -0.096 C 
ATOM      4  C   UNL     1      34.837 -19.017 -23.100  0.00  0.00    -0.096 C 
ATOM      5  C   UNL     1      33.852 -19.654 -20.910  0.00  0.00    -0.096 C 
ENDROOT
TORSDOF 0
ENDMDL
MODEL 2
REMARK VINA RESULT:      -2.7      0.032      1.930
REMARK  Name = 6380
REMARK  0 active torsions:
REMARK  status: ('A' for Active; 'I' for Inactive)
REMARK                            x       y       z     vdW  Elec       q    Type
REMARK                         _______ _______ _______ _____ _____    ______ ____
ROOT
ATOM      1  N   UNL     1      34.842 -18.735 -21.594  0.00  0.00    +0.384 N 
ATOM      2  C   UNL     1      34.815 -19.031 -23.086  0.00  0.00    -0.096 C 
ATOM      3  C   UNL     1      34.436 -17.288 -21.356  0.00  0.00    -0.096 C 
ATOM      4  C   UNL     1      36.248 -18.962 -21.056  0.00  0.00    -0.096 C 
ATOM      5  C   UNL     1      33.870 -19.659 -20.876  0.00  0.00    -0.096 C 
ENDROOT
TORSDOF 0
ENDMDL
MODEL 3
REMARK VINA RESULT:      -2.7      0.028      1.918
REMARK  Name = 6380
REMARK  0 active torsions:
REMARK  status: ('A' for Active; 'I' for Inactive)
REMARK                            x       y       z     vdW  Elec       q    Type
REMARK                         _______ _______ _______ _____ _____    ______ ____
ROOT
ATOM      1  N   UNL     1      34.846 -18.732 -21.588  0.00  0.00    +0.384 N 
ATOM      2  C   UNL     1      36.248 -18.972 -21.049  0.00  0.00    -0.096 C 
ATOM      3  C   UNL     1      33.863 -19.648 -20.873  0.00  0.00    -0.096 C 
ATOM      4  C   UNL     1      34.819 -19.027 -23.081  0.00  0.00    -0.096 C 
ATOM      5  C   UNL     1      34.452 -17.282 -21.350  0.00  0.00    -0.096 C 
ENDROOT
TORSDOF 0
ENDMDL
MODEL 4
REMARK VINA RESULT:      -2.7      8.719      9.323
REMARK  Name = 6380
REMARK  0 active torsions:
REMARK  status: ('A' for Active; 'I' for Inactive)
REMARK                            x       y       z     vdW  Elec       q    Type
REMARK                         _______ _______ _______ _____ _____    ______ ____
ROOT
ATOM      1  N   UNL     1      42.069 -15.266 -17.183  0.00  0.00    +0.384 N 
ATOM      2  C   UNL     1      43.399 -14.601 -16.857  0.00  0.00    -0.096 C 
ATOM      3  C   UNL     1      41.344 -15.609 -15.890  0.00  0.00    -0.096 C 
ATOM      4  C   UNL     1      42.320 -16.539 -17.977  0.00  0.00    -0.096 C 
ATOM      5  C   UNL     1      41.214 -14.314 -18.007  0.00  0.00    -0.096 C 
ENDROOT
TORSDOF 0
ENDMDL
MODEL 5
REMARK VINA RESULT:      -2.7      8.716      9.378
REMARK  Name = 6380
REMARK  0 active torsions:
REMARK  status: ('A' for Active; 'I' for Inactive)
REMARK                            x       y       z     vdW  Elec       q    Type
REMARK                         _______ _______ _______ _____ _____    ______ ____
ROOT
ATOM      1  N   UNL     1      42.102 -15.317 -17.215  0.00  0.00    +0.384 N 
ATOM      2  C   UNL     1      41.223 -14.342 -17.985  0.00  0.00    -0.096 C 
ATOM      3  C   UNL     1      42.364 -16.548 -18.069  0.00  0.00    -0.096 C 
ATOM      4  C   UNL     1      41.395 -15.731 -15.932  0.00  0.00    -0.096 C 
ATOM      5  C   UNL     1      43.424 -14.646 -16.872  0.00  0.00    -0.096 C 
ENDROOT
TORSDOF 0
ENDMDL
MODEL 6
REMARK VINA RESULT:      -2.7      0.111      2.223
REMARK  Name = 6380
REMARK  0 active torsions:
REMARK  status: ('A' for Active; 'I' for Inactive)
REMARK                            x       y       z     vdW  Elec       q    Type
REMARK                         _______ _______ _______ _____ _____    ______ ____
ROOT
ATOM      1  N   UNL     1      34.782 -18.778 -21.597  0.00  0.00    +0.384 N 
ATOM      2  C   UNL     1      33.852 -19.721 -20.847  0.00  0.00    -0.096 C 
ATOM      3  C   UNL     1      34.750 -19.109 -23.082  0.00  0.00    -0.096 C 
ATOM      4  C   UNL     1      36.201 -18.942 -21.071  0.00  0.00    -0.096 C 
ATOM      5  C   UNL     1      34.326 -17.342 -21.387  0.00  0.00    -0.096 C 
ENDROOT
TORSDOF 0
ENDMDL
MODEL 7
REMARK VINA RESULT:      -2.7      8.857      9.593
REMARK  Name = 6380
REMARK  0 active torsions:
REMARK  status: ('A' for Active; 'I' for Inactive)
REMARK                            x       y       z     vdW  Elec       q    Type
REMARK                         _______ _______ _______ _____ _____    ______ ____
ROOT
ATOM      1  N   UNL     1      42.011 -14.695 -16.726  0.00  0.00    +0.384 N 
ATOM      2  C   UNL     1      41.628 -13.645 -15.693  0.00  0.00    -0.096 C 
ATOM      3  C   UNL     1      43.514 -14.650 -16.962  0.00  0.00    -0.096 C 
ATOM      4  C   UNL     1      41.284 -14.410 -18.032  0.00  0.00    -0.096 C 
ATOM      5  C   UNL     1      41.619 -16.074 -16.217  0.00  0.00    -0.096 C 
ENDROOT
TORSDOF 0
ENDMDL
MODEL 8
REMARK VINA RESULT:      -2.7      8.878      9.674
REMARK  Name = 6380
REMARK  0 active torsions:
REMARK  status: ('A' for Active; 'I' for Inactive)
REMARK                            x       y       z     vdW  Elec       q    Type
REMARK                         _______ _______ _______ _____ _____    ______ ____
ROOT
ATOM      1  N   UNL     1      41.876 -14.709 -16.632  0.00  0.00    +0.384 N 
ATOM      2  C   UNL     1      41.177 -14.272 -17.911  0.00  0.00    -0.096 C 
ATOM      3  C   UNL     1      41.088 -14.213 -15.428  0.00  0.00    -0.096 C 
ATOM      4  C   UNL     1      43.280 -14.123 -16.596  0.00  0.00    -0.096 C 
ATOM      5  C   UNL     1      41.959 -16.228 -16.593  0.00  0.00    -0.096 C 
ENDROOT
TORSDOF 0
ENDMDL
MODEL 9
REMARK VINA RESULT:      -2.7      9.271     10.261
REMARK  Name = 6380
REMARK  0 active torsions:
REMARK  status: ('A' for Active; 'I' for Inactive)
REMARK                            x       y       z     vdW  Elec       q    Type
REMARK                         _______ _______ _______ _____ _____    ______ ____
ROOT
ATOM      1  N   UNL     1      42.168 -13.627 -17.047  0.00  0.00    +0.384 N 
ATOM      2  C   UNL     1      41.560 -13.695 -15.654  0.00  0.00    -0.096 C 
ATOM      3  C   UNL     1      41.232 -14.296 -18.043  0.00  0.00    -0.096 C 
ATOM      4  C   UNL     1      43.510 -14.346 -17.051  0.00  0.00    -0.096 C 
ATOM      5  C   UNL     1      42.371 -12.172 -17.442  0.00  0.00    -0.096 C 
ENDROOT
TORSDOF 0
ENDMDL
