MODEL 1
REMARK VINA RESULT:      -7.9      0.000      0.000
REMARK  Name = 46937048
REMARK  4 active torsions:
REMARK  status: ('A' for Active; 'I' for Inactive)
REMARK    1  A    between atoms: C_2  and  C_20
REMARK    2  A    between atoms: C_8  and  C_12
REMARK    3  A    between atoms: C_17  and  O_18
REMARK    4  A    between atoms: C_20  and  O_21
REMARK                            x       y       z     vdW  Elec       q    Type
REMARK                         _______ _______ _______ _____ _____    ______ ____
ROOT
ATOM      1  O   UNL     1      35.090 -24.044 -14.340  0.00  0.00    -0.352 OA
ATOM      2  C   UNL     1      36.521 -24.993 -12.546  0.00  0.00    +0.055 C 
ATOM      3  C   UNL     1      37.581 -23.894 -12.816  0.00  0.00    +0.007 C 
ATOM      4  C   UNL     1      37.499 -23.522 -14.319  0.00  0.00    +0.032 C 
ATOM      5  C   UNL     1      37.925 -24.747 -15.186  0.00  0.00    +0.003 C 
ATOM      6  C   UNL     1      36.930 -26.254 -13.357  0.00  0.00    +0.005 C 
ATOM      7  C   UNL     1      37.129 -26.019 -14.857  0.00  0.00    +0.000 C 
ATOM      8  C   UNL     1      36.055 -23.030 -14.636  0.00  0.00    +0.137 C 
ATOM      9  C   UNL     1      35.124 -24.490 -12.985  0.00  0.00    +0.145 C 
ATOM     10  C   UNL     1      37.468 -22.653 -11.917  0.00  0.00    +0.000 C 
ATOM     11  C   UNL     1      39.434 -25.018 -15.080  0.00  0.00    +0.000 C 
ENDROOT
BRANCH   8  12
ATOM     12  C   UNL     1      35.878 -22.640 -16.066  0.00  0.00    +0.005 C 
ATOM     13  C   UNL     1      34.702 -22.969 -16.739  0.00  0.00    +0.001 C 
ATOM     14  C   UNL     1      36.890 -21.945 -16.729  0.00  0.00    +0.001 C 
ATOM     15  C   UNL     1      34.537 -22.605 -18.076  0.00  0.00    +0.036 C 
ATOM     16  C   UNL     1      36.725 -21.580 -18.066  0.00  0.00    +0.036 C 
ATOM     17  C   UNL     1      35.549 -21.910 -18.738  0.00  0.00    +0.134 C 
BRANCH  17  18
ATOM     18  O   UNL     1      35.389 -21.554 -20.042  0.00  0.00    -0.506 OA
ATOM     19  H   UNL     1      35.022 -22.163 -20.653  0.00  0.00    +0.292 HD
ENDBRANCH  17  18
ENDBRANCH   8  12
BRANCH   2  20
ATOM     20  C   UNL     1      36.462 -25.382 -11.058  0.00  0.00    +0.139 C 
BRANCH  20  21
ATOM     21  O   UNL     1      35.190 -25.024 -10.562  0.00  0.00    -0.382 OA
ATOM     22  H   UNL     1      34.521 -25.178 -11.246  0.00  0.00    +0.210 HD
ENDBRANCH  20  21
ENDBRANCH   2  20
TORSDOF 4
ENDMDL
MODEL 2
REMARK VINA RESULT:      -7.1     14.496     18.337
REMARK  Name = 46937048
REMARK  4 active torsions:
REMARK  status: ('A' for Active; 'I' for Inactive)
REMARK    1  A    between atoms: C_2  and  C_20
REMARK    2  A    between atoms: C_8  and  C_12
REMARK    3  A    between atoms: C_17  and  O_18
REMARK    4  A    between atoms: C_20  and  O_21
REMARK                            x       y       z     vdW  Elec       q    Type
REMARK                         _______ _______ _______ _____ _____    ______ ____
ROOT
ATOM      1  O   UNL     1      31.220  -8.524 -23.964  0.00  0.00    -0.352 OA
ATOM      2  C   UNL     1      31.918  -6.156 -23.698  0.00  0.00    +0.055 C 
ATOM      3  C   UNL     1      33.380  -6.618 -23.464  0.00  0.00    +0.007 C 
ATOM      4  C   UNL     1      33.329  -8.016 -22.794  0.00  0.00    +0.032 C 
ATOM      5  C   UNL     1      32.689  -7.894 -21.376  0.00  0.00    +0.003 C 
ATOM      6  C   UNL     1      31.250  -5.978 -22.306  0.00  0.00    +0.005 C 
ATOM      7  C   UNL     1      31.314  -7.208 -21.398  0.00  0.00    +0.000 C 
ATOM      8  C   UNL     1      32.552  -8.991 -23.727  0.00  0.00    +0.137 C 
ATOM      9  C   UNL     1      31.163  -7.218 -24.534  0.00  0.00    +0.145 C 
ATOM     10  C   UNL     1      34.265  -6.622 -24.720  0.00  0.00    +0.000 C 
ATOM     11  C   UNL     1      33.627  -7.180 -20.391  0.00  0.00    +0.000 C 
ENDROOT
BRANCH   8  12
ATOM     12  C   UNL     1      32.455 -10.372 -23.168  0.00  0.00    +0.005 C 
ATOM     13  C   UNL     1      31.518 -10.659 -22.175  0.00  0.00    +0.001 C 
ATOM     14  C   UNL     1      33.301 -11.375 -23.639  0.00  0.00    +0.001 C 
ATOM     15  C   UNL     1      31.428 -11.949 -21.653  0.00  0.00    +0.036 C 
ATOM     16  C   UNL     1      33.211 -12.666 -23.116  0.00  0.00    +0.036 C 
ATOM     17  C   UNL     1      32.275 -12.953 -22.124  0.00  0.00    +0.134 C 
BRANCH  17  18
ATOM     18  O   UNL     1      32.187 -14.212 -21.615  0.00  0.00    -0.506 OA
ATOM     19  H   UNL     1      31.504 -14.426 -21.009  0.00  0.00    +0.292 HD
ENDBRANCH  17  18
ENDBRANCH   8  12
BRANCH   2  20
ATOM     20  C   UNL     1      31.853  -4.807 -24.435  0.00  0.00    +0.139 C 
BRANCH  20  21
ATOM     21  O   UNL     1      30.527  -4.327 -24.353  0.00  0.00    -0.382 OA
ATOM     22  H   UNL     1      29.974  -4.794 -24.998  0.00  0.00    +0.210 HD
ENDBRANCH  20  21
ENDBRANCH   2  20
TORSDOF 4
ENDMDL
MODEL 3
REMARK VINA RESULT:      -7.1      2.506      4.369
REMARK  Name = 46937048
REMARK  4 active torsions:
REMARK  status: ('A' for Active; 'I' for Inactive)
REMARK    1  A    between atoms: C_2  and  C_20
REMARK    2  A    between atoms: C_8  and  C_12
REMARK    3  A    between atoms: C_17  and  O_18
REMARK    4  A    between atoms: C_20  and  O_21
REMARK                            x       y       z     vdW  Elec       q    Type
REMARK                         _______ _______ _______ _____ _____    ______ ____
ROOT
ATOM      1  O   UNL     1      35.877 -23.523 -15.416  0.00  0.00    -0.352 OA
ATOM      2  C   UNL     1      37.822 -24.559 -14.271  0.00  0.00    +0.055 C 
ATOM      3  C   UNL     1      36.929 -25.753 -13.843  0.00  0.00    +0.007 C 
ATOM      4  C   UNL     1      35.483 -25.219 -13.671  0.00  0.00    +0.032 C 
ATOM      5  C   UNL     1      35.436 -24.206 -12.485  0.00  0.00    +0.003 C 
ATOM      6  C   UNL     1      37.842 -23.540 -13.098  0.00  0.00    +0.005 C 
ATOM      7  C   UNL     1      36.464 -23.071 -12.626  0.00  0.00    +0.000 C 
ATOM      8  C   UNL     1      35.015 -24.594 -15.019  0.00  0.00    +0.137 C 
ATOM      9  C   UNL     1      37.245 -23.907 -15.550  0.00  0.00    +0.145 C 
ATOM     10  C   UNL     1      36.978 -26.965 -14.785  0.00  0.00    +0.000 C 
ATOM     11  C   UNL     1      35.604 -24.912 -11.131  0.00  0.00    +0.000 C 
ENDROOT
BRANCH   8  12
ATOM     12  C   UNL     1      33.624 -24.055 -14.954  0.00  0.00    +0.005 C 
ATOM     13  C   UNL     1      33.101 -23.340 -16.031  0.00  0.00    +0.001 C 
ATOM     14  C   UNL     1      32.847 -24.270 -13.816  0.00  0.00    +0.001 C 
ATOM     15  C   UNL     1      31.802 -22.838 -15.970  0.00  0.00    +0.036 C 
ATOM     16  C   UNL     1      31.546 -23.767 -13.755  0.00  0.00    +0.036 C 
ATOM     17  C   UNL     1      31.025 -23.051 -14.831  0.00  0.00    +0.134 C 
BRANCH  17  18
ATOM     18  O   UNL     1      29.756 -22.561 -14.771  0.00  0.00    -0.506 OA
ATOM     19  H   UNL     1      29.099 -23.020 -14.286  0.00  0.00    +0.292 HD
ENDBRANCH  17  18
ENDBRANCH   8  12
BRANCH   2  20
ATOM     20  C   UNL     1      39.271 -24.996 -14.547  0.00  0.00    +0.139 C 
BRANCH  20  21
ATOM     21  O   UNL     1      40.062 -24.614 -13.442  0.00  0.00    -0.382 OA
ATOM     22  H   UNL     1      40.881 -25.133 -13.435  0.00  0.00    +0.210 HD
ENDBRANCH  20  21
ENDBRANCH   2  20
TORSDOF 4
ENDMDL
MODEL 4
REMARK VINA RESULT:      -6.9     16.215     19.371
REMARK  Name = 46937048
REMARK  4 active torsions:
REMARK  status: ('A' for Active; 'I' for Inactive)
REMARK    1  A    between atoms: C_2  and  C_20
REMARK    2  A    between atoms: C_8  and  C_12
REMARK    3  A    between atoms: C_17  and  O_18
REMARK    4  A    between atoms: C_20  and  O_21
REMARK                            x       y       z     vdW  Elec       q    Type
REMARK                         _______ _______ _______ _____ _____    ______ ____
ROOT
ATOM      1  O   UNL     1      30.659  -7.702 -23.445  0.00  0.00    -0.352 OA
ATOM      2  C   UNL     1      32.008  -9.553 -22.486  0.00  0.00    +0.055 C 
ATOM      3  C   UNL     1      32.743  -8.538 -21.572  0.00  0.00    +0.007 C 
ATOM      4  C   UNL     1      32.789  -7.181 -22.319  0.00  0.00    +0.032 C 
ATOM      5  C   UNL     1      33.672  -7.317 -23.599  0.00  0.00    +0.003 C 
ATOM      6  C   UNL     1      32.876  -9.756 -23.759  0.00  0.00    +0.005 C 
ATOM      7  C   UNL     1      33.227  -8.471 -24.512  0.00  0.00    +0.000 C 
ATOM      8  C   UNL     1      31.331  -6.732 -22.636  0.00  0.00    +0.137 C 
ATOM      9  C   UNL     1      30.611  -9.003 -22.860  0.00  0.00    +0.145 C 
ATOM     10  C   UNL     1      32.148  -8.391 -20.163  0.00  0.00    +0.000 C 
ATOM     11  C   UNL     1      35.160  -7.458 -23.247  0.00  0.00    +0.000 C 
ENDROOT
BRANCH   8  12
ATOM     12  C   UNL     1      31.272  -5.425 -23.353  0.00  0.00    +0.005 C 
ATOM     13  C   UNL     1      31.202  -5.395 -24.746  0.00  0.00    +0.001 C 
ATOM     14  C   UNL     1      31.284  -4.232 -22.630  0.00  0.00    +0.001 C 
ATOM     15  C   UNL     1      31.146  -4.173 -25.416  0.00  0.00    +0.036 C 
ATOM     16  C   UNL     1      31.228  -3.009 -23.301  0.00  0.00    +0.036 C 
ATOM     17  C   UNL     1      31.160  -2.980 -24.693  0.00  0.00    +0.134 C 
BRANCH  17  18
ATOM     18  O   UNL     1      31.105  -1.787 -25.346  0.00  0.00    -0.506 OA
ATOM     19  H   UNL     1      31.564  -1.044 -25.005  0.00  0.00    +0.292 HD
ENDBRANCH  17  18
ENDBRANCH   8  12
BRANCH   2  20
ATOM     20  C   UNL     1      31.836 -10.922 -21.804  0.00  0.00    +0.139 C 
BRANCH  20  21
ATOM     21  O   UNL     1      30.526 -11.379 -22.064  0.00  0.00    -0.382 OA
ATOM     22  H   UNL     1      30.415 -12.270 -21.699  0.00  0.00    +0.210 HD
ENDBRANCH  20  21
ENDBRANCH   2  20
TORSDOF 4
ENDMDL
MODEL 5
REMARK VINA RESULT:      -6.2     13.598     17.412
REMARK  Name = 46937048
REMARK  4 active torsions:
REMARK  status: ('A' for Active; 'I' for Inactive)
REMARK    1  A    between atoms: C_2  and  C_20
REMARK    2  A    between atoms: C_8  and  C_12
REMARK    3  A    between atoms: C_17  and  O_18
REMARK    4  A    between atoms: C_20  and  O_21
REMARK                            x       y       z     vdW  Elec       q    Type
REMARK                         _______ _______ _______ _____ _____    ______ ____
ROOT
ATOM      1  O   UNL     1      32.067  -8.636 -21.258  0.00  0.00    -0.352 OA
ATOM      2  C   UNL     1      32.439  -6.897 -22.990  0.00  0.00    +0.055 C 
ATOM      3  C   UNL     1      31.883  -7.860 -24.071  0.00  0.00    +0.007 C 
ATOM      4  C   UNL     1      32.215  -9.307 -23.626  0.00  0.00    +0.032 C 
ATOM      5  C   UNL     1      33.761  -9.515 -23.626  0.00  0.00    +0.003 C 
ATOM      6  C   UNL     1      33.987  -7.035 -22.985  0.00  0.00    +0.005 C 
ATOM      7  C   UNL     1      34.506  -8.462 -22.790  0.00  0.00    +0.000 C 
ATOM      8  C   UNL     1      31.571  -9.562 -22.230  0.00  0.00    +0.137 C 
ATOM      9  C   UNL     1      31.853  -7.270 -21.607  0.00  0.00    +0.145 C 
ATOM     10  C   UNL     1      30.387  -7.689 -24.380  0.00  0.00    +0.000 C 
ATOM     11  C   UNL     1      34.325  -9.559 -25.055  0.00  0.00    +0.000 C 
ENDROOT
BRANCH   8  12
ATOM     12  C   UNL     1      31.831 -10.940 -21.717  0.00  0.00    +0.005 C 
ATOM     13  C   UNL     1      32.207 -11.954 -22.598  0.00  0.00    +0.001 C 
ATOM     14  C   UNL     1      31.700 -11.213 -20.355  0.00  0.00    +0.001 C 
ATOM     15  C   UNL     1      32.451 -13.241 -22.118  0.00  0.00    +0.036 C 
ATOM     16  C   UNL     1      31.944 -12.501 -19.875  0.00  0.00    +0.036 C 
ATOM     17  C   UNL     1      32.319 -13.514 -20.757  0.00  0.00    +0.134 C 
BRANCH  17  18
ATOM     18  O   UNL     1      32.557 -14.769 -20.288  0.00  0.00    -0.506 OA
ATOM     19  H   UNL     1      32.430 -14.962 -19.380  0.00  0.00    +0.292 HD
ENDBRANCH  17  18
ENDBRANCH   8  12
BRANCH   2  20
ATOM     20  C   UNL     1      32.094  -5.429 -23.295  0.00  0.00    +0.139 C 
BRANCH  20  21
ATOM     21  O   UNL     1      31.569  -4.849 -22.120  0.00  0.00    -0.382 OA
ATOM     22  H   UNL     1      30.807  -5.365 -21.817  0.00  0.00    +0.210 HD
ENDBRANCH  20  21
ENDBRANCH   2  20
TORSDOF 4
ENDMDL
MODEL 6
REMARK VINA RESULT:      -6.2      2.516      4.037
REMARK  Name = 46937048
REMARK  4 active torsions:
REMARK  status: ('A' for Active; 'I' for Inactive)
REMARK    1  A    between atoms: C_2  and  C_20
REMARK    2  A    between atoms: C_8  and  C_12
REMARK    3  A    between atoms: C_17  and  O_18
REMARK    4  A    between atoms: C_20  and  O_21
REMARK                            x       y       z     vdW  Elec       q    Type
REMARK                         _______ _______ _______ _____ _____    ______ ____
ROOT
ATOM      1  O   UNL     1      36.060 -25.550 -15.559  0.00  0.00    -0.352 OA
ATOM      2  C   UNL     1      38.325 -25.554 -14.544  0.00  0.00    +0.055 C 
ATOM      3  C   UNL     1      37.701 -25.240 -13.159  0.00  0.00    +0.007 C 
ATOM      4  C   UNL     1      36.414 -24.410 -13.402  0.00  0.00    +0.032 C 
ATOM      5  C   UNL     1      36.790 -23.029 -14.023  0.00  0.00    +0.003 C 
ATOM      6  C   UNL     1      38.759 -24.205 -15.184  0.00  0.00    +0.005 C 
ATOM      7  C   UNL     1      37.649 -23.157 -15.291  0.00  0.00    +0.000 C 
ATOM      8  C   UNL     1      35.448 -25.236 -14.304  0.00  0.00    +0.137 C 
ATOM      9  C   UNL     1      37.284 -26.272 -15.435  0.00  0.00    +0.145 C 
ATOM     10  C   UNL     1      37.427 -26.470 -12.281  0.00  0.00    +0.000 C 
ATOM     11  C   UNL     1      37.482 -22.118 -12.998  0.00  0.00    +0.000 C 
ENDROOT
BRANCH   8  12
ATOM     12  C   UNL     1      34.170 -24.518 -14.590  0.00  0.00    +0.005 C 
ATOM     13  C   UNL     1      33.196 -24.404 -13.599  0.00  0.00    +0.001 C 
ATOM     14  C   UNL     1      33.951 -23.960 -15.850  0.00  0.00    +0.001 C 
ATOM     15  C   UNL     1      32.003 -23.734 -13.866  0.00  0.00    +0.036 C 
ATOM     16  C   UNL     1      32.757 -23.290 -16.118  0.00  0.00    +0.036 C 
ATOM     17  C   UNL     1      31.784 -23.177 -15.126  0.00  0.00    +0.134 C 
BRANCH  17  18
ATOM     18  O   UNL     1      30.620 -22.522 -15.387  0.00  0.00    -0.506 OA
ATOM     19  H   UNL     1      30.621 -21.764 -15.939  0.00  0.00    +0.292 HD
ENDBRANCH  17  18
ENDBRANCH   8  12
BRANCH   2  20
ATOM     20  C   UNL     1      39.573 -26.446 -14.422  0.00  0.00    +0.139 C 
BRANCH  20  21
ATOM     21  O   UNL     1      40.480 -26.071 -15.438  0.00  0.00    -0.382 OA
ATOM     22  H   UNL     1      41.090 -25.400 -15.095  0.00  0.00    +0.210 HD
ENDBRANCH  20  21
ENDBRANCH   2  20
TORSDOF 4
ENDMDL
MODEL 7
REMARK VINA RESULT:      -6.2     16.350     17.851
REMARK  Name = 46937048
REMARK  4 active torsions:
REMARK  status: ('A' for Active; 'I' for Inactive)
REMARK    1  A    between atoms: C_2  and  C_20
REMARK    2  A    between atoms: C_8  and  C_12
REMARK    3  A    between atoms: C_17  and  O_18
REMARK    4  A    between atoms: C_20  and  O_21
REMARK                            x       y       z     vdW  Elec       q    Type
REMARK                         _______ _______ _______ _____ _____    ______ ____
ROOT
ATOM      1  O   UNL     1      34.424  -8.397 -22.792  0.00  0.00    -0.352 OA
ATOM      2  C   UNL     1      32.576  -7.298 -21.550  0.00  0.00    +0.055 C 
ATOM      3  C   UNL     1      31.673  -8.532 -21.811  0.00  0.00    +0.007 C 
ATOM      4  C   UNL     1      32.108  -9.154 -23.163  0.00  0.00    +0.032 C 
ATOM      5  C   UNL     1      31.806  -8.154 -24.321  0.00  0.00    +0.003 C 
ATOM      6  C   UNL     1      32.277  -6.251 -22.659  0.00  0.00    +0.005 C 
ATOM      7  C   UNL     1      32.428  -6.767 -24.092  0.00  0.00    +0.000 C 
ATOM      8  C   UNL     1      33.614  -9.542 -23.075  0.00  0.00    +0.137 C 
ATOM      9  C   UNL     1      34.064  -7.723 -21.588  0.00  0.00    +0.145 C 
ATOM     10  C   UNL     1      31.664  -9.575 -20.682  0.00  0.00    +0.000 C 
ATOM     11  C   UNL     1      30.297  -8.027 -24.580  0.00  0.00    +0.000 C 
ENDROOT
BRANCH   8  12
ATOM     12  C   UNL     1      34.126 -10.159 -24.335  0.00  0.00    +0.005 C 
ATOM     13  C   UNL     1      35.208  -9.587 -25.003  0.00  0.00    +0.001 C 
ATOM     14  C   UNL     1      33.522 -11.309 -24.842  0.00  0.00    +0.001 C 
ATOM     15  C   UNL     1      35.687 -10.164 -26.179  0.00  0.00    +0.036 C 
ATOM     16  C   UNL     1      34.001 -11.887 -26.019  0.00  0.00    +0.036 C 
ATOM     17  C   UNL     1      35.082 -11.314 -26.687  0.00  0.00    +0.134 C 
BRANCH  17  18
ATOM     18  O   UNL     1      35.548 -11.877 -27.835  0.00  0.00    -0.506 OA
ATOM     19  H   UNL     1      35.619 -11.362 -28.615  0.00  0.00    +0.292 HD
ENDBRANCH  17  18
ENDBRANCH   8  12
BRANCH   2  20
ATOM     20  C   UNL     1      32.281  -6.647 -20.188  0.00  0.00    +0.139 C 
BRANCH  20  21
ATOM     21  O   UNL     1      33.339  -6.969 -19.310  0.00  0.00    -0.382 OA
ATOM     22  H   UNL     1      33.176  -7.838 -18.912  0.00  0.00    +0.210 HD
ENDBRANCH  20  21
ENDBRANCH   2  20
TORSDOF 4
ENDMDL
MODEL 8
REMARK VINA RESULT:      -5.9     16.726     19.973
REMARK  Name = 46937048
REMARK  4 active torsions:
REMARK  status: ('A' for Active; 'I' for Inactive)
REMARK    1  A    between atoms: C_2  and  C_20
REMARK    2  A    between atoms: C_8  and  C_12
REMARK    3  A    between atoms: C_17  and  O_18
REMARK    4  A    between atoms: C_20  and  O_21
REMARK                            x       y       z     vdW  Elec       q    Type
REMARK                         _______ _______ _______ _____ _____    ______ ____
ROOT
ATOM      1  O   UNL     1      33.849  -7.171 -23.323  0.00  0.00    -0.352 OA
ATOM      2  C   UNL     1      32.412  -8.122 -21.536  0.00  0.00    +0.055 C 
ATOM      3  C   UNL     1      31.178  -7.998 -22.468  0.00  0.00    +0.007 C 
ATOM      4  C   UNL     1      31.416  -6.783 -23.402  0.00  0.00    +0.032 C 
ATOM      5  C   UNL     1      31.446  -5.471 -22.558  0.00  0.00    +0.003 C 
ATOM      6  C   UNL     1      32.458  -6.853 -20.641  0.00  0.00    +0.005 C 
ATOM      7  C   UNL     1      32.459  -5.526 -21.403  0.00  0.00    +0.000 C 
ATOM      8  C   UNL     1      32.731  -7.017 -24.203  0.00  0.00    +0.137 C 
ATOM      9  C   UNL     1      33.700  -8.237 -22.387  0.00  0.00    +0.145 C 
ATOM     10  C   UNL     1      30.840  -9.268 -23.263  0.00  0.00    +0.000 C 
ATOM     11  C   UNL     1      30.051  -5.108 -22.027  0.00  0.00    +0.000 C 
ENDROOT
BRANCH   8  12
ATOM     12  C   UNL     1      33.043  -5.897 -25.140  0.00  0.00    +0.005 C 
ATOM     13  C   UNL     1      34.253  -5.883 -25.834  0.00  0.00    +0.001 C 
ATOM     14  C   UNL     1      32.123  -4.865 -25.323  0.00  0.00    +0.001 C 
ATOM     15  C   UNL     1      34.544  -4.837 -26.710  0.00  0.00    +0.036 C 
ATOM     16  C   UNL     1      32.414  -3.818 -26.199  0.00  0.00    +0.036 C 
ATOM     17  C   UNL     1      33.624  -3.805 -26.892  0.00  0.00    +0.134 C 
BRANCH  17  18
ATOM     18  O   UNL     1      33.907  -2.784 -27.746  0.00  0.00    -0.506 OA
ATOM     19  H   UNL     1      34.358  -2.023 -27.434  0.00  0.00    +0.292 HD
ENDBRANCH  17  18
ENDBRANCH   8  12
BRANCH   2  20
ATOM     20  C   UNL     1      32.316  -9.351 -20.615  0.00  0.00    +0.139 C 
BRANCH  20  21
ATOM     21  O   UNL     1      32.685  -8.952 -19.312  0.00  0.00    -0.382 OA
ATOM     22  H   UNL     1      33.624  -8.712 -19.302  0.00  0.00    +0.210 HD
ENDBRANCH  20  21
ENDBRANCH   2  20
TORSDOF 4
ENDMDL
MODEL 9
REMARK VINA RESULT:      -5.9      7.112     10.672
REMARK  Name = 46937048
REMARK  4 active torsions:
REMARK  status: ('A' for Active; 'I' for Inactive)
REMARK    1  A    between atoms: C_2  and  C_20
REMARK    2  A    between atoms: C_8  and  C_12
REMARK    3  A    between atoms: C_17  and  O_18
REMARK    4  A    between atoms: C_20  and  O_21
REMARK                            x       y       z     vdW  Elec       q    Type
REMARK                         _______ _______ _______ _____ _____    ______ ____
ROOT
ATOM      1  O   UNL     1      34.662 -16.865 -21.711  0.00  0.00    -0.352 OA
ATOM      2  C   UNL     1      35.760 -19.030 -21.189  0.00  0.00    +0.055 C 
ATOM      3  C   UNL     1      36.575 -18.929 -22.505  0.00  0.00    +0.007 C 
ATOM      4  C   UNL     1      35.712 -18.152 -23.532  0.00  0.00    +0.032 C 
ATOM      5  C   UNL     1      34.439 -18.983 -23.883  0.00  0.00    +0.003 C 
ATOM      6  C   UNL     1      34.499 -19.891 -21.479  0.00  0.00    +0.005 C 
ATOM      7  C   UNL     1      33.634 -19.397 -22.641  0.00  0.00    +0.000 C 
ATOM      8  C   UNL     1      35.376 -16.749 -22.945  0.00  0.00    +0.137 C 
ATOM      9  C   UNL     1      35.357 -17.613 -20.714  0.00  0.00    +0.145 C 
ATOM     10  C   UNL     1      37.973 -18.310 -22.352  0.00  0.00    +0.000 C 
ATOM     11  C   UNL     1      34.784 -20.216 -24.731  0.00  0.00    +0.000 C 
ENDROOT
BRANCH   8  12
ATOM     12  C   UNL     1      34.549 -15.919 -23.870  0.00  0.00    +0.005 C 
ATOM     13  C   UNL     1      34.056 -14.683 -23.449  0.00  0.00    +0.001 C 
ATOM     14  C   UNL     1      34.270 -16.378 -25.158  0.00  0.00    +0.001 C 
ATOM     15  C   UNL     1      33.284 -13.908 -24.314  0.00  0.00    +0.036 C 
ATOM     16  C   UNL     1      33.497 -15.602 -26.023  0.00  0.00    +0.036 C 
ATOM     17  C   UNL     1      33.005 -14.368 -25.601  0.00  0.00    +0.134 C 
BRANCH  17  18
ATOM     18  O   UNL     1      32.251 -13.612 -26.445  0.00  0.00    -0.506 OA
ATOM     19  H   UNL     1      31.860 -14.003 -27.202  0.00  0.00    +0.292 HD
ENDBRANCH  17  18
ENDBRANCH   8  12
BRANCH   2  20
ATOM     20  C   UNL     1      36.560 -19.719 -20.069  0.00  0.00    +0.139 C 
BRANCH  20  21
ATOM     21  O   UNL     1      35.734 -20.703 -19.483  0.00  0.00    -0.382 OA
ATOM     22  H   UNL     1      35.910 -20.747 -18.531  0.00  0.00    +0.210 HD
ENDBRANCH  20  21
ENDBRANCH   2  20
TORSDOF 4
ENDMDL
