MODEL 1
REMARK VINA RESULT:      -9.9      0.000      0.000
REMARK  Name = 3064778
REMARK  2 active torsions:
REMARK  status: ('A' for Active; 'I' for Inactive)
REMARK    1  A    between atoms: S_1  and  C_6
REMARK    2  A    between atoms: S_1  and  N_16
REMARK                            x       y       z     vdW  Elec       q    Type
REMARK                         _______ _______ _______ _____ _____    ______ ____
ROOT
ATOM      1  S   UNL     1      35.832 -18.440 -21.291  0.00  0.00    +0.063 S 
ATOM      2  O   UNL     1      37.234 -18.777 -21.417  0.00  0.00    -0.153 OA
ATOM      3  O   UNL     1      35.408 -17.298 -20.510  0.00  0.00    -0.153 OA
ENDROOT
BRANCH   1   6
ATOM      4  O   UNL     1      33.330 -15.601 -26.425  0.00  0.00    -0.270 OA
ATOM      5  N   UNL     1      33.903 -14.589 -24.435  0.00  0.00    -0.279 N 
ATOM      6  C   UNL     1      35.172 -18.261 -22.918  0.00  0.00    +0.122 C 
ATOM      7  C   UNL     1      34.748 -17.036 -23.428  0.00  0.00    +0.024 C 
ATOM      8  C   UNL     1      35.094 -19.419 -23.686  0.00  0.00    +0.020 C 
ATOM      9  C   UNL     1      34.236 -16.983 -24.735  0.00  0.00    +0.055 C 
ATOM     10  C   UNL     1      34.826 -15.814 -22.629  0.00  0.00    +0.017 C 
ATOM     11  C   UNL     1      34.584 -19.359 -24.984  0.00  0.00    +0.002 C 
ATOM     12  C   UNL     1      34.154 -18.142 -25.513  0.00  0.00    +0.005 C 
ATOM     13  C   UNL     1      33.779 -15.679 -25.287  0.00  0.00    +0.250 C 
ATOM     14  C   UNL     1      34.406 -14.662 -23.162  0.00  0.00    +0.064 C 
ATOM     15  H   UNL     1      33.611 -13.709 -24.767  0.00  0.00    +0.155 HD
ENDBRANCH   1   6
BRANCH   1  16
ATOM     16  N   UNL     1      34.966 -19.828 -20.765  0.00  0.00    -0.158 NA
ATOM     17  N   UNL     1      32.879 -21.628 -19.260  0.00  0.00    +0.385 N 
ATOM     18  C   UNL     1      35.661 -20.659 -19.737  0.00  0.00    +0.094 C 
ATOM     19  C   UNL     1      33.520 -19.595 -20.489  0.00  0.00    +0.073 C 
ATOM     20  C   UNL     1      35.298 -22.126 -19.939  0.00  0.00    -0.004 C 
ATOM     21  C   UNL     1      32.712 -20.891 -20.507  0.00  0.00    -0.062 C 
ATOM     22  C   UNL     1      34.005 -22.557 -19.240  0.00  0.00    -0.080 C 
ATOM     23  H   UNL     1      32.026 -22.160 -19.090  0.00  0.00    -0.084 HD
ATOM     24  H   UNL     1      33.070 -20.931 -18.540  0.00  0.00    -0.084 HD
ENDBRANCH   1  16
TORSDOF 2
ENDMDL
MODEL 2
REMARK VINA RESULT:      -9.7      1.708      2.998
REMARK  Name = 3064778
REMARK  2 active torsions:
REMARK  status: ('A' for Active; 'I' for Inactive)
REMARK    1  A    between atoms: S_1  and  C_6
REMARK    2  A    between atoms: S_1  and  N_16
REMARK                            x       y       z     vdW  Elec       q    Type
REMARK                         _______ _______ _______ _____ _____    ______ ____
ROOT
ATOM      1  S   UNL     1      35.671 -18.473 -22.593  0.00  0.00    +0.063 S 
ATOM      2  O   UNL     1      35.119 -18.924 -23.853  0.00  0.00    -0.153 OA
ATOM      3  O   UNL     1      37.099 -18.316 -22.419  0.00  0.00    -0.153 OA
ENDROOT
BRANCH   1   6
ATOM      4  O   UNL     1      32.569 -12.960 -23.414  0.00  0.00    -0.270 OA
ATOM      5  N   UNL     1      33.151 -14.471 -25.055  0.00  0.00    -0.279 N 
ATOM      6  C   UNL     1      34.901 -16.938 -22.184  0.00  0.00    +0.122 C 
ATOM      7  C   UNL     1      34.316 -16.112 -23.141  0.00  0.00    +0.024 C 
ATOM      8  C   UNL     1      34.903 -16.582 -20.839  0.00  0.00    +0.020 C 
ATOM      9  C   UNL     1      33.723 -14.906 -22.728  0.00  0.00    +0.055 C 
ATOM     10  C   UNL     1      34.309 -16.477 -24.557  0.00  0.00    +0.017 C 
ATOM     11  C   UNL     1      34.313 -15.383 -20.437  0.00  0.00    +0.002 C 
ATOM     12  C   UNL     1      33.721 -14.542 -21.379  0.00  0.00    +0.005 C 
ATOM     13  C   UNL     1      33.096 -14.018 -23.744  0.00  0.00    +0.250 C 
ATOM     14  C   UNL     1      33.734 -15.651 -25.437  0.00  0.00    +0.064 C 
ATOM     15  H   UNL     1      32.745 -13.908 -25.754  0.00  0.00    +0.155 HD
ENDBRANCH   1   6
BRANCH   1  16
ATOM     16  N   UNL     1      35.061 -19.462 -21.327  0.00  0.00    -0.158 NA
ATOM     17  N   UNL     1      34.545 -21.969 -19.508  0.00  0.00    +0.385 N 
ATOM     18  C   UNL     1      33.662 -19.948 -21.519  0.00  0.00    +0.094 C 
ATOM     19  C   UNL     1      36.008 -20.501 -20.833  0.00  0.00    +0.073 C 
ATOM     20  C   UNL     1      32.972 -20.058 -20.165  0.00  0.00    -0.004 C 
ATOM     21  C   UNL     1      35.637 -21.007 -19.441  0.00  0.00    -0.062 C 
ATOM     22  C   UNL     1      33.207 -21.388 -19.442  0.00  0.00    -0.080 C 
ATOM     23  H   UNL     1      34.647 -22.619 -18.729  0.00  0.00    -0.084 HD
ATOM     24  H   UNL     1      34.616 -22.419 -20.421  0.00  0.00    -0.084 HD
ENDBRANCH   1  16
TORSDOF 2
ENDMDL
MODEL 3
REMARK VINA RESULT:      -9.5      2.222      6.364
REMARK  Name = 3064778
REMARK  2 active torsions:
REMARK  status: ('A' for Active; 'I' for Inactive)
REMARK    1  A    between atoms: S_1  and  C_6
REMARK    2  A    between atoms: S_1  and  N_16
REMARK                            x       y       z     vdW  Elec       q    Type
REMARK                         _______ _______ _______ _____ _____    ______ ____
ROOT
ATOM      1  S   UNL     1      35.574 -18.438 -22.485  0.00  0.00    +0.063 S 
ATOM      2  O   UNL     1      36.888 -18.259 -21.906  0.00  0.00    -0.153 OA
ATOM      3  O   UNL     1      35.415 -18.955 -23.827  0.00  0.00    -0.153 OA
ENDROOT
BRANCH   1   6
ATOM      4  O   UNL     1      34.350 -22.676 -17.877  0.00  0.00    -0.270 OA
ATOM      5  N   UNL     1      36.428 -21.975 -18.587  0.00  0.00    -0.279 N 
ATOM      6  C   UNL     1      34.638 -19.461 -21.393  0.00  0.00    +0.122 C 
ATOM      7  C   UNL     1      35.233 -20.302 -20.454  0.00  0.00    +0.024 C 
ATOM      8  C   UNL     1      33.254 -19.390 -21.510  0.00  0.00    +0.020 C 
ATOM      9  C   UNL     1      34.412 -21.082 -19.623  0.00  0.00    +0.055 C 
ATOM     10  C   UNL     1      36.687 -20.384 -20.324  0.00  0.00    +0.017 C 
ATOM     11  C   UNL     1      32.445 -20.168 -20.681  0.00  0.00    +0.002 C 
ATOM     12  C   UNL     1      33.020 -21.016 -19.735  0.00  0.00    +0.005 C 
ATOM     13  C   UNL     1      35.040 -21.983 -18.619  0.00  0.00    +0.250 C 
ATOM     14  C   UNL     1      37.210 -21.206 -19.408  0.00  0.00    +0.064 C 
ATOM     15  H   UNL     1      36.878 -22.560 -17.934  0.00  0.00    +0.155 HD
ENDBRANCH   1   6
BRANCH   1  16
ATOM     16  N   UNL     1      34.695 -16.967 -22.347  0.00  0.00    -0.158 NA
ATOM     17  N   UNL     1      33.929 -13.933 -22.610  0.00  0.00    +0.385 N 
ATOM     18  C   UNL     1      34.767 -16.308 -21.008  0.00  0.00    +0.094 C 
ATOM     19  C   UNL     1      34.851 -16.034 -23.498  0.00  0.00    +0.073 C 
ATOM     20  C   UNL     1      33.450 -15.596 -20.722  0.00  0.00    -0.004 C 
ATOM     21  C   UNL     1      33.721 -15.010 -23.570  0.00  0.00    -0.062 C 
ATOM     22  C   UNL     1      33.367 -14.174 -21.285  0.00  0.00    -0.080 C 
ATOM     23  H   UNL     1      33.503 -13.087 -22.987  0.00  0.00    -0.084 HD
ATOM     24  H   UNL     1      34.938 -13.855 -22.483  0.00  0.00    -0.084 HD
ENDBRANCH   1  16
TORSDOF 2
ENDMDL
MODEL 4
REMARK VINA RESULT:      -9.2      4.269      8.643
REMARK  Name = 3064778
REMARK  2 active torsions:
REMARK  status: ('A' for Active; 'I' for Inactive)
REMARK    1  A    between atoms: S_1  and  C_6
REMARK    2  A    between atoms: S_1  and  N_16
REMARK                            x       y       z     vdW  Elec       q    Type
REMARK                         _______ _______ _______ _____ _____    ______ ____
ROOT
ATOM      1  S   UNL     1      33.865 -22.549 -18.844  0.00  0.00    +0.063 S 
ATOM      2  O   UNL     1      34.167 -23.713 -19.649  0.00  0.00    -0.153 OA
ATOM      3  O   UNL     1      32.549 -22.358 -18.274  0.00  0.00    -0.153 OA
ENDROOT
BRANCH   1   6
ATOM      4  O   UNL     1      36.306 -23.258 -12.993  0.00  0.00    -0.270 OA
ATOM      5  N   UNL     1      34.180 -23.828 -13.676  0.00  0.00    -0.279 N 
ATOM      6  C   UNL     1      35.042 -22.483 -17.529  0.00  0.00    +0.122 C 
ATOM      7  C   UNL     1      34.757 -22.932 -16.241  0.00  0.00    +0.024 C 
ATOM      8  C   UNL     1      36.291 -21.956 -17.841  0.00  0.00    +0.020 C 
ATOM      9  C   UNL     1      35.753 -22.844 -15.254  0.00  0.00    +0.055 C 
ATOM     10  C   UNL     1      33.447 -23.488 -15.904  0.00  0.00    +0.017 C 
ATOM     11  C   UNL     1      37.275 -21.871 -16.855  0.00  0.00    +0.002 C 
ATOM     12  C   UNL     1      37.010 -22.315 -15.560  0.00  0.00    +0.005 C 
ATOM     13  C   UNL     1      35.456 -23.320 -13.876  0.00  0.00    +0.250 C 
ATOM     14  C   UNL     1      33.222 -23.905 -14.654  0.00  0.00    +0.064 C 
ATOM     15  H   UNL     1      33.948 -24.152 -12.775  0.00  0.00    +0.155 HD
ENDBRANCH   1   6
BRANCH   1  16
ATOM     16  N   UNL     1      34.307 -21.134 -19.714  0.00  0.00    -0.158 NA
ATOM     17  N   UNL     1      34.385 -18.930 -21.949  0.00  0.00    +0.385 N 
ATOM     18  C   UNL     1      35.586 -21.233 -20.479  0.00  0.00    +0.094 C 
ATOM     19  C   UNL     1      33.193 -20.488 -20.463  0.00  0.00    +0.073 C 
ATOM     20  C   UNL     1      36.273 -19.872 -20.497  0.00  0.00    -0.004 C 
ATOM     21  C   UNL     1      33.493 -19.029 -20.800  0.00  0.00    -0.062 C 
ATOM     22  C   UNL     1      35.809 -18.947 -21.626  0.00  0.00    -0.080 C 
ATOM     23  H   UNL     1      34.180 -18.057 -22.435  0.00  0.00    -0.084 HD
ATOM     24  H   UNL     1      34.211 -19.759 -22.518  0.00  0.00    -0.084 HD
ENDBRANCH   1  16
TORSDOF 2
ENDMDL
MODEL 5
REMARK VINA RESULT:      -8.8      2.573      3.950
REMARK  Name = 3064778
REMARK  2 active torsions:
REMARK  status: ('A' for Active; 'I' for Inactive)
REMARK    1  A    between atoms: S_1  and  C_6
REMARK    2  A    between atoms: S_1  and  N_16
REMARK                            x       y       z     vdW  Elec       q    Type
REMARK                         _______ _______ _______ _____ _____    ______ ____
ROOT
ATOM      1  S   UNL     1      34.796 -16.983 -23.179  0.00  0.00    +0.063 S 
ATOM      2  O   UNL     1      33.951 -17.484 -24.243  0.00  0.00    -0.153 OA
ATOM      3  O   UNL     1      36.096 -16.414 -23.464  0.00  0.00    -0.153 OA
ENDROOT
BRANCH   1   6
ATOM      4  O   UNL     1      31.784 -11.511 -21.881  0.00  0.00    -0.270 OA
ATOM      5  N   UNL     1      32.881 -12.049 -23.835  0.00  0.00    -0.279 N 
ATOM      6  C   UNL     1      33.866 -15.787 -22.271  0.00  0.00    +0.122 C 
ATOM      7  C   UNL     1      33.535 -14.538 -22.791  0.00  0.00    +0.024 C 
ATOM      8  C   UNL     1      33.470 -16.154 -20.989  0.00  0.00    +0.020 C 
ATOM      9  C   UNL     1      32.792 -13.647 -21.999  0.00  0.00    +0.055 C 
ATOM     10  C   UNL     1      33.948 -14.143 -24.137  0.00  0.00    +0.017 C 
ATOM     11  C   UNL     1      32.731 -15.264 -20.208  0.00  0.00    +0.002 C 
ATOM     12  C   UNL     1      32.389 -14.009 -20.710  0.00  0.00    +0.005 C 
ATOM     13  C   UNL     1      32.435 -12.310 -22.547  0.00  0.00    +0.250 C 
ATOM     14  C   UNL     1      33.606 -12.933 -24.591  0.00  0.00    +0.064 C 
ATOM     15  H   UNL     1      32.663 -11.173 -24.230  0.00  0.00    +0.155 HD
ENDBRANCH   1   6
BRANCH   1  16
ATOM     16  N   UNL     1      34.971 -18.202 -21.980  0.00  0.00    -0.158 NA
ATOM     17  N   UNL     1      36.083 -20.690 -20.421  0.00  0.00    +0.385 N 
ATOM     18  C   UNL     1      34.006 -19.337 -22.084  0.00  0.00    +0.094 C 
ATOM     19  C   UNL     1      36.377 -18.615 -21.709  0.00  0.00    +0.073 C 
ATOM     20  C   UNL     1      33.677 -19.853 -20.688  0.00  0.00    -0.004 C 
ATOM     21  C   UNL     1      36.526 -19.303 -20.355  0.00  0.00    -0.062 C 
ATOM     22  C   UNL     1      34.663 -20.896 -20.152  0.00  0.00    -0.080 C 
ATOM     23  H   UNL     1      36.616 -21.226 -19.737  0.00  0.00    -0.084 HD
ATOM     24  H   UNL     1      36.239 -20.994 -21.382  0.00  0.00    -0.084 HD
ENDBRANCH   1  16
TORSDOF 2
ENDMDL
MODEL 6
REMARK VINA RESULT:      -8.8      8.761     10.590
REMARK  Name = 3064778
REMARK  2 active torsions:
REMARK  status: ('A' for Active; 'I' for Inactive)
REMARK    1  A    between atoms: S_1  and  C_6
REMARK    2  A    between atoms: S_1  and  N_16
REMARK                            x       y       z     vdW  Elec       q    Type
REMARK                         _______ _______ _______ _____ _____    ______ ____
ROOT
ATOM      1  S   UNL     1      31.933 -23.987 -13.612  0.00  0.00    +0.063 S 
ATOM      2  O   UNL     1      32.009 -25.365 -13.176  0.00  0.00    -0.153 OA
ATOM      3  O   UNL     1      31.800 -22.909 -12.655  0.00  0.00    -0.153 OA
ENDROOT
BRANCH   1   6
ATOM      4  O   UNL     1      38.067 -23.179 -15.163  0.00  0.00    -0.270 OA
ATOM      5  N   UNL     1      37.231 -23.701 -13.079  0.00  0.00    -0.279 N 
ATOM      6  C   UNL     1      33.351 -23.658 -14.610  0.00  0.00    +0.122 C 
ATOM      7  C   UNL     1      34.648 -23.672 -14.101  0.00  0.00    +0.024 C 
ATOM      8  C   UNL     1      33.114 -23.380 -15.952  0.00  0.00    +0.020 C 
ATOM      9  C   UNL     1      35.721 -23.399 -14.967  0.00  0.00    +0.055 C 
ATOM     10  C   UNL     1      34.908 -23.963 -12.692  0.00  0.00    +0.017 C 
ATOM     11  C   UNL     1      34.184 -23.110 -16.806  0.00  0.00    +0.002 C 
ATOM     12  C   UNL     1      35.491 -23.119 -16.317  0.00  0.00    +0.005 C 
ATOM     13  C   UNL     1      37.110 -23.411 -14.432  0.00  0.00    +0.250 C 
ATOM     14  C   UNL     1      36.170 -23.965 -12.252  0.00  0.00    +0.064 C 
ATOM     15  H   UNL     1      38.136 -23.718 -12.691  0.00  0.00    +0.155 HD
ENDBRANCH   1   6
BRANCH   1  16
ATOM     16  N   UNL     1      30.693 -23.840 -14.793  0.00  0.00    -0.158 NA
ATOM     17  N   UNL     1      27.972 -23.068 -16.156  0.00  0.00    +0.385 N 
ATOM     18  C   UNL     1      29.865 -25.065 -15.001  0.00  0.00    +0.094 C 
ATOM     19  C   UNL     1      29.909 -22.575 -14.722  0.00  0.00    +0.073 C 
ATOM     20  C   UNL     1      29.436 -25.147 -16.461  0.00  0.00    -0.004 C 
ATOM     21  C   UNL     1      29.184 -22.270 -16.031  0.00  0.00    -0.062 C 
ATOM     22  C   UNL     1      28.156 -24.372 -16.787  0.00  0.00    -0.080 C 
ATOM     23  H   UNL     1      27.300 -22.539 -16.713  0.00  0.00    -0.084 HD
ATOM     24  H   UNL     1      27.652 -23.253 -15.206  0.00  0.00    -0.084 HD
ENDBRANCH   1  16
TORSDOF 2
ENDMDL
MODEL 7
REMARK VINA RESULT:      -8.4      8.602     10.361
REMARK  Name = 3064778
REMARK  2 active torsions:
REMARK  status: ('A' for Active; 'I' for Inactive)
REMARK    1  A    between atoms: S_1  and  C_6
REMARK    2  A    between atoms: S_1  and  N_16
REMARK                            x       y       z     vdW  Elec       q    Type
REMARK                         _______ _______ _______ _____ _____    ______ ____
ROOT
ATOM      1  S   UNL     1      35.180 -24.049 -13.183  0.00  0.00    +0.063 S 
ATOM      2  O   UNL     1      35.559 -22.805 -12.549  0.00  0.00    -0.153 OA
ATOM      3  O   UNL     1      34.440 -25.061 -12.459  0.00  0.00    -0.153 OA
ENDROOT
BRANCH   1   6
ATOM      4  O   UNL     1      30.174 -22.753 -16.919  0.00  0.00    -0.270 OA
ATOM      5  N   UNL     1      30.124 -23.211 -14.660  0.00  0.00    -0.279 N 
ATOM      6  C   UNL     1      34.271 -23.655 -14.645  0.00  0.00    +0.122 C 
ATOM      7  C   UNL     1      32.886 -23.506 -14.653  0.00  0.00    +0.024 C 
ATOM      8  C   UNL     1      35.013 -23.496 -15.811  0.00  0.00    +0.020 C 
ATOM      9  C   UNL     1      32.243 -23.191 -15.862  0.00  0.00    +0.055 C 
ATOM     10  C   UNL     1      32.098 -23.672 -13.433  0.00  0.00    +0.017 C 
ATOM     11  C   UNL     1      34.367 -23.183 -17.008  0.00  0.00    +0.002 C 
ATOM     12  C   UNL     1      32.982 -23.028 -17.038  0.00  0.00    +0.005 C 
ATOM     13  C   UNL     1      30.764 -23.030 -15.879  0.00  0.00    +0.250 C 
ATOM     14  C   UNL     1      30.771 -23.519 -13.492  0.00  0.00    +0.064 C 
ATOM     15  H   UNL     1      29.145 -23.112 -14.635  0.00  0.00    +0.155 HD
ENDBRANCH   1   6
BRANCH   1  16
ATOM     16  N   UNL     1      36.575 -24.771 -13.881  0.00  0.00    -0.158 NA
ATOM     17  N   UNL     1      39.109 -26.591 -14.238  0.00  0.00    +0.385 N 
ATOM     18  C   UNL     1      37.810 -23.933 -13.842  0.00  0.00    +0.094 C 
ATOM     19  C   UNL     1      36.791 -26.199 -13.512  0.00  0.00    +0.073 C 
ATOM     20  C   UNL     1      38.654 -24.215 -15.080  0.00  0.00    -0.004 C 
ATOM     21  C   UNL     1      37.712 -26.917 -14.496  0.00  0.00    -0.062 C 
ATOM     22  C   UNL     1      39.603 -25.409 -14.937  0.00  0.00    -0.080 C 
ATOM     23  H   UNL     1      39.678 -27.389 -14.522  0.00  0.00    -0.084 HD
ATOM     24  H   UNL     1      39.174 -26.383 -13.242  0.00  0.00    -0.084 HD
ENDBRANCH   1  16
TORSDOF 2
ENDMDL
MODEL 8
REMARK VINA RESULT:      -8.3      7.652     10.204
REMARK  Name = 3064778
REMARK  2 active torsions:
REMARK  status: ('A' for Active; 'I' for Inactive)
REMARK    1  A    between atoms: S_1  and  C_6
REMARK    2  A    between atoms: S_1  and  N_16
REMARK                            x       y       z     vdW  Elec       q    Type
REMARK                         _______ _______ _______ _____ _____    ______ ____
ROOT
ATOM      1  S   UNL     1      35.596 -24.091 -12.611  0.00  0.00    +0.063 S 
ATOM      2  O   UNL     1      36.042 -22.755 -12.279  0.00  0.00    -0.153 OA
ATOM      3  O   UNL     1      35.137 -25.001 -11.583  0.00  0.00    -0.153 OA
ENDROOT
BRANCH   1   6
ATOM      4  O   UNL     1      32.790 -22.764 -18.183  0.00  0.00    -0.270 OA
ATOM      5  N   UNL     1      35.013 -22.457 -17.653  0.00  0.00    -0.279 N 
ATOM      6  C   UNL     1      34.318 -23.949 -13.821  0.00  0.00    +0.122 C 
ATOM      7  C   UNL     1      34.547 -23.451 -15.102  0.00  0.00    +0.024 C 
ATOM      8  C   UNL     1      33.049 -24.365 -13.433  0.00  0.00    +0.020 C 
ATOM      9  C   UNL     1      33.473 -23.373 -16.003  0.00  0.00    +0.055 C 
ATOM     10  C   UNL     1      35.878 -23.012 -15.518  0.00  0.00    +0.017 C 
ATOM     11  C   UNL     1      31.986 -24.284 -14.334  0.00  0.00    +0.002 C 
ATOM     12  C   UNL     1      32.194 -23.790 -15.621  0.00  0.00    +0.005 C 
ATOM     13  C   UNL     1      33.708 -22.842 -17.373  0.00  0.00    +0.250 C 
ATOM     14  C   UNL     1      36.047 -22.541 -16.758  0.00  0.00    +0.064 C 
ATOM     15  H   UNL     1      35.205 -22.101 -18.551  0.00  0.00    +0.155 HD
ENDBRANCH   1   6
BRANCH   1  16
ATOM     16  N   UNL     1      36.809 -24.873 -13.545  0.00  0.00    -0.158 NA
ATOM     17  N   UNL     1      38.693 -27.113 -14.683  0.00  0.00    +0.385 N 
ATOM     18  C   UNL     1      38.212 -24.635 -13.090  0.00  0.00    +0.094 C 
ATOM     19  C   UNL     1      36.511 -26.289 -13.897  0.00  0.00    +0.073 C 
ATOM     20  C   UNL     1      39.142 -24.621 -14.298  0.00  0.00    -0.004 C 
ATOM     21  C   UNL     1      37.334 -26.774 -15.089  0.00  0.00    -0.062 C 
ATOM     22  C   UNL     1      39.641 -26.004 -14.725  0.00  0.00    -0.080 C 
ATOM     23  H   UNL     1      39.034 -27.846 -15.303  0.00  0.00    -0.084 HD
ATOM     24  H   UNL     1      38.635 -27.403 -13.707  0.00  0.00    -0.084 HD
ENDBRANCH   1  16
TORSDOF 2
ENDMDL
MODEL 9
REMARK VINA RESULT:      -8.2      5.425      9.219
REMARK  Name = 3064778
REMARK  2 active torsions:
REMARK  status: ('A' for Active; 'I' for Inactive)
REMARK    1  A    between atoms: S_1  and  C_6
REMARK    2  A    between atoms: S_1  and  N_16
REMARK                            x       y       z     vdW  Elec       q    Type
REMARK                         _______ _______ _______ _____ _____    ______ ____
ROOT
ATOM      1  S   UNL     1      31.478 -11.252 -21.127  0.00  0.00    +0.063 S 
ATOM      2  O   UNL     1      30.088 -11.516 -21.432  0.00  0.00    -0.153 OA
ATOM      3  O   UNL     1      31.986 -11.391 -19.779  0.00  0.00    -0.153 OA
ENDROOT
BRANCH   1   6
ATOM      4  O   UNL     1      34.628 -16.389 -23.220  0.00  0.00    -0.270 OA
ATOM      5  N   UNL     1      33.450 -16.205 -21.248  0.00  0.00    -0.279 N 
ATOM      6  C   UNL     1      32.465 -12.263 -22.186  0.00  0.00    +0.122 C 
ATOM      7  C   UNL     1      32.795 -13.580 -21.876  0.00  0.00    +0.024 C 
ATOM      8  C   UNL     1      32.905 -11.676 -23.369  0.00  0.00    +0.020 C 
ATOM      9  C   UNL     1      33.584 -14.314 -22.777  0.00  0.00    +0.055 C 
ATOM     10  C   UNL     1      32.337 -14.205 -20.635  0.00  0.00    +0.017 C 
ATOM     11  C   UNL     1      33.689 -12.412 -24.259  0.00  0.00    +0.002 C 
ATOM     12  C   UNL     1      34.030 -13.732 -23.967  0.00  0.00    +0.005 C 
ATOM     13  C   UNL     1      33.943 -15.721 -22.452  0.00  0.00    +0.250 C 
ATOM     14  C   UNL     1      32.681 -15.472 -20.382  0.00  0.00    +0.064 C 
ATOM     15  H   UNL     1      33.667 -17.133 -21.001  0.00  0.00    +0.155 HD
ENDBRANCH   1   6
BRANCH   1  16
ATOM     16  N   UNL     1      31.897  -9.694 -21.722  0.00  0.00    -0.158 NA
ATOM     17  N   UNL     1      32.259  -6.579 -21.882  0.00  0.00    +0.385 N 
ATOM     18  C   UNL     1      30.954  -9.126 -22.731  0.00  0.00    +0.094 C 
ATOM     19  C   UNL     1      32.337  -8.724 -20.680  0.00  0.00    +0.073 C 
ATOM     20  C   UNL     1      31.731  -8.274 -23.728  0.00  0.00    -0.004 C 
ATOM     21  C   UNL     1      33.139  -7.567 -21.270  0.00  0.00    -0.062 C 
ATOM     22  C   UNL     1      31.945  -6.823 -23.287  0.00  0.00    -0.080 C 
ATOM     23  H   UNL     1      32.709  -5.667 -21.812  0.00  0.00    -0.084 HD
ATOM     24  H   UNL     1      31.375  -6.633 -21.378  0.00  0.00    -0.084 HD
ENDBRANCH   1  16
TORSDOF 2
ENDMDL
