MODEL 1
REMARK VINA RESULT:      -8.1      0.000      0.000
REMARK  Name = 446355
REMARK  6 active torsions:
REMARK  status: ('A' for Active; 'I' for Inactive)
REMARK    1  A    between atoms: C_1  and  C_3
REMARK    2  A    between atoms: C_1  and  N_13
REMARK    3  A    between atoms: C_1  and  C_18
REMARK    4  A    between atoms: C_8  and  C_10
REMARK    5  A    between atoms: C_10  and  O_11
REMARK    6  A    between atoms: C_18  and  O_19
REMARK                            x       y       z     vdW  Elec       q    Type
REMARK                         _______ _______ _______ _____ _____    ______ ____
ROOT
ATOM      1  C   UNL     1      35.270 -18.326 -22.219  0.00  0.00    +0.062 C 
ATOM      2  C   UNL     1      34.736 -18.465 -23.658  0.00  0.00    -0.007 C 
ENDROOT
BRANCH   1   3
ATOM      3  C   UNL     1      34.815 -19.425 -21.251  0.00  0.00    -0.031 C 
ATOM      4  C   UNL     1      33.469 -19.579 -21.021  0.00  0.00    -0.006 C 
ATOM      5  C   UNL     1      35.772 -20.210 -20.655  0.00  0.00    -0.006 C 
ATOM      6  C   UNL     1      33.055 -20.579 -20.141  0.00  0.00    +0.006 C 
ATOM      7  C   UNL     1      35.358 -21.209 -19.773  0.00  0.00    +0.006 C 
ATOM      8  C   UNL     1      34.000 -21.395 -19.517  0.00  0.00    +0.075 C 
BRANCH   8  10
ATOM      9  O   UNL     1      34.287 -23.334 -18.146  0.00  0.00    -0.245 OA
ATOM     10  C   UNL     1      33.569 -22.436 -18.599  0.00  0.00    +0.338 C 
BRANCH  10  11
ATOM     11  O   UNL     1      32.252 -22.327 -18.270  0.00  0.00    -0.477 OA
ATOM     12  H   UNL     1      31.777 -21.548 -18.486  0.00  0.00    +0.295 HD
ENDBRANCH  10  11
ENDBRANCH   8  10
ENDBRANCH   1   3
BRANCH   1  13
ATOM     13  N   UNL     1      36.738 -18.320 -22.332  0.00  0.00    +0.392 N 
ATOM     14  H   UNL     1      37.060 -19.235 -22.648  0.00  0.00    -0.088 HD
ATOM     15  H   UNL     1      37.149 -18.110 -21.423  0.00  0.00    -0.088 HD
ATOM     16  H   UNL     1      37.025 -17.609 -23.007  0.00  0.00    -0.088 HD
ENDBRANCH   1  13
BRANCH   1  18
ATOM     17  O   UNL     1      34.109 -16.182 -22.376  0.00  0.00    -0.252 OA
ATOM     18  C   UNL     1      34.815 -16.945 -21.727  0.00  0.00    +0.298 C 
BRANCH  18  19
ATOM     19  O   UNL     1      35.211 -16.656 -20.460  0.00  0.00    -0.481 OA
ATOM     20  H   UNL     1      35.577 -17.327 -19.918  0.00  0.00    +0.295 HD
ENDBRANCH  18  19
ENDBRANCH   1  18
TORSDOF 6
ENDMDL
MODEL 2
REMARK VINA RESULT:      -7.5      1.364      2.119
REMARK  Name = 446355
REMARK  6 active torsions:
REMARK  status: ('A' for Active; 'I' for Inactive)
REMARK    1  A    between atoms: C_1  and  C_3
REMARK    2  A    between atoms: C_1  and  N_13
REMARK    3  A    between atoms: C_1  and  C_18
REMARK    4  A    between atoms: C_8  and  C_10
REMARK    5  A    between atoms: C_10  and  O_11
REMARK    6  A    between atoms: C_18  and  O_19
REMARK                            x       y       z     vdW  Elec       q    Type
REMARK                         _______ _______ _______ _____ _____    ______ ____
ROOT
ATOM      1  C   UNL     1      35.568 -18.559 -21.632  0.00  0.00    +0.062 C 
ATOM      2  C   UNL     1      37.094 -18.637 -21.828  0.00  0.00    -0.007 C 
ENDROOT
BRANCH   1   3
ATOM      3  C   UNL     1      34.963 -19.704 -20.811  0.00  0.00    -0.031 C 
ATOM      4  C   UNL     1      35.810 -20.634 -20.259  0.00  0.00    -0.006 C 
ATOM      5  C   UNL     1      33.598 -19.752 -20.660  0.00  0.00    -0.006 C 
ATOM      6  C   UNL     1      35.260 -21.676 -19.512  0.00  0.00    +0.006 C 
ATOM      7  C   UNL     1      33.047 -20.794 -19.914  0.00  0.00    +0.006 C 
ATOM      8  C   UNL     1      33.878 -21.755 -19.339  0.00  0.00    +0.075 C 
BRANCH   8  10
ATOM      9  O   UNL     1      33.784 -23.974 -18.449  0.00  0.00    -0.245 OA
ATOM     10  C   UNL     1      33.304 -22.841 -18.561  0.00  0.00    +0.338 C 
BRANCH  10  11
ATOM     11  O   UNL     1      32.146 -22.482 -17.941  0.00  0.00    -0.477 OA
ATOM     12  H   UNL     1      32.140 -21.763 -17.339  0.00  0.00    +0.295 HD
ENDBRANCH  10  11
ENDBRANCH   8  10
ENDBRANCH   1   3
BRANCH   1  13
ATOM     13  N   UNL     1      35.311 -17.267 -20.974  0.00  0.00    +0.392 N 
ATOM     14  H   UNL     1      35.733 -16.516 -21.521  0.00  0.00    -0.088 HD
ATOM     15  H   UNL     1      35.716 -17.275 -20.038  0.00  0.00    -0.088 HD
ATOM     16  H   UNL     1      34.305 -17.113 -20.908  0.00  0.00    -0.088 HD
ENDBRANCH   1  13
BRANCH   1  18
ATOM     17  O   UNL     1      34.876 -19.489 -23.783  0.00  0.00    -0.252 OA
ATOM     18  C   UNL     1      34.958 -18.517 -23.039  0.00  0.00    +0.298 C 
BRANCH  18  19
ATOM     19  O   UNL     1      34.442 -17.307 -23.379  0.00  0.00    -0.481 OA
ATOM     20  H   UNL     1      33.547 -17.238 -23.650  0.00  0.00    +0.295 HD
ENDBRANCH  18  19
ENDBRANCH   1  18
TORSDOF 6
ENDMDL
MODEL 3
REMARK VINA RESULT:      -6.8      6.316      8.128
REMARK  Name = 446355
REMARK  6 active torsions:
REMARK  status: ('A' for Active; 'I' for Inactive)
REMARK    1  A    between atoms: C_1  and  C_3
REMARK    2  A    between atoms: C_1  and  N_13
REMARK    3  A    between atoms: C_1  and  C_18
REMARK    4  A    between atoms: C_8  and  C_10
REMARK    5  A    between atoms: C_10  and  O_11
REMARK    6  A    between atoms: C_18  and  O_19
REMARK                            x       y       z     vdW  Elec       q    Type
REMARK                         _______ _______ _______ _____ _____    ______ ____
ROOT
ATOM      1  C   UNL     1      35.884 -24.105 -14.865  0.00  0.00    +0.062 C 
ATOM      2  C   UNL     1      36.365 -23.533 -13.517  0.00  0.00    -0.007 C 
ENDROOT
BRANCH   1   3
ATOM      3  C   UNL     1      34.420 -23.809 -15.207  0.00  0.00    -0.031 C 
ATOM      4  C   UNL     1      33.483 -23.893 -14.206  0.00  0.00    -0.006 C 
ATOM      5  C   UNL     1      34.104 -23.471 -16.501  0.00  0.00    -0.006 C 
ATOM      6  C   UNL     1      32.150 -23.623 -14.516  0.00  0.00    +0.006 C 
ATOM      7  C   UNL     1      32.771 -23.201 -16.813  0.00  0.00    +0.006 C 
ATOM      8  C   UNL     1      31.794 -23.277 -15.820  0.00  0.00    +0.075 C 
BRANCH   8  10
ATOM      9  O   UNL     1      30.012 -22.389 -17.147  0.00  0.00    -0.245 OA
ATOM     10  C   UNL     1      30.405 -22.996 -16.145  0.00  0.00    +0.338 C 
BRANCH  10  11
ATOM     11  O   UNL     1      29.543 -23.482 -15.209  0.00  0.00    -0.477 OA
ATOM     12  H   UNL     1      28.780 -23.955 -15.476  0.00  0.00    +0.295 HD
ENDBRANCH  10  11
ENDBRANCH   8  10
ENDBRANCH   1   3
BRANCH   1  13
ATOM     13  N   UNL     1      36.775 -23.531 -15.888  0.00  0.00    +0.392 N 
ATOM     14  H   UNL     1      36.424 -23.767 -16.816  0.00  0.00    -0.088 HD
ATOM     15  H   UNL     1      37.714 -23.911 -15.773  0.00  0.00    -0.088 HD
ATOM     16  H   UNL     1      36.803 -22.517 -15.784  0.00  0.00    -0.088 HD
ENDBRANCH   1  13
BRANCH   1  18
ATOM     17  O   UNL     1      36.063 -26.368 -15.768  0.00  0.00    -0.252 OA
ATOM     18  C   UNL     1      36.132 -25.618 -14.800  0.00  0.00    +0.298 C 
BRANCH  18  19
ATOM     19  O   UNL     1      36.508 -26.062 -13.572  0.00  0.00    -0.481 OA
ATOM     20  H   UNL     1      36.284 -25.570 -12.807  0.00  0.00    +0.295 HD
ENDBRANCH  18  19
ENDBRANCH   1  18
TORSDOF 6
ENDMDL
MODEL 4
REMARK VINA RESULT:      -6.7      6.422      9.155
REMARK  Name = 446355
REMARK  6 active torsions:
REMARK  status: ('A' for Active; 'I' for Inactive)
REMARK    1  A    between atoms: C_1  and  C_3
REMARK    2  A    between atoms: C_1  and  N_13
REMARK    3  A    between atoms: C_1  and  C_18
REMARK    4  A    between atoms: C_8  and  C_10
REMARK    5  A    between atoms: C_10  and  O_11
REMARK    6  A    between atoms: C_18  and  O_19
REMARK                            x       y       z     vdW  Elec       q    Type
REMARK                         _______ _______ _______ _____ _____    ______ ____
ROOT
ATOM      1  C   UNL     1      37.225 -24.599 -12.764  0.00  0.00    +0.062 C 
ATOM      2  C   UNL     1      38.413 -25.580 -12.787  0.00  0.00    -0.007 C 
ENDROOT
BRANCH   1   3
ATOM      3  C   UNL     1      36.975 -23.854 -14.081  0.00  0.00    -0.031 C 
ATOM      4  C   UNL     1      38.042 -23.629 -14.918  0.00  0.00    -0.006 C 
ATOM      5  C   UNL     1      35.697 -23.443 -14.369  0.00  0.00    -0.006 C 
ATOM      6  C   UNL     1      37.816 -22.952 -16.116  0.00  0.00    +0.006 C 
ATOM      7  C   UNL     1      35.470 -22.764 -15.567  0.00  0.00    +0.006 C 
ATOM      8  C   UNL     1      36.530 -22.519 -16.441  0.00  0.00    +0.075 C 
BRANCH   8  10
ATOM      9  O   UNL     1      36.903 -20.807 -18.070  0.00  0.00    -0.245 OA
ATOM     10  C   UNL     1      36.294 -21.813 -17.689  0.00  0.00    +0.338 C 
BRANCH  10  11
ATOM     11  O   UNL     1      35.305 -22.383 -18.432  0.00  0.00    -0.477 OA
ATOM     12  H   UNL     1      35.483 -23.148 -18.942  0.00  0.00    +0.295 HD
ENDBRANCH  10  11
ENDBRANCH   8  10
ENDBRANCH   1   3
BRANCH   1  13
ATOM     13  N   UNL     1      36.045 -25.402 -12.400  0.00  0.00    +0.392 N 
ATOM     14  H   UNL     1      36.136 -26.339 -12.794  0.00  0.00    -0.088 HD
ATOM     15  H   UNL     1      35.204 -24.959 -12.769  0.00  0.00    -0.088 HD
ATOM     16  H   UNL     1      35.978 -25.468 -11.384  0.00  0.00    -0.088 HD
ENDBRANCH   1  13
BRANCH   1  18
ATOM     17  O   UNL     1      38.291 -22.670 -11.710  0.00  0.00    -0.252 OA
ATOM     18  C   UNL     1      37.508 -23.611 -11.625  0.00  0.00    +0.298 C 
BRANCH  18  19
ATOM     19  O   UNL     1      36.759 -23.823 -10.512  0.00  0.00    -0.481 OA
ATOM     20  H   UNL     1      37.145 -23.735  -9.663  0.00  0.00    +0.295 HD
ENDBRANCH  18  19
ENDBRANCH   1  18
TORSDOF 6
ENDMDL
MODEL 5
REMARK VINA RESULT:      -6.7      3.422      6.434
REMARK  Name = 446355
REMARK  6 active torsions:
REMARK  status: ('A' for Active; 'I' for Inactive)
REMARK    1  A    between atoms: C_1  and  C_3
REMARK    2  A    between atoms: C_1  and  N_13
REMARK    3  A    between atoms: C_1  and  C_18
REMARK    4  A    between atoms: C_8  and  C_10
REMARK    5  A    between atoms: C_10  and  O_11
REMARK    6  A    between atoms: C_18  and  O_19
REMARK                            x       y       z     vdW  Elec       q    Type
REMARK                         _______ _______ _______ _____ _____    ______ ____
ROOT
ATOM      1  C   UNL     1      34.867 -18.538 -22.322  0.00  0.00    +0.062 C 
ATOM      2  C   UNL     1      34.962 -19.383 -23.607  0.00  0.00    -0.007 C 
ENDROOT
BRANCH   1   3
ATOM      3  C   UNL     1      34.473 -17.072 -22.539  0.00  0.00    -0.031 C 
ATOM      4  C   UNL     1      34.411 -16.595 -23.826  0.00  0.00    -0.006 C 
ATOM      5  C   UNL     1      34.198 -16.298 -21.438  0.00  0.00    -0.006 C 
ATOM      6  C   UNL     1      34.052 -15.261 -24.024  0.00  0.00    +0.006 C 
ATOM      7  C   UNL     1      33.841 -14.964 -21.636  0.00  0.00    +0.006 C 
ATOM      8  C   UNL     1      33.767 -14.446 -22.929  0.00  0.00    +0.075 C 
BRANCH   8  10
ATOM      9  O   UNL     1      32.401 -12.501 -22.651  0.00  0.00    -0.245 OA
ATOM     10  C   UNL     1      33.394 -13.056 -23.135  0.00  0.00    +0.338 C 
BRANCH  10  11
ATOM     11  O   UNL     1      34.272 -12.395 -23.938  0.00  0.00    -0.477 OA
ATOM     12  H   UNL     1      35.188 -12.589 -23.891  0.00  0.00    +0.295 HD
ENDBRANCH  10  11
ENDBRANCH   8  10
ENDBRANCH   1   3
BRANCH   1  13
ATOM     13  N   UNL     1      33.874 -19.213 -21.468  0.00  0.00    +0.392 N 
ATOM     14  H   UNL     1      33.596 -18.589 -20.710  0.00  0.00    -0.088 HD
ATOM     15  H   UNL     1      34.283 -20.061 -21.077  0.00  0.00    -0.088 HD
ATOM     16  H   UNL     1      33.054 -19.456 -22.025  0.00  0.00    -0.088 HD
ENDBRANCH   1  13
BRANCH   1  18
ATOM     17  O   UNL     1      36.412 -19.048 -20.499  0.00  0.00    -0.252 OA
ATOM     18  C   UNL     1      36.239 -18.638 -21.642  0.00  0.00    +0.298 C 
BRANCH  18  19
ATOM     19  O   UNL     1      37.278 -18.292 -22.446  0.00  0.00    -0.481 OA
ATOM     20  H   UNL     1      37.232 -17.510 -22.961  0.00  0.00    +0.295 HD
ENDBRANCH  18  19
ENDBRANCH   1  18
TORSDOF 6
ENDMDL
MODEL 6
REMARK VINA RESULT:      -6.6      3.402      6.472
REMARK  Name = 446355
REMARK  6 active torsions:
REMARK  status: ('A' for Active; 'I' for Inactive)
REMARK    1  A    between atoms: C_1  and  C_3
REMARK    2  A    between atoms: C_1  and  N_13
REMARK    3  A    between atoms: C_1  and  C_18
REMARK    4  A    between atoms: C_8  and  C_10
REMARK    5  A    between atoms: C_10  and  O_11
REMARK    6  A    between atoms: C_18  and  O_19
REMARK                            x       y       z     vdW  Elec       q    Type
REMARK                         _______ _______ _______ _____ _____    ______ ____
ROOT
ATOM      1  C   UNL     1      34.658 -17.939 -21.627  0.00  0.00    +0.062 C 
ATOM      2  C   UNL     1      33.625 -18.970 -21.134  0.00  0.00    -0.007 C 
ENDROOT
BRANCH   1   3
ATOM      3  C   UNL     1      34.094 -16.540 -21.907  0.00  0.00    -0.031 C 
ATOM      4  C   UNL     1      33.130 -16.042 -21.063  0.00  0.00    -0.006 C 
ATOM      5  C   UNL     1      34.576 -15.843 -22.988  0.00  0.00    -0.006 C 
ATOM      6  C   UNL     1      32.617 -14.770 -21.315  0.00  0.00    +0.006 C 
ATOM      7  C   UNL     1      34.062 -14.571 -23.242  0.00  0.00    +0.006 C 
ATOM      8  C   UNL     1      33.084 -14.034 -22.405  0.00  0.00    +0.075 C 
BRANCH   8  10
ATOM      9  O   UNL     1      33.072 -11.856 -23.397  0.00  0.00    -0.245 OA
ATOM     10  C   UNL     1      32.549 -12.708 -22.670  0.00  0.00    +0.338 C 
BRANCH  10  11
ATOM     11  O   UNL     1      31.374 -12.481 -22.020  0.00  0.00    -0.477 OA
ATOM     12  H   UNL     1      30.582 -12.369 -22.509  0.00  0.00    +0.295 HD
ENDBRANCH  10  11
ENDBRANCH   8  10
ENDBRANCH   1   3
BRANCH   1  13
ATOM     13  N   UNL     1      35.693 -17.873 -20.582  0.00  0.00    +0.392 N 
ATOM     14  H   UNL     1      36.603 -17.710 -21.014  0.00  0.00    -0.088 HD
ATOM     15  H   UNL     1      35.714 -18.753 -20.067  0.00  0.00    -0.088 HD
ATOM     16  H   UNL     1      35.482 -17.108 -19.940  0.00  0.00    -0.088 HD
ENDBRANCH   1  13
BRANCH   1  18
ATOM     17  O   UNL     1      34.649 -19.114 -23.769  0.00  0.00    -0.252 OA
ATOM     18  C   UNL     1      35.285 -18.535 -22.895  0.00  0.00    +0.298 C 
BRANCH  18  19
ATOM     19  O   UNL     1      36.619 -18.307 -23.008  0.00  0.00    -0.481 OA
ATOM     20  H   UNL     1      37.043 -18.407 -23.838  0.00  0.00    +0.295 HD
ENDBRANCH  18  19
ENDBRANCH   1  18
TORSDOF 6
ENDMDL
MODEL 7
REMARK VINA RESULT:      -6.6      8.122      9.462
REMARK  Name = 446355
REMARK  6 active torsions:
REMARK  status: ('A' for Active; 'I' for Inactive)
REMARK    1  A    between atoms: C_1  and  C_3
REMARK    2  A    between atoms: C_1  and  N_13
REMARK    3  A    between atoms: C_1  and  C_18
REMARK    4  A    between atoms: C_8  and  C_10
REMARK    5  A    between atoms: C_10  and  O_11
REMARK    6  A    between atoms: C_18  and  O_19
REMARK                            x       y       z     vdW  Elec       q    Type
REMARK                         _______ _______ _______ _____ _____    ______ ____
ROOT
ATOM      1  C   UNL     1      34.898 -23.920 -14.410  0.00  0.00    +0.062 C 
ATOM      2  C   UNL     1      33.889 -24.500 -15.420  0.00  0.00    -0.007 C 
ENDROOT
BRANCH   1   3
ATOM      3  C   UNL     1      36.318 -24.489 -14.515  0.00  0.00    -0.031 C 
ATOM      4  C   UNL     1      36.552 -25.757 -14.039  0.00  0.00    -0.006 C 
ATOM      5  C   UNL     1      37.297 -23.709 -15.082  0.00  0.00    -0.006 C 
ATOM      6  C   UNL     1      37.844 -26.276 -14.135  0.00  0.00    +0.006 C 
ATOM      7  C   UNL     1      38.589 -24.227 -15.177  0.00  0.00    +0.006 C 
ATOM      8  C   UNL     1      38.862 -25.511 -14.704  0.00  0.00    +0.075 C 
BRANCH   8  10
ATOM      9  O   UNL     1      40.886 -26.465 -13.857  0.00  0.00    -0.245 OA
ATOM     10  C   UNL     1      40.208 -26.051 -14.804  0.00  0.00    +0.338 C 
BRANCH  10  11
ATOM     11  O   UNL     1      40.672 -26.062 -16.084  0.00  0.00    -0.477 OA
ATOM     12  H   UNL     1      40.778 -25.257 -16.551  0.00  0.00    +0.295 HD
ENDBRANCH  10  11
ENDBRANCH   8  10
ENDBRANCH   1   3
BRANCH   1  13
ATOM     13  N   UNL     1      34.912 -22.466 -14.643  0.00  0.00    +0.392 N 
ATOM     14  H   UNL     1      35.323 -21.996 -13.836  0.00  0.00    -0.088 HD
ATOM     15  H   UNL     1      33.957 -22.134 -14.779  0.00  0.00    -0.088 HD
ATOM     16  H   UNL     1      35.466 -22.259 -15.474  0.00  0.00    -0.088 HD
ENDBRANCH   1  13
BRANCH   1  18
ATOM     17  O   UNL     1      34.775 -23.731 -11.977  0.00  0.00    -0.252 OA
ATOM     18  C   UNL     1      34.309 -24.183 -13.018  0.00  0.00    +0.298 C 
BRANCH  18  19
ATOM     19  O   UNL     1      33.166 -24.918 -13.034  0.00  0.00    -0.481 OA
ATOM     20  H   UNL     1      32.378 -24.550 -13.383  0.00  0.00    +0.295 HD
ENDBRANCH  18  19
ENDBRANCH   1  18
TORSDOF 6
ENDMDL
MODEL 8
REMARK VINA RESULT:      -6.6      6.350      8.489
REMARK  Name = 446355
REMARK  6 active torsions:
REMARK  status: ('A' for Active; 'I' for Inactive)
REMARK    1  A    between atoms: C_1  and  C_3
REMARK    2  A    between atoms: C_1  and  N_13
REMARK    3  A    between atoms: C_1  and  C_18
REMARK    4  A    between atoms: C_8  and  C_10
REMARK    5  A    between atoms: C_10  and  O_11
REMARK    6  A    between atoms: C_18  and  O_19
REMARK                            x       y       z     vdW  Elec       q    Type
REMARK                         _______ _______ _______ _____ _____    ______ ____
ROOT
ATOM      1  C   UNL     1      36.847 -24.862 -14.708  0.00  0.00    +0.062 C 
ATOM      2  C   UNL     1      37.273 -24.786 -13.229  0.00  0.00    -0.007 C 
ENDROOT
BRANCH   1   3
ATOM      3  C   UNL     1      35.432 -24.351 -15.001  0.00  0.00    -0.031 C 
ATOM      4  C   UNL     1      35.218 -23.642 -16.159  0.00  0.00    -0.006 C 
ATOM      5  C   UNL     1      34.436 -24.623 -14.095  0.00  0.00    -0.006 C 
ATOM      6  C   UNL     1      33.930 -23.177 -16.427  0.00  0.00    +0.006 C 
ATOM      7  C   UNL     1      33.148 -24.158 -14.362  0.00  0.00    +0.006 C 
ATOM      8  C   UNL     1      32.895 -23.436 -15.528  0.00  0.00    +0.075 C 
BRANCH   8  10
ATOM      9  O   UNL     1      31.099 -22.701 -16.928  0.00  0.00    -0.245 OA
ATOM     10  C   UNL     1      31.553 -22.951 -15.806  0.00  0.00    +0.338 C 
BRANCH  10  11
ATOM     11  O   UNL     1      30.811 -22.794 -14.675  0.00  0.00    -0.477 OA
ATOM     12  H   UNL     1      31.162 -23.051 -13.844  0.00  0.00    +0.295 HD
ENDBRANCH  10  11
ENDBRANCH   8  10
ENDBRANCH   1   3
BRANCH   1  13
ATOM     13  N   UNL     1      37.841 -24.072 -15.455  0.00  0.00    +0.392 N 
ATOM     14  H   UNL     1      37.683 -24.185 -16.457  0.00  0.00    -0.088 HD
ATOM     15  H   UNL     1      38.779 -24.394 -15.220  0.00  0.00    -0.088 HD
ATOM     16  H   UNL     1      37.748 -23.086 -15.207  0.00  0.00    -0.088 HD
ENDBRANCH   1  13
BRANCH   1  18
ATOM     17  O   UNL     1      36.243 -26.902 -15.909  0.00  0.00    -0.252 OA
ATOM     18  C   UNL     1      36.990 -26.333 -15.119  0.00  0.00    +0.298 C 
BRANCH  18  19
ATOM     19  O   UNL     1      38.071 -26.953 -14.579  0.00  0.00    -0.481 OA
ATOM     20  H   UNL     1      38.701 -26.458 -14.093  0.00  0.00    +0.295 HD
ENDBRANCH  18  19
ENDBRANCH   1  18
TORSDOF 6
ENDMDL
MODEL 9
REMARK VINA RESULT:      -6.6      6.474      9.209
REMARK  Name = 446355
REMARK  6 active torsions:
REMARK  status: ('A' for Active; 'I' for Inactive)
REMARK    1  A    between atoms: C_1  and  C_3
REMARK    2  A    between atoms: C_1  and  N_13
REMARK    3  A    between atoms: C_1  and  C_18
REMARK    4  A    between atoms: C_8  and  C_10
REMARK    5  A    between atoms: C_10  and  O_11
REMARK    6  A    between atoms: C_18  and  O_19
REMARK                            x       y       z     vdW  Elec       q    Type
REMARK                         _______ _______ _______ _____ _____    ______ ____
ROOT
ATOM      1  C   UNL     1      37.990 -25.018 -13.046  0.00  0.00    +0.062 C 
ATOM      2  C   UNL     1      39.423 -25.176 -13.589  0.00  0.00    -0.007 C 
ENDROOT
BRANCH   1   3
ATOM      3  C   UNL     1      36.965 -24.504 -14.065  0.00  0.00    -0.031 C 
ATOM      4  C   UNL     1      35.693 -25.023 -14.032  0.00  0.00    -0.006 C 
ATOM      5  C   UNL     1      37.360 -23.547 -14.967  0.00  0.00    -0.006 C 
ATOM      6  C   UNL     1      34.759 -24.556 -14.957  0.00  0.00    +0.006 C 
ATOM      7  C   UNL     1      36.427 -23.080 -15.893  0.00  0.00    +0.006 C 
ATOM      8  C   UNL     1      35.127 -23.584 -15.888  0.00  0.00    +0.075 C 
BRANCH   8  10
ATOM      9  O   UNL     1      32.929 -23.098 -16.699  0.00  0.00    -0.245 OA
ATOM     10  C   UNL     1      34.155 -23.098 -16.854  0.00  0.00    +0.338 C 
BRANCH  10  11
ATOM     11  O   UNL     1      34.740 -22.622 -17.987  0.00  0.00    -0.477 OA
ATOM     12  H   UNL     1      34.217 -22.212 -18.649  0.00  0.00    +0.295 HD
ENDBRANCH  10  11
ENDBRANCH   8  10
ENDBRANCH   1   3
BRANCH   1  13
ATOM     13  N   UNL     1      37.596 -26.348 -12.551  0.00  0.00    +0.392 N 
ATOM     14  H   UNL     1      37.888 -26.449 -11.578  0.00  0.00    -0.088 HD
ATOM     15  H   UNL     1      38.044 -27.068 -13.117  0.00  0.00    -0.088 HD
ATOM     16  H   UNL     1      36.583 -26.448 -12.612  0.00  0.00    -0.088 HD
ENDBRANCH   1  13
BRANCH   1  18
ATOM     17  O   UNL     1      38.900 -23.147 -11.765  0.00  0.00    -0.252 OA
ATOM     18  C   UNL     1      38.089 -24.064 -11.848  0.00  0.00    +0.298 C 
BRANCH  18  19
ATOM     19  O   UNL     1      37.145 -24.277 -10.895  0.00  0.00    -0.481 OA
ATOM     20  H   UNL     1      36.268 -24.493 -11.144  0.00  0.00    +0.295 HD
ENDBRANCH  18  19
ENDBRANCH   1  18
TORSDOF 6
ENDMDL
