MODEL 1
REMARK VINA RESULT:      -9.6      0.000      0.000
REMARK  Name = 1757
REMARK  10 active torsions:
REMARK  status: ('A' for Active; 'I' for Inactive)
REMARK    1  A    between atoms: C_1  and  C_2
REMARK    2  A    between atoms: C_1  and  C_15
REMARK    3  A    between atoms: C_7  and  O_8
REMARK    4  A    between atoms: O_8  and  P_9
REMARK    5  A    between atoms: P_9  and  O_11
REMARK    6  A    between atoms: P_9  and  O_13
REMARK    7  A    between atoms: C_20  and  O_21
REMARK    8  A    between atoms: O_21  and  P_22
REMARK    9  A    between atoms: P_22  and  O_24
REMARK   10  A    between atoms: P_22  and  O_26
REMARK                            x       y       z     vdW  Elec       q    Type
REMARK                         _______ _______ _______ _____ _____    ______ ____
ROOT
ATOM      1  C   UNL     1      34.129 -23.863 -12.842  0.00  0.00    +0.053 C 
ENDROOT
BRANCH   1   2
ATOM      2  C   UNL     1      33.000 -24.010 -13.804  0.00  0.00    -0.018 C 
ATOM      3  C   UNL     1      32.029 -24.989 -13.596  0.00  0.00    -0.001 C 
ATOM      4  C   UNL     1      32.914 -23.167 -14.913  0.00  0.00    -0.001 C 
ATOM      5  C   UNL     1      30.973 -25.127 -14.496  0.00  0.00    +0.037 C 
ATOM      6  C   UNL     1      31.858 -23.304 -15.813  0.00  0.00    +0.037 C 
ATOM      7  C   UNL     1      30.887 -24.283 -15.604  0.00  0.00    +0.149 C 
BRANCH   7   8
ATOM      8  O   UNL     1      29.856 -24.418 -16.484  0.00  0.00    -0.403 OA
BRANCH   8   9
ATOM      9  P   UNL     1      28.603 -23.402 -16.617  0.00  0.00    +0.528 P 
ATOM     10  O   UNL     1      28.959 -21.991 -16.988  0.00  0.00    -0.216 OA
BRANCH   9  11
ATOM     11  O   UNL     1      27.588 -24.157 -17.624  0.00  0.00    -0.293 OA
ATOM     12  H   UNL     1      27.930 -24.101 -18.530  0.00  0.00    +0.223 HD
ENDBRANCH   9  11
BRANCH   9  13
ATOM     13  O   UNL     1      27.868 -23.551 -15.183  0.00  0.00    -0.293 OA
ATOM     14  H   UNL     1      28.510 -23.395 -14.472  0.00  0.00    +0.223 HD
ENDBRANCH   9  13
ENDBRANCH   8   9
ENDBRANCH   7   8
ENDBRANCH   1   2
BRANCH   1  15
ATOM     15  C   UNL     1      35.387 -24.603 -13.252  0.00  0.00    -0.018 C 
ATOM     16  C   UNL     1      35.626 -24.834 -14.593  0.00  0.00    -0.001 C 
ATOM     17  C   UNL     1      36.265 -25.031 -12.272  0.00  0.00    -0.001 C 
ATOM     18  C   UNL     1      36.783 -25.515 -14.970  0.00  0.00    +0.037 C 
ATOM     19  C   UNL     1      37.422 -25.714 -12.649  0.00  0.00    +0.037 C 
ATOM     20  C   UNL     1      37.681 -25.955 -13.998  0.00  0.00    +0.149 C 
BRANCH  20  21
ATOM     21  O   UNL     1      38.810 -26.621 -14.366  0.00  0.00    -0.403 OA
BRANCH  21  22
ATOM     22  P   UNL     1      40.266 -25.945 -14.569  0.00  0.00    +0.528 P 
ATOM     23  O   UNL     1      40.459 -24.620 -13.891  0.00  0.00    -0.216 OA
BRANCH  22  24
ATOM     24  O   UNL     1      41.305 -27.109 -14.142  0.00  0.00    -0.293 OA
ATOM     25  H   UNL     1      41.718 -27.482 -14.936  0.00  0.00    +0.223 HD
ENDBRANCH  22  24
BRANCH  22  26
ATOM     26  O   UNL     1      40.418 -25.900 -16.180  0.00  0.00    -0.293 OA
ATOM     27  H   UNL     1      39.580 -25.613 -16.575  0.00  0.00    +0.223 HD
ENDBRANCH  22  26
ENDBRANCH  21  22
ENDBRANCH  20  21
ENDBRANCH   1  15
TORSDOF 10
ENDMDL
MODEL 2
REMARK VINA RESULT:      -9.6      0.030      8.975
REMARK  Name = 1757
REMARK  10 active torsions:
REMARK  status: ('A' for Active; 'I' for Inactive)
REMARK    1  A    between atoms: C_1  and  C_2
REMARK    2  A    between atoms: C_1  and  C_15
REMARK    3  A    between atoms: C_7  and  O_8
REMARK    4  A    between atoms: O_8  and  P_9
REMARK    5  A    between atoms: P_9  and  O_11
REMARK    6  A    between atoms: P_9  and  O_13
REMARK    7  A    between atoms: C_20  and  O_21
REMARK    8  A    between atoms: O_21  and  P_22
REMARK    9  A    between atoms: P_22  and  O_24
REMARK   10  A    between atoms: P_22  and  O_26
REMARK                            x       y       z     vdW  Elec       q    Type
REMARK                         _______ _______ _______ _____ _____    ______ ____
ROOT
ATOM      1  C   UNL     1      34.125 -23.880 -12.852  0.00  0.00    +0.053 C 
ENDROOT
BRANCH   1   2
ATOM      2  C   UNL     1      35.363 -24.605 -13.259  0.00  0.00    -0.018 C 
ATOM      3  C   UNL     1      36.268 -25.038 -12.291  0.00  0.00    -0.001 C 
ATOM      4  C   UNL     1      35.614 -24.851 -14.609  0.00  0.00    -0.001 C 
ATOM      5  C   UNL     1      37.426 -25.716 -12.672  0.00  0.00    +0.037 C 
ATOM      6  C   UNL     1      36.771 -25.530 -14.991  0.00  0.00    +0.037 C 
ATOM      7  C   UNL     1      37.677 -25.963 -14.022  0.00  0.00    +0.149 C 
BRANCH   7   8
ATOM      8  O   UNL     1      38.807 -26.625 -14.394  0.00  0.00    -0.403 OA
BRANCH   8   9
ATOM      9  P   UNL     1      40.262 -25.946 -14.600  0.00  0.00    +0.528 P 
ATOM     10  O   UNL     1      40.453 -24.621 -13.919  0.00  0.00    -0.216 OA
BRANCH   9  11
ATOM     11  O   UNL     1      41.303 -27.108 -14.176  0.00  0.00    -0.293 OA
ATOM     12  H   UNL     1      41.895 -27.299 -14.920  0.00  0.00    +0.223 HD
ENDBRANCH   9  11
BRANCH   9  13
ATOM     13  O   UNL     1      40.409 -25.897 -16.211  0.00  0.00    -0.293 OA
ATOM     14  H   UNL     1      39.555 -26.109 -16.620  0.00  0.00    +0.223 HD
ENDBRANCH   9  13
ENDBRANCH   8   9
ENDBRANCH   7   8
ENDBRANCH   1   2
BRANCH   1  15
ATOM     15  C   UNL     1      32.977 -24.023 -13.831  0.00  0.00    -0.018 C 
ATOM     16  C   UNL     1      32.002 -24.973 -13.591  0.00  0.00    -0.001 C 
ATOM     17  C   UNL     1      32.934 -23.200 -14.942  0.00  0.00    -0.001 C 
ATOM     18  C   UNL     1      30.946 -25.106 -14.492  0.00  0.00    +0.037 C 
ATOM     19  C   UNL     1      31.878 -23.333 -15.843  0.00  0.00    +0.037 C 
ATOM     20  C   UNL     1      30.884 -24.286 -15.619  0.00  0.00    +0.149 C 
BRANCH  20  21
ATOM     21  O   UNL     1      29.854 -24.415 -16.498  0.00  0.00    -0.403 OA
BRANCH  21  22
ATOM     22  P   UNL     1      28.601 -23.398 -16.624  0.00  0.00    +0.528 P 
ATOM     23  O   UNL     1      28.957 -21.981 -16.968  0.00  0.00    -0.216 OA
BRANCH  22  24
ATOM     24  O   UNL     1      27.594 -24.138 -17.651  0.00  0.00    -0.293 OA
ATOM     25  H   UNL     1      27.384 -25.024 -17.317  0.00  0.00    +0.223 HD
ENDBRANCH  22  24
BRANCH  22  26
ATOM     26  O   UNL     1      27.855 -23.572 -15.199  0.00  0.00    -0.293 OA
ATOM     27  H   UNL     1      28.515 -23.722 -14.504  0.00  0.00    +0.223 HD
ENDBRANCH  22  26
ENDBRANCH  21  22
ENDBRANCH  20  21
ENDBRANCH   1  15
TORSDOF 10
ENDMDL
MODEL 3
REMARK VINA RESULT:      -9.1      9.476     11.298
REMARK  Name = 1757
REMARK  10 active torsions:
REMARK  status: ('A' for Active; 'I' for Inactive)
REMARK    1  A    between atoms: C_1  and  C_2
REMARK    2  A    between atoms: C_1  and  C_15
REMARK    3  A    between atoms: C_7  and  O_8
REMARK    4  A    between atoms: O_8  and  P_9
REMARK    5  A    between atoms: P_9  and  O_11
REMARK    6  A    between atoms: P_9  and  O_13
REMARK    7  A    between atoms: C_20  and  O_21
REMARK    8  A    between atoms: O_21  and  P_22
REMARK    9  A    between atoms: P_22  and  O_24
REMARK   10  A    between atoms: P_22  and  O_26
REMARK                            x       y       z     vdW  Elec       q    Type
REMARK                         _______ _______ _______ _____ _____    ______ ____
ROOT
ATOM      1  C   UNL     1      36.087 -18.244 -22.142  0.00  0.00    +0.053 C 
ENDROOT
BRANCH   1   2
ATOM      2  C   UNL     1      35.315 -17.561 -23.219  0.00  0.00    -0.018 C 
ATOM      3  C   UNL     1      34.951 -16.223 -23.075  0.00  0.00    -0.001 C 
ATOM      4  C   UNL     1      34.959 -18.260 -24.373  0.00  0.00    -0.001 C 
ATOM      5  C   UNL     1      34.228 -15.583 -24.082  0.00  0.00    +0.037 C 
ATOM      6  C   UNL     1      34.237 -17.622 -25.381  0.00  0.00    +0.037 C 
ATOM      7  C   UNL     1      33.873 -16.283 -25.236  0.00  0.00    +0.149 C 
BRANCH   7   8
ATOM      8  O   UNL     1      33.167 -15.659 -26.220  0.00  0.00    -0.403 OA
BRANCH   8   9
ATOM      9  P   UNL     1      33.115 -14.060 -26.461  0.00  0.00    +0.528 P 
ATOM     10  O   UNL     1      33.421 -13.219 -25.254  0.00  0.00    -0.216 OA
BRANCH   9  11
ATOM     11  O   UNL     1      34.073 -13.822 -27.742  0.00  0.00    -0.293 OA
ATOM     12  H   UNL     1      34.824 -13.264 -27.485  0.00  0.00    +0.223 HD
ENDBRANCH   9  11
BRANCH   9  13
ATOM     13  O   UNL     1      31.633 -13.838 -27.071  0.00  0.00    -0.293 OA
ATOM     14  H   UNL     1      31.062 -13.438 -26.396  0.00  0.00    +0.223 HD
ENDBRANCH   9  13
ENDBRANCH   8   9
ENDBRANCH   7   8
ENDBRANCH   1   2
BRANCH   1  15
ATOM     15  C   UNL     1      35.264 -19.212 -21.315  0.00  0.00    -0.018 C 
ATOM     16  C   UNL     1      33.887 -19.095 -21.314  0.00  0.00    -0.001 C 
ATOM     17  C   UNL     1      35.912 -20.189 -20.581  0.00  0.00    -0.001 C 
ATOM     18  C   UNL     1      33.130 -19.985 -20.553  0.00  0.00    +0.037 C 
ATOM     19  C   UNL     1      35.155 -21.079 -19.819  0.00  0.00    +0.037 C 
ATOM     20  C   UNL     1      33.764 -20.977 -19.805  0.00  0.00    +0.149 C 
BRANCH  20  21
ATOM     21  O   UNL     1      33.025 -21.846 -19.062  0.00  0.00    -0.403 OA
BRANCH  21  22
ATOM     22  P   UNL     1      33.628 -23.010 -18.113  0.00  0.00    +0.528 P 
ATOM     23  O   UNL     1      34.901 -22.659 -17.398  0.00  0.00    -0.216 OA
BRANCH  22  24
ATOM     24  O   UNL     1      32.386 -23.432 -17.168  0.00  0.00    -0.293 OA
ATOM     25  H   UNL     1      31.871 -22.643 -16.939  0.00  0.00    +0.223 HD
ENDBRANCH  22  24
BRANCH  22  26
ATOM     26  O   UNL     1      33.756 -24.266 -19.126  0.00  0.00    -0.293 OA
ATOM     27  H   UNL     1      34.689 -24.411 -19.345  0.00  0.00    +0.223 HD
ENDBRANCH  22  26
ENDBRANCH  21  22
ENDBRANCH  20  21
ENDBRANCH   1  15
TORSDOF 10
ENDMDL
MODEL 4
REMARK VINA RESULT:      -9.1      5.896      8.302
REMARK  Name = 1757
REMARK  10 active torsions:
REMARK  status: ('A' for Active; 'I' for Inactive)
REMARK    1  A    between atoms: C_1  and  C_2
REMARK    2  A    between atoms: C_1  and  C_15
REMARK    3  A    between atoms: C_7  and  O_8
REMARK    4  A    between atoms: O_8  and  P_9
REMARK    5  A    between atoms: P_9  and  O_11
REMARK    6  A    between atoms: P_9  and  O_13
REMARK    7  A    between atoms: C_20  and  O_21
REMARK    8  A    between atoms: O_21  and  P_22
REMARK    9  A    between atoms: P_22  and  O_24
REMARK   10  A    between atoms: P_22  and  O_26
REMARK                            x       y       z     vdW  Elec       q    Type
REMARK                         _______ _______ _______ _____ _____    ______ ____
ROOT
ATOM      1  C   UNL     1      34.952 -22.596 -18.952  0.00  0.00    +0.053 C 
ENDROOT
BRANCH   1   2
ATOM      2  C   UNL     1      34.093 -22.794 -17.750  0.00  0.00    -0.018 C 
ATOM      3  C   UNL     1      34.679 -22.957 -16.495  0.00  0.00    -0.001 C 
ATOM      4  C   UNL     1      32.704 -22.816 -17.879  0.00  0.00    -0.001 C 
ATOM      5  C   UNL     1      33.876 -23.143 -15.369  0.00  0.00    +0.037 C 
ATOM      6  C   UNL     1      31.901 -23.001 -16.754  0.00  0.00    +0.037 C 
ATOM      7  C   UNL     1      32.488 -23.164 -15.498  0.00  0.00    +0.149 C 
BRANCH   7   8
ATOM      8  O   UNL     1      31.704 -23.345 -14.400  0.00  0.00    -0.403 OA
BRANCH   8   9
ATOM      9  P   UNL     1      31.260 -24.780 -13.796  0.00  0.00    +0.528 P 
ATOM     10  O   UNL     1      30.578 -25.701 -14.767  0.00  0.00    -0.216 OA
BRANCH   9  11
ATOM     11  O   UNL     1      32.609 -25.356 -13.114  0.00  0.00    -0.293 OA
ATOM     12  H   UNL     1      32.726 -26.286 -13.364  0.00  0.00    +0.223 HD
ENDBRANCH   9  11
BRANCH   9  13
ATOM     13  O   UNL     1      30.356 -24.367 -12.520  0.00  0.00    -0.293 OA
ATOM     14  H   UNL     1      29.417 -24.448 -12.749  0.00  0.00    +0.223 HD
ENDBRANCH   9  13
ENDBRANCH   8   9
ENDBRANCH   7   8
ENDBRANCH   1   2
BRANCH   1  15
ATOM     15  C   UNL     1      34.645 -21.328 -19.724  0.00  0.00    -0.018 C 
ATOM     16  C   UNL     1      33.328 -20.939 -19.885  0.00  0.00    -0.001 C 
ATOM     17  C   UNL     1      35.691 -20.591 -20.250  0.00  0.00    -0.001 C 
ATOM     18  C   UNL     1      33.046 -19.773 -20.596  0.00  0.00    +0.037 C 
ATOM     19  C   UNL     1      35.408 -19.424 -20.961  0.00  0.00    +0.037 C 
ATOM     20  C   UNL     1      34.086 -19.015 -21.134  0.00  0.00    +0.149 C 
BRANCH  20  21
ATOM     21  O   UNL     1      33.811 -17.877 -21.828  0.00  0.00    -0.403 OA
BRANCH  21  22
ATOM     22  P   UNL     1      34.590 -16.469 -21.658  0.00  0.00    +0.528 P 
ATOM     23  O   UNL     1      35.120 -16.191 -20.281  0.00  0.00    -0.216 OA
BRANCH  22  24
ATOM     24  O   UNL     1      35.690 -16.482 -22.844  0.00  0.00    -0.293 OA
ATOM     25  H   UNL     1      35.527 -15.738 -23.445  0.00  0.00    +0.223 HD
ENDBRANCH  22  24
BRANCH  22  26
ATOM     26  O   UNL     1      33.503 -15.393 -22.185  0.00  0.00    -0.293 OA
ATOM     27  H   UNL     1      32.712 -15.859 -22.497  0.00  0.00    +0.223 HD
ENDBRANCH  22  26
ENDBRANCH  21  22
ENDBRANCH  20  21
ENDBRANCH   1  15
TORSDOF 10
ENDMDL
MODEL 5
REMARK VINA RESULT:      -9.1      9.515     12.335
REMARK  Name = 1757
REMARK  10 active torsions:
REMARK  status: ('A' for Active; 'I' for Inactive)
REMARK    1  A    between atoms: C_1  and  C_2
REMARK    2  A    between atoms: C_1  and  C_15
REMARK    3  A    between atoms: C_7  and  O_8
REMARK    4  A    between atoms: O_8  and  P_9
REMARK    5  A    between atoms: P_9  and  O_11
REMARK    6  A    between atoms: P_9  and  O_13
REMARK    7  A    between atoms: C_20  and  O_21
REMARK    8  A    between atoms: O_21  and  P_22
REMARK    9  A    between atoms: P_22  and  O_24
REMARK   10  A    between atoms: P_22  and  O_26
REMARK                            x       y       z     vdW  Elec       q    Type
REMARK                         _______ _______ _______ _____ _____    ______ ____
ROOT
ATOM      1  C   UNL     1      36.110 -18.243 -22.213  0.00  0.00    +0.053 C 
ENDROOT
BRANCH   1   2
ATOM      2  C   UNL     1      35.310 -19.176 -21.370  0.00  0.00    -0.018 C 
ATOM      3  C   UNL     1      35.951 -20.162 -20.621  0.00  0.00    -0.001 C 
ATOM      4  C   UNL     1      33.920 -19.063 -21.330  0.00  0.00    -0.001 C 
ATOM      5  C   UNL     1      35.202 -21.037 -19.832  0.00  0.00    +0.037 C 
ATOM      6  C   UNL     1      33.171 -19.936 -20.541  0.00  0.00    +0.037 C 
ATOM      7  C   UNL     1      33.813 -20.923 -19.791  0.00  0.00    +0.149 C 
BRANCH   7   8
ATOM      8  O   UNL     1      33.082 -21.775 -19.022  0.00  0.00    -0.403 OA
BRANCH   8   9
ATOM      9  P   UNL     1      33.689 -22.983 -18.131  0.00  0.00    +0.528 P 
ATOM     10  O   UNL     1      34.972 -22.670 -17.417  0.00  0.00    -0.216 OA
BRANCH   9  11
ATOM     11  O   UNL     1      32.455 -23.438 -17.190  0.00  0.00    -0.293 OA
ATOM     12  H   UNL     1      31.765 -22.757 -17.210  0.00  0.00    +0.223 HD
ENDBRANCH   9  11
BRANCH   9  13
ATOM     13  O   UNL     1      33.796 -24.195 -19.198  0.00  0.00    -0.293 OA
ATOM     14  H   UNL     1      34.083 -25.002 -18.742  0.00  0.00    +0.223 HD
ENDBRANCH   9  13
ENDBRANCH   8   9
ENDBRANCH   7   8
ENDBRANCH   1   2
BRANCH   1  15
ATOM     15  C   UNL     1      35.306 -17.547 -23.293  0.00  0.00    -0.018 C 
ATOM     16  C   UNL     1      34.939 -18.256 -24.422  0.00  0.00    -0.001 C 
ATOM     17  C   UNL     1      34.960 -16.219 -23.123  0.00  0.00    -0.001 C 
ATOM     18  C   UNL     1      34.199 -17.615 -25.416  0.00  0.00    +0.037 C 
ATOM     19  C   UNL     1      34.221 -15.578 -24.118  0.00  0.00    +0.037 C 
ATOM     20  C   UNL     1      33.840 -16.276 -25.264  0.00  0.00    +0.149 C 
BRANCH  20  21
ATOM     21  O   UNL     1      33.119 -15.651 -26.234  0.00  0.00    -0.403 OA
BRANCH  21  22
ATOM     22  P   UNL     1      33.110 -14.056 -26.509  0.00  0.00    +0.528 P 
ATOM     23  O   UNL     1      33.453 -13.199 -25.325  0.00  0.00    -0.216 OA
BRANCH  22  24
ATOM     24  O   UNL     1      34.059 -13.874 -27.806  0.00  0.00    -0.293 OA
ATOM     25  H   UNL     1      34.983 -13.790 -27.522  0.00  0.00    +0.223 HD
ENDBRANCH  22  24
BRANCH  22  26
ATOM     26  O   UNL     1      31.628 -13.805 -27.108  0.00  0.00    -0.293 OA
ATOM     27  H   UNL     1      31.081 -13.359 -26.442  0.00  0.00    +0.223 HD
ENDBRANCH  22  26
ENDBRANCH  21  22
ENDBRANCH  20  21
ENDBRANCH   1  15
TORSDOF 10
ENDMDL
MODEL 6
REMARK VINA RESULT:      -9.1      6.177      7.371
REMARK  Name = 1757
REMARK  10 active torsions:
REMARK  status: ('A' for Active; 'I' for Inactive)
REMARK    1  A    between atoms: C_1  and  C_2
REMARK    2  A    between atoms: C_1  and  C_15
REMARK    3  A    between atoms: C_7  and  O_8
REMARK    4  A    between atoms: O_8  and  P_9
REMARK    5  A    between atoms: P_9  and  O_11
REMARK    6  A    between atoms: P_9  and  O_13
REMARK    7  A    between atoms: C_20  and  O_21
REMARK    8  A    between atoms: O_21  and  P_22
REMARK    9  A    between atoms: P_22  and  O_24
REMARK   10  A    between atoms: P_22  and  O_26
REMARK                            x       y       z     vdW  Elec       q    Type
REMARK                         _______ _______ _______ _____ _____    ______ ____
ROOT
ATOM      1  C   UNL     1      33.751 -22.132 -19.499  0.00  0.00    +0.053 C 
ENDROOT
BRANCH   1   2
ATOM      2  C   UNL     1      33.937 -20.817 -20.176  0.00  0.00    -0.018 C 
ATOM      3  C   UNL     1      35.203 -20.435 -20.620  0.00  0.00    -0.001 C 
ATOM      4  C   UNL     1      32.846 -19.968 -20.366  0.00  0.00    -0.001 C 
ATOM      5  C   UNL     1      35.378 -19.204 -21.254  0.00  0.00    +0.037 C 
ATOM      6  C   UNL     1      33.021 -18.738 -20.999  0.00  0.00    +0.037 C 
ATOM      7  C   UNL     1      34.287 -18.357 -21.444  0.00  0.00    +0.149 C 
BRANCH   7   8
ATOM      8  O   UNL     1      34.458 -17.155 -22.061  0.00  0.00    -0.403 OA
BRANCH   8   9
ATOM      9  P   UNL     1      34.290 -15.710 -21.354  0.00  0.00    +0.528 P 
ATOM     10  O   UNL     1      34.901 -15.590 -19.987  0.00  0.00    -0.216 OA
BRANCH   9  11
ATOM     11  O   UNL     1      34.835 -14.663 -22.460  0.00  0.00    -0.293 OA
ATOM     12  H   UNL     1      34.085 -14.280 -22.941  0.00  0.00    +0.223 HD
ENDBRANCH   9  11
BRANCH   9  13
ATOM     13  O   UNL     1      32.689 -15.476 -21.393  0.00  0.00    -0.293 OA
ATOM     14  H   UNL     1      32.269 -15.998 -20.691  0.00  0.00    +0.223 HD
ENDBRANCH   9  13
ENDBRANCH   8   9
ENDBRANCH   7   8
ENDBRANCH   1   2
BRANCH   1  15
ATOM     15  C   UNL     1      34.636 -22.329 -18.284  0.00  0.00    -0.018 C 
ATOM     16  C   UNL     1      35.941 -21.876 -18.321  0.00  0.00    -0.001 C 
ATOM     17  C   UNL     1      34.115 -22.959 -17.168  0.00  0.00    -0.001 C 
ATOM     18  C   UNL     1      36.755 -22.058 -17.203  0.00  0.00    +0.037 C 
ATOM     19  C   UNL     1      34.929 -23.142 -16.050  0.00  0.00    +0.037 C 
ATOM     20  C   UNL     1      36.249 -22.691 -16.068  0.00  0.00    +0.149 C 
BRANCH  20  21
ATOM     21  O   UNL     1      37.044 -22.869 -14.977  0.00  0.00    -0.403 OA
BRANCH  21  22
ATOM     22  P   UNL     1      37.988 -24.156 -14.711  0.00  0.00    +0.528 P 
ATOM     23  O   UNL     1      38.379 -24.379 -13.278  0.00  0.00    -0.216 OA
BRANCH  22  24
ATOM     24  O   UNL     1      37.201 -25.377 -15.422  0.00  0.00    -0.293 OA
ATOM     25  H   UNL     1      36.710 -25.043 -16.188  0.00  0.00    +0.223 HD
ENDBRANCH  22  24
BRANCH  22  26
ATOM     26  O   UNL     1      39.234 -23.898 -15.711  0.00  0.00    -0.293 OA
ATOM     27  H   UNL     1      39.678 -24.740 -15.898  0.00  0.00    +0.223 HD
ENDBRANCH  22  26
ENDBRANCH  21  22
ENDBRANCH  20  21
ENDBRANCH   1  15
TORSDOF 10
ENDMDL
MODEL 7
REMARK VINA RESULT:      -9.1      6.142      9.774
REMARK  Name = 1757
REMARK  10 active torsions:
REMARK  status: ('A' for Active; 'I' for Inactive)
REMARK    1  A    between atoms: C_1  and  C_2
REMARK    2  A    between atoms: C_1  and  C_15
REMARK    3  A    between atoms: C_7  and  O_8
REMARK    4  A    between atoms: O_8  and  P_9
REMARK    5  A    between atoms: P_9  and  O_11
REMARK    6  A    between atoms: P_9  and  O_13
REMARK    7  A    between atoms: C_20  and  O_21
REMARK    8  A    between atoms: O_21  and  P_22
REMARK    9  A    between atoms: P_22  and  O_24
REMARK   10  A    between atoms: P_22  and  O_26
REMARK                            x       y       z     vdW  Elec       q    Type
REMARK                         _______ _______ _______ _____ _____    ______ ____
ROOT
ATOM      1  C   UNL     1      33.745 -22.182 -19.499  0.00  0.00    +0.053 C 
ENDROOT
BRANCH   1   2
ATOM      2  C   UNL     1      34.609 -22.370 -18.298  0.00  0.00    -0.018 C 
ATOM      3  C   UNL     1      34.100 -23.006 -17.167  0.00  0.00    -0.001 C 
ATOM      4  C   UNL     1      35.926 -21.910 -18.307  0.00  0.00    -0.001 C 
ATOM      5  C   UNL     1      34.907 -23.182 -16.043  0.00  0.00    +0.037 C 
ATOM      6  C   UNL     1      36.734 -22.086 -17.184  0.00  0.00    +0.037 C 
ATOM      7  C   UNL     1      36.224 -22.723 -16.052  0.00  0.00    +0.149 C 
BRANCH   7   8
ATOM      8  O   UNL     1      37.013 -22.894 -14.955  0.00  0.00    -0.403 OA
BRANCH   8   9
ATOM      9  P   UNL     1      37.975 -24.167 -14.686  0.00  0.00    +0.528 P 
ATOM     10  O   UNL     1      38.362 -24.386 -13.251  0.00  0.00    -0.216 OA
BRANCH   9  11
ATOM     11  O   UNL     1      37.210 -25.399 -15.402  0.00  0.00    -0.293 OA
ATOM     12  H   UNL     1      36.552 -25.053 -16.025  0.00  0.00    +0.223 HD
ENDBRANCH   9  11
BRANCH   9  13
ATOM     13  O   UNL     1      39.222 -23.889 -15.679  0.00  0.00    -0.293 OA
ATOM     14  H   UNL     1      38.919 -23.373 -16.443  0.00  0.00    +0.223 HD
ENDBRANCH   9  13
ENDBRANCH   8   9
ENDBRANCH   7   8
ENDBRANCH   1   2
BRANCH   1  15
ATOM     15  C   UNL     1      33.914 -20.835 -20.173  0.00  0.00    -0.018 C 
ATOM     16  C   UNL     1      32.810 -20.018 -20.332  0.00  0.00    -0.001 C 
ATOM     17  C   UNL     1      35.169 -20.455 -20.613  0.00  0.00    -0.001 C 
ATOM     18  C   UNL     1      32.965 -18.778 -20.952  0.00  0.00    +0.037 C 
ATOM     19  C   UNL     1      35.324 -19.216 -21.234  0.00  0.00    +0.037 C 
ATOM     20  C   UNL     1      34.222 -18.377 -21.404  0.00  0.00    +0.149 C 
BRANCH  20  21
ATOM     21  O   UNL     1      34.374 -17.168 -22.009  0.00  0.00    -0.403 OA
BRANCH  21  22
ATOM     22  P   UNL     1      34.301 -15.735 -21.262  0.00  0.00    +0.528 P 
ATOM     23  O   UNL     1      34.936 -15.688 -19.902  0.00  0.00    -0.216 OA
BRANCH  22  24
ATOM     24  O   UNL     1      34.891 -14.692 -22.348  0.00  0.00    -0.293 OA
ATOM     25  H   UNL     1      34.811 -13.788 -22.006  0.00  0.00    +0.223 HD
ENDBRANCH  22  24
BRANCH  22  26
ATOM     26  O   UNL     1      32.716 -15.407 -21.270  0.00  0.00    -0.293 OA
ATOM     27  H   UNL     1      32.402 -15.308 -20.357  0.00  0.00    +0.223 HD
ENDBRANCH  22  26
ENDBRANCH  21  22
ENDBRANCH  20  21
ENDBRANCH   1  15
TORSDOF 10
ENDMDL
MODEL 8
REMARK VINA RESULT:      -9.0      6.147      7.384
REMARK  Name = 1757
REMARK  10 active torsions:
REMARK  status: ('A' for Active; 'I' for Inactive)
REMARK    1  A    between atoms: C_1  and  C_2
REMARK    2  A    between atoms: C_1  and  C_15
REMARK    3  A    between atoms: C_7  and  O_8
REMARK    4  A    between atoms: O_8  and  P_9
REMARK    5  A    between atoms: P_9  and  O_11
REMARK    6  A    between atoms: P_9  and  O_13
REMARK    7  A    between atoms: C_20  and  O_21
REMARK    8  A    between atoms: O_21  and  P_22
REMARK    9  A    between atoms: P_22  and  O_24
REMARK   10  A    between atoms: P_22  and  O_26
REMARK                            x       y       z     vdW  Elec       q    Type
REMARK                         _______ _______ _______ _____ _____    ______ ____
ROOT
ATOM      1  C   UNL     1      33.917 -22.209 -19.484  0.00  0.00    +0.053 C 
ENDROOT
BRANCH   1   2
ATOM      2  C   UNL     1      34.104 -20.886 -20.145  0.00  0.00    -0.018 C 
ATOM      3  C   UNL     1      33.007 -20.051 -20.357  0.00  0.00    -0.001 C 
ATOM      4  C   UNL     1      35.377 -20.482 -20.550  0.00  0.00    -0.001 C 
ATOM      5  C   UNL     1      33.182 -18.813 -20.975  0.00  0.00    +0.037 C 
ATOM      6  C   UNL     1      35.552 -19.244 -21.167  0.00  0.00    +0.037 C 
ATOM      7  C   UNL     1      34.455 -18.409 -21.379  0.00  0.00    +0.149 C 
BRANCH   7   8
ATOM      8  O   UNL     1      34.626 -17.201 -21.983  0.00  0.00    -0.403 OA
BRANCH   8   9
ATOM      9  P   UNL     1      34.135 -15.779 -21.384  0.00  0.00    +0.528 P 
ATOM     10  O   UNL     1      32.647 -15.608 -21.278  0.00  0.00    -0.216 OA
BRANCH   9  11
ATOM     11  O   UNL     1      34.958 -15.629 -20.000  0.00  0.00    -0.293 OA
ATOM     12  H   UNL     1      34.461 -16.050 -19.281  0.00  0.00    +0.223 HD
ENDBRANCH   9  11
BRANCH   9  13
ATOM     13  O   UNL     1      34.864 -14.711 -22.356  0.00  0.00    -0.293 OA
ATOM     14  H   UNL     1      35.375 -14.084 -21.822  0.00  0.00    +0.223 HD
ENDBRANCH   9  13
ENDBRANCH   8   9
ENDBRANCH   7   8
ENDBRANCH   1   2
BRANCH   1  15
ATOM     15  C   UNL     1      34.739 -22.389 -18.224  0.00  0.00    -0.018 C 
ATOM     16  C   UNL     1      36.029 -21.894 -18.184  0.00  0.00    -0.001 C 
ATOM     17  C   UNL     1      34.178 -23.046 -17.143  0.00  0.00    -0.001 C 
ATOM     18  C   UNL     1      36.785 -22.059 -17.024  0.00  0.00    +0.037 C 
ATOM     19  C   UNL     1      34.935 -23.213 -15.983  0.00  0.00    +0.037 C 
ATOM     20  C   UNL     1      36.238 -22.719 -15.923  0.00  0.00    +0.149 C 
BRANCH  20  21
ATOM     21  O   UNL     1      36.976 -22.881 -14.792  0.00  0.00    -0.403 OA
BRANCH  21  22
ATOM     22  P   UNL     1      37.777 -24.228 -14.385  0.00  0.00    +0.528 P 
ATOM     23  O   UNL     1      36.957 -25.485 -14.381  0.00  0.00    -0.216 OA
BRANCH  22  24
ATOM     24  O   UNL     1      39.064 -24.233 -15.364  0.00  0.00    -0.293 OA
ATOM     25  H   UNL     1      39.545 -23.395 -15.271  0.00  0.00    +0.223 HD
ENDBRANCH  22  24
BRANCH  22  26
ATOM     26  O   UNL     1      38.416 -23.843 -12.949  0.00  0.00    -0.293 OA
ATOM     27  H   UNL     1      37.708 -23.587 -12.337  0.00  0.00    +0.223 HD
ENDBRANCH  22  26
ENDBRANCH  21  22
ENDBRANCH  20  21
ENDBRANCH   1  15
TORSDOF 10
ENDMDL
MODEL 9
REMARK VINA RESULT:      -9.0      6.808      8.136
REMARK  Name = 1757
REMARK  10 active torsions:
REMARK  status: ('A' for Active; 'I' for Inactive)
REMARK    1  A    between atoms: C_1  and  C_2
REMARK    2  A    between atoms: C_1  and  C_15
REMARK    3  A    between atoms: C_7  and  O_8
REMARK    4  A    between atoms: O_8  and  P_9
REMARK    5  A    between atoms: P_9  and  O_11
REMARK    6  A    between atoms: P_9  and  O_13
REMARK    7  A    between atoms: C_20  and  O_21
REMARK    8  A    between atoms: O_21  and  P_22
REMARK    9  A    between atoms: P_22  and  O_24
REMARK   10  A    between atoms: P_22  and  O_26
REMARK                            x       y       z     vdW  Elec       q    Type
REMARK                         _______ _______ _______ _____ _____    ______ ____
ROOT
ATOM      1  C   UNL     1      36.172 -21.523 -20.061  0.00  0.00    +0.053 C 
ENDROOT
BRANCH   1   2
ATOM      2  C   UNL     1      35.548 -20.259 -20.546  0.00  0.00    -0.018 C 
ATOM      3  C   UNL     1      34.159 -20.138 -20.585  0.00  0.00    -0.001 C 
ATOM      4  C   UNL     1      36.352 -19.196 -20.958  0.00  0.00    -0.001 C 
ATOM      5  C   UNL     1      33.574 -18.956 -21.039  0.00  0.00    +0.037 C 
ATOM      6  C   UNL     1      35.768 -18.014 -21.411  0.00  0.00    +0.037 C 
ATOM      7  C   UNL     1      34.378 -17.893 -21.451  0.00  0.00    +0.149 C 
BRANCH   7   8
ATOM      8  O   UNL     1      33.808 -16.739 -21.894  0.00  0.00    -0.403 OA
BRANCH   8   9
ATOM      9  P   UNL     1      34.163 -15.255 -21.356  0.00  0.00    +0.528 P 
ATOM     10  O   UNL     1      34.930 -15.208 -20.065  0.00  0.00    -0.216 OA
BRANCH   9  11
ATOM     11  O   UNL     1      34.873 -14.536 -22.619  0.00  0.00    -0.293 OA
ATOM     12  H   UNL     1      35.801 -14.813 -22.669  0.00  0.00    +0.223 HD
ENDBRANCH   9  11
BRANCH   9  13
ATOM     13  O   UNL     1      32.714 -14.539 -21.298  0.00  0.00    -0.293 OA
ATOM     14  H   UNL     1      32.122 -14.955 -21.945  0.00  0.00    +0.223 HD
ENDBRANCH   9  13
ENDBRANCH   8   9
ENDBRANCH   7   8
ENDBRANCH   1   2
BRANCH   1  15
ATOM     15  C   UNL     1      35.624 -22.011 -18.735  0.00  0.00    -0.018 C 
ATOM     16  C   UNL     1      36.415 -21.924 -17.605  0.00  0.00    -0.001 C 
ATOM     17  C   UNL     1      34.344 -22.533 -18.688  0.00  0.00    -0.001 C 
ATOM     18  C   UNL     1      35.910 -22.373 -16.385  0.00  0.00    +0.037 C 
ATOM     19  C   UNL     1      33.839 -22.983 -17.468  0.00  0.00    +0.037 C 
ATOM     20  C   UNL     1      34.622 -22.903 -16.317  0.00  0.00    +0.149 C 
BRANCH  20  21
ATOM     21  O   UNL     1      34.130 -23.342 -15.126  0.00  0.00    -0.403 OA
BRANCH  21  22
ATOM     22  P   UNL     1      34.947 -24.231 -14.049  0.00  0.00    +0.528 P 
ATOM     23  O   UNL     1      35.806 -25.315 -14.632  0.00  0.00    -0.216 OA
BRANCH  22  24
ATOM     24  O   UNL     1      35.718 -23.138 -13.140  0.00  0.00    -0.293 OA
ATOM     25  H   UNL     1      36.529 -23.530 -12.780  0.00  0.00    +0.223 HD
ENDBRANCH  22  24
BRANCH  22  26
ATOM     26  O   UNL     1      33.779 -24.762 -13.063  0.00  0.00    -0.293 OA
ATOM     27  H   UNL     1      34.084 -24.710 -12.143  0.00  0.00    +0.223 HD
ENDBRANCH  22  26
ENDBRANCH  21  22
ENDBRANCH  20  21
ENDBRANCH   1  15
TORSDOF 10
ENDMDL
