MODEL 1
REMARK VINA RESULT:      -7.5      0.000      0.000
REMARK  Name = 3519
REMARK  4 active torsions:
REMARK  status: ('A' for Active; 'I' for Inactive)
REMARK    1  A    between atoms: C_2  and  N_3
REMARK    2  A    between atoms: C_2  and  C_11
REMARK    3  A    between atoms: N_3  and  C_6
REMARK    4  A    between atoms: C_11  and  C_14
REMARK                            x       y       z     vdW  Elec       q    Type
REMARK                         _______ _______ _______ _____ _____    ______ ____
ROOT
ATOM      1  O   UNL     1      37.231 -20.572 -17.510  0.00  0.00    -0.273 OA
ATOM      2  C   UNL     1      36.613 -21.572 -17.869  0.00  0.00    +0.252 C 
ENDROOT
BRANCH   2   3
ATOM      3  N   UNL     1      36.082 -22.524 -17.025  0.00  0.00    -0.147 NA
BRANCH   3   6
ATOM      4  N   UNL     1      36.307 -23.046 -14.686  0.00  0.00    -0.372 N 
ATOM      5  N   UNL     1      38.116 -23.143 -16.073  0.00  0.00    -0.372 N 
ATOM      6  C   UNL     1      36.769 -22.886 -15.973  0.00  0.00    +0.184 C 
ATOM      7  H   UNL     1      35.356 -22.891 -14.481  0.00  0.00    +0.159 HD
ATOM      8  H   UNL     1      36.927 -23.317 -13.970  0.00  0.00    +0.159 HD
ATOM      9  H   UNL     1      38.569 -23.064 -16.943  0.00  0.00    +0.159 HD
ATOM     10  H   UNL     1      38.627 -23.407 -15.273  0.00  0.00    +0.159 HD
ENDBRANCH   3   6
ENDBRANCH   2   3
BRANCH   2  11
ATOM     11  C   UNL     1      36.290 -21.856 -19.324  0.00  0.00    +0.115 C 
BRANCH  11  14
ATOM     12 CL   UNL     1      37.227 -19.397 -20.871  0.00  0.00    -0.083 Cl
ATOM     13 CL   UNL     1      33.398 -22.675 -18.792  0.00  0.00    -0.083 Cl
ATOM     14  C   UNL     1      35.218 -20.958 -19.882  0.00  0.00    +0.008 C 
ATOM     15  C   UNL     1      35.575 -19.820 -20.598  0.00  0.00    +0.055 C 
ATOM     16  C   UNL     1      33.878 -21.272 -19.676  0.00  0.00    +0.055 C 
ATOM     17  C   UNL     1      34.582 -18.989 -21.116  0.00  0.00    +0.011 C 
ATOM     18  C   UNL     1      32.885 -20.440 -20.193  0.00  0.00    +0.011 C 
ATOM     19  C   UNL     1      33.237 -19.298 -20.914  0.00  0.00    +0.002 C 
ENDBRANCH  11  14
ENDBRANCH   2  11
TORSDOF 4
ENDMDL
MODEL 2
REMARK VINA RESULT:      -7.4      0.011      2.349
REMARK  Name = 3519
REMARK  4 active torsions:
REMARK  status: ('A' for Active; 'I' for Inactive)
REMARK    1  A    between atoms: C_2  and  N_3
REMARK    2  A    between atoms: C_2  and  C_11
REMARK    3  A    between atoms: N_3  and  C_6
REMARK    4  A    between atoms: C_11  and  C_14
REMARK                            x       y       z     vdW  Elec       q    Type
REMARK                         _______ _______ _______ _____ _____    ______ ____
ROOT
ATOM      1  O   UNL     1      37.226 -20.564 -17.503  0.00  0.00    -0.273 OA
ATOM      2  C   UNL     1      36.616 -21.567 -17.865  0.00  0.00    +0.252 C 
ENDROOT
BRANCH   2   3
ATOM      3  N   UNL     1      36.091 -22.526 -17.024  0.00  0.00    -0.147 NA
BRANCH   3   6
ATOM      4  N   UNL     1      36.324 -23.043 -14.685  0.00  0.00    -0.372 N 
ATOM      5  N   UNL     1      38.128 -23.149 -16.079  0.00  0.00    -0.372 N 
ATOM      6  C   UNL     1      36.781 -22.888 -15.974  0.00  0.00    +0.184 C 
ATOM      7  H   UNL     1      35.375 -22.884 -14.477  0.00  0.00    +0.159 HD
ATOM      8  H   UNL     1      36.946 -23.313 -13.971  0.00  0.00    +0.159 HD
ATOM      9  H   UNL     1      38.577 -23.074 -16.951  0.00  0.00    +0.159 HD
ATOM     10  H   UNL     1      38.641 -23.413 -15.281  0.00  0.00    +0.159 HD
ENDBRANCH   3   6
ENDBRANCH   2   3
BRANCH   2  11
ATOM     11  C   UNL     1      36.297 -21.850 -19.321  0.00  0.00    +0.115 C 
BRANCH  11  14
ATOM     12 CL   UNL     1      33.405 -22.671 -18.796  0.00  0.00    -0.083 Cl
ATOM     13 CL   UNL     1      37.236 -19.393 -20.870  0.00  0.00    -0.083 Cl
ATOM     14  C   UNL     1      35.226 -20.952 -19.882  0.00  0.00    +0.008 C 
ATOM     15  C   UNL     1      33.887 -21.267 -19.679  0.00  0.00    +0.055 C 
ATOM     16  C   UNL     1      35.584 -19.815 -20.598  0.00  0.00    +0.055 C 
ATOM     17  C   UNL     1      32.894 -20.435 -20.197  0.00  0.00    +0.011 C 
ATOM     18  C   UNL     1      34.592 -18.983 -21.117  0.00  0.00    +0.011 C 
ATOM     19  C   UNL     1      33.246 -19.294 -20.916  0.00  0.00    +0.002 C 
ENDBRANCH  11  14
ENDBRANCH   2  11
TORSDOF 4
ENDMDL
MODEL 3
REMARK VINA RESULT:      -7.3      7.337      8.873
REMARK  Name = 3519
REMARK  4 active torsions:
REMARK  status: ('A' for Active; 'I' for Inactive)
REMARK    1  A    between atoms: C_2  and  N_3
REMARK    2  A    between atoms: C_2  and  C_11
REMARK    3  A    between atoms: N_3  and  C_6
REMARK    4  A    between atoms: C_11  and  C_14
REMARK                            x       y       z     vdW  Elec       q    Type
REMARK                         _______ _______ _______ _____ _____    ______ ____
ROOT
ATOM      1  O   UNL     1      32.155 -15.258 -21.429  0.00  0.00    -0.273 OA
ATOM      2  C   UNL     1      32.734 -14.452 -22.155  0.00  0.00    +0.252 C 
ENDROOT
BRANCH   2   3
ATOM      3  N   UNL     1      32.228 -13.232 -22.551  0.00  0.00    -0.147 NA
BRANCH   3   6
ATOM      4  N   UNL     1      32.012 -12.402 -20.302  0.00  0.00    -0.372 N 
ATOM      5  N   UNL     1      30.760 -11.513 -21.990  0.00  0.00    -0.372 N 
ATOM      6  C   UNL     1      31.718 -12.438 -21.647  0.00  0.00    +0.184 C 
ATOM      7  H   UNL     1      32.684 -13.018 -19.929  0.00  0.00    +0.159 HD
ATOM      8  H   UNL     1      31.552 -11.760 -19.714  0.00  0.00    +0.159 HD
ATOM      9  H   UNL     1      30.461 -11.437 -22.925  0.00  0.00    +0.159 HD
ATOM     10  H   UNL     1      30.375 -10.924 -21.300  0.00  0.00    +0.159 HD
ENDBRANCH   3   6
ENDBRANCH   2   3
BRANCH   2  11
ATOM     11  C   UNL     1      34.145 -14.677 -22.664  0.00  0.00    +0.115 C 
BRANCH  11  14
ATOM     12 CL   UNL     1      35.145 -16.927 -20.859  0.00  0.00    -0.083 Cl
ATOM     13 CL   UNL     1      33.500 -14.887 -25.640  0.00  0.00    -0.083 Cl
ATOM     14  C   UNL     1      34.338 -16.025 -23.306  0.00  0.00    +0.008 C 
ATOM     15  C   UNL     1      34.791 -17.096 -22.541  0.00  0.00    +0.055 C 
ATOM     16  C   UNL     1      34.063 -16.191 -24.660  0.00  0.00    +0.055 C 
ATOM     17  C   UNL     1      34.969 -18.345 -23.135  0.00  0.00    +0.011 C 
ATOM     18  C   UNL     1      34.242 -17.441 -25.254  0.00  0.00    +0.011 C 
ATOM     19  C   UNL     1      34.695 -18.518 -24.491  0.00  0.00    +0.002 C 
ENDBRANCH  11  14
ENDBRANCH   2  11
TORSDOF 4
ENDMDL
MODEL 4
REMARK VINA RESULT:      -7.3      7.348      8.775
REMARK  Name = 3519
REMARK  4 active torsions:
REMARK  status: ('A' for Active; 'I' for Inactive)
REMARK    1  A    between atoms: C_2  and  N_3
REMARK    2  A    between atoms: C_2  and  C_11
REMARK    3  A    between atoms: N_3  and  C_6
REMARK    4  A    between atoms: C_11  and  C_14
REMARK                            x       y       z     vdW  Elec       q    Type
REMARK                         _______ _______ _______ _____ _____    ______ ____
ROOT
ATOM      1  O   UNL     1      32.137 -15.239 -21.431  0.00  0.00    -0.273 OA
ATOM      2  C   UNL     1      32.725 -14.429 -22.145  0.00  0.00    +0.252 C 
ENDROOT
BRANCH   2   3
ATOM      3  N   UNL     1      32.226 -13.205 -22.537  0.00  0.00    -0.147 NA
BRANCH   3   6
ATOM      4  N   UNL     1      32.024 -12.367 -20.290  0.00  0.00    -0.372 N 
ATOM      5  N   UNL     1      30.740 -11.503 -21.968  0.00  0.00    -0.372 N 
ATOM      6  C   UNL     1      31.715 -12.414 -21.631  0.00  0.00    +0.184 C 
ATOM      7  H   UNL     1      32.709 -12.972 -19.922  0.00  0.00    +0.159 HD
ATOM      8  H   UNL     1      31.561 -11.729 -19.700  0.00  0.00    +0.159 HD
ATOM      9  H   UNL     1      30.430 -11.437 -22.899  0.00  0.00    +0.159 HD
ATOM     10  H   UNL     1      30.355 -10.917 -21.276  0.00  0.00    +0.159 HD
ENDBRANCH   3   6
ENDBRANCH   2   3
BRANCH   2  11
ATOM     11  C   UNL     1      34.140 -14.655 -22.643  0.00  0.00    +0.115 C 
BRANCH  11  14
ATOM     12 CL   UNL     1      33.497 -14.859 -25.620  0.00  0.00    -0.083 Cl
ATOM     13 CL   UNL     1      35.139 -16.908 -20.842  0.00  0.00    -0.083 Cl
ATOM     14  C   UNL     1      34.336 -16.002 -23.288  0.00  0.00    +0.008 C 
ATOM     15  C   UNL     1      34.063 -16.165 -24.642  0.00  0.00    +0.055 C 
ATOM     16  C   UNL     1      34.790 -17.073 -22.525  0.00  0.00    +0.055 C 
ATOM     17  C   UNL     1      34.246 -17.412 -25.240  0.00  0.00    +0.011 C 
ATOM     18  C   UNL     1      34.971 -18.320 -23.122  0.00  0.00    +0.011 C 
ATOM     19  C   UNL     1      34.699 -18.490 -24.480  0.00  0.00    +0.002 C 
ENDBRANCH  11  14
ENDBRANCH   2  11
TORSDOF 4
ENDMDL
MODEL 5
REMARK VINA RESULT:      -7.2      6.891      8.305
REMARK  Name = 3519
REMARK  4 active torsions:
REMARK  status: ('A' for Active; 'I' for Inactive)
REMARK    1  A    between atoms: C_2  and  N_3
REMARK    2  A    between atoms: C_2  and  C_11
REMARK    3  A    between atoms: N_3  and  C_6
REMARK    4  A    between atoms: C_11  and  C_14
REMARK                            x       y       z     vdW  Elec       q    Type
REMARK                         _______ _______ _______ _____ _____    ______ ____
ROOT
ATOM      1  O   UNL     1      32.868 -14.281 -24.633  0.00  0.00    -0.273 OA
ATOM      2  C   UNL     1      33.227 -14.558 -23.491  0.00  0.00    +0.252 C 
ENDROOT
BRANCH   2   3
ATOM      3  N   UNL     1      32.408 -14.570 -22.381  0.00  0.00    -0.147 NA
BRANCH   3   6
ATOM      4  N   UNL     1      32.328 -13.192 -20.409  0.00  0.00    -0.372 N 
ATOM      5  N   UNL     1      31.727 -12.342 -22.440  0.00  0.00    -0.372 N 
ATOM      6  C   UNL     1      32.181 -13.445 -21.754  0.00  0.00    +0.184 C 
ATOM      7  H   UNL     1      32.647 -13.903 -19.807  0.00  0.00    +0.159 HD
ATOM      8  H   UNL     1      32.115 -12.301 -20.049  0.00  0.00    +0.159 HD
ATOM      9  H   UNL     1      31.580 -12.393 -23.412  0.00  0.00    +0.159 HD
ATOM     10  H   UNL     1      31.550 -11.502 -21.958  0.00  0.00    +0.159 HD
ENDBRANCH   3   6
ENDBRANCH   2   3
BRANCH   2  11
ATOM     11  C   UNL     1      34.641 -14.997 -23.161  0.00  0.00    +0.115 C 
BRANCH  11  14
ATOM     12 CL   UNL     1      34.766 -16.942 -25.511  0.00  0.00    -0.083 Cl
ATOM     13 CL   UNL     1      34.704 -15.723 -20.197  0.00  0.00    -0.083 Cl
ATOM     14  C   UNL     1      34.745 -16.461 -22.824  0.00  0.00    +0.008 C 
ATOM     15  C   UNL     1      34.807 -17.402 -23.847  0.00  0.00    +0.055 C 
ATOM     16  C   UNL     1      34.780 -16.862 -21.492  0.00  0.00    +0.055 C 
ATOM     17  C   UNL     1      34.905 -18.758 -23.535  0.00  0.00    +0.011 C 
ATOM     18  C   UNL     1      34.876 -18.218 -21.180  0.00  0.00    +0.011 C 
ATOM     19  C   UNL     1      34.940 -19.166 -22.202  0.00  0.00    +0.002 C 
ENDBRANCH  11  14
ENDBRANCH   2  11
TORSDOF 4
ENDMDL
MODEL 6
REMARK VINA RESULT:      -7.2      4.623      6.177
REMARK  Name = 3519
REMARK  4 active torsions:
REMARK  status: ('A' for Active; 'I' for Inactive)
REMARK    1  A    between atoms: C_2  and  N_3
REMARK    2  A    between atoms: C_2  and  C_11
REMARK    3  A    between atoms: N_3  and  C_6
REMARK    4  A    between atoms: C_11  and  C_14
REMARK                            x       y       z     vdW  Elec       q    Type
REMARK                         _______ _______ _______ _____ _____    ______ ____
ROOT
ATOM      1  O   UNL     1      34.760 -19.454 -23.243  0.00  0.00    -0.273 OA
ATOM      2  C   UNL     1      34.705 -18.577 -22.384  0.00  0.00    +0.252 C 
ENDROOT
BRANCH   2   3
ATOM      3  N   UNL     1      34.013 -18.671 -21.195  0.00  0.00    -0.147 NA
BRANCH   3   6
ATOM      4  N   UNL     1      32.698 -20.471 -20.288  0.00  0.00    -0.372 N 
ATOM      5  N   UNL     1      34.975 -20.605 -20.322  0.00  0.00    -0.372 N 
ATOM      6  C   UNL     1      33.873 -19.845 -20.639  0.00  0.00    +0.184 C 
ATOM      7  H   UNL     1      31.835 -20.030 -20.462  0.00  0.00    +0.159 HD
ATOM      8  H   UNL     1      32.720 -21.359 -19.863  0.00  0.00    +0.159 HD
ATOM      9  H   UNL     1      35.879 -20.269 -20.522  0.00  0.00    +0.159 HD
ATOM     10  H   UNL     1      34.861 -21.485 -19.895  0.00  0.00    +0.159 HD
ENDBRANCH   3   6
ENDBRANCH   2   3
BRANCH   2  11
ATOM     11  C   UNL     1      35.467 -17.271 -22.499  0.00  0.00    +0.115 C 
BRANCH  11  14
ATOM     12 CL   UNL     1      34.801 -17.051 -25.469  0.00  0.00    -0.083 Cl
ATOM     13 CL   UNL     1      34.556 -15.373 -20.287  0.00  0.00    -0.083 Cl
ATOM     14  C   UNL     1      34.602 -16.111 -22.915  0.00  0.00    +0.008 C 
ATOM     15  C   UNL     1      34.259 -15.951 -24.253  0.00  0.00    +0.055 C 
ATOM     16  C   UNL     1      34.151 -15.208 -21.957  0.00  0.00    +0.055 C 
ATOM     17  C   UNL     1      33.456 -14.877 -24.639  0.00  0.00    +0.011 C 
ATOM     18  C   UNL     1      33.349 -14.133 -22.343  0.00  0.00    +0.011 C 
ATOM     19  C   UNL     1      33.001 -13.968 -23.684  0.00  0.00    +0.002 C 
ENDBRANCH  11  14
ENDBRANCH   2  11
TORSDOF 4
ENDMDL
MODEL 7
REMARK VINA RESULT:      -7.2      4.612      6.257
REMARK  Name = 3519
REMARK  4 active torsions:
REMARK  status: ('A' for Active; 'I' for Inactive)
REMARK    1  A    between atoms: C_2  and  N_3
REMARK    2  A    between atoms: C_2  and  C_11
REMARK    3  A    between atoms: N_3  and  C_6
REMARK    4  A    between atoms: C_11  and  C_14
REMARK                            x       y       z     vdW  Elec       q    Type
REMARK                         _______ _______ _______ _____ _____    ______ ____
ROOT
ATOM      1  O   UNL     1      34.765 -19.468 -23.243  0.00  0.00    -0.273 OA
ATOM      2  C   UNL     1      34.708 -18.591 -22.384  0.00  0.00    +0.252 C 
ENDROOT
BRANCH   2   3
ATOM      3  N   UNL     1      34.013 -18.685 -21.197  0.00  0.00    -0.147 NA
BRANCH   3   6
ATOM      4  N   UNL     1      32.716 -20.487 -20.267  0.00  0.00    -0.372 N 
ATOM      5  N   UNL     1      34.994 -20.608 -20.322  0.00  0.00    -0.372 N 
ATOM      6  C   UNL     1      33.884 -19.857 -20.633  0.00  0.00    +0.184 C 
ATOM      7  H   UNL     1      31.849 -20.051 -20.436  0.00  0.00    +0.159 HD
ATOM      8  H   UNL     1      32.747 -21.373 -19.838  0.00  0.00    +0.159 HD
ATOM      9  H   UNL     1      35.893 -20.268 -20.533  0.00  0.00    +0.159 HD
ATOM     10  H   UNL     1      34.888 -21.487 -19.890  0.00  0.00    +0.159 HD
ENDBRANCH   3   6
ENDBRANCH   2   3
BRANCH   2  11
ATOM     11  C   UNL     1      35.471 -17.285 -22.497  0.00  0.00    +0.115 C 
BRANCH  11  14
ATOM     12 CL   UNL     1      34.562 -15.392 -20.282  0.00  0.00    -0.083 Cl
ATOM     13 CL   UNL     1      34.801 -17.061 -25.467  0.00  0.00    -0.083 Cl
ATOM     14  C   UNL     1      34.606 -16.124 -22.911  0.00  0.00    +0.008 C 
ATOM     15  C   UNL     1      34.157 -15.222 -21.952  0.00  0.00    +0.055 C 
ATOM     16  C   UNL     1      34.263 -15.962 -24.249  0.00  0.00    +0.055 C 
ATOM     17  C   UNL     1      33.357 -14.146 -22.335  0.00  0.00    +0.011 C 
ATOM     18  C   UNL     1      33.461 -14.886 -24.633  0.00  0.00    +0.011 C 
ATOM     19  C   UNL     1      33.009 -13.978 -23.675  0.00  0.00    +0.002 C 
ENDBRANCH  11  14
ENDBRANCH   2  11
TORSDOF 4
ENDMDL
MODEL 8
REMARK VINA RESULT:      -7.1      6.851      8.379
REMARK  Name = 3519
REMARK  4 active torsions:
REMARK  status: ('A' for Active; 'I' for Inactive)
REMARK    1  A    between atoms: C_2  and  N_3
REMARK    2  A    between atoms: C_2  and  C_11
REMARK    3  A    between atoms: N_3  and  C_6
REMARK    4  A    between atoms: C_11  and  C_14
REMARK                            x       y       z     vdW  Elec       q    Type
REMARK                         _______ _______ _______ _____ _____    ______ ____
ROOT
ATOM      1  O   UNL     1      32.873 -14.361 -24.611  0.00  0.00    -0.273 OA
ATOM      2  C   UNL     1      33.250 -14.611 -23.468  0.00  0.00    +0.252 C 
ENDROOT
BRANCH   2   3
ATOM      3  N   UNL     1      32.452 -14.583 -22.343  0.00  0.00    -0.147 NA
BRANCH   3   6
ATOM      4  N   UNL     1      31.672 -12.309 -22.448  0.00  0.00    -0.372 N 
ATOM      5  N   UNL     1      32.338 -13.214 -20.462  0.00  0.00    -0.372 N 
ATOM      6  C   UNL     1      32.158 -13.427 -21.809  0.00  0.00    +0.184 C 
ATOM      7  H   UNL     1      31.501 -12.332 -23.418  0.00  0.00    +0.159 HD
ATOM      8  H   UNL     1      31.496 -11.486 -21.936  0.00  0.00    +0.159 HD
ATOM      9  H   UNL     1      32.681 -13.938 -19.890  0.00  0.00    +0.159 HD
ATOM     10  H   UNL     1      32.121 -12.337 -20.069  0.00  0.00    +0.159 HD
ENDBRANCH   3   6
ENDBRANCH   2   3
BRANCH   2  11
ATOM     11  C   UNL     1      34.664 -15.060 -23.153  0.00  0.00    +0.115 C 
BRANCH  11  14
ATOM     12 CL   UNL     1      34.727 -15.786 -20.189  0.00  0.00    -0.083 Cl
ATOM     13 CL   UNL     1      34.785 -17.004 -25.503  0.00  0.00    -0.083 Cl
ATOM     14  C   UNL     1      34.764 -16.524 -22.817  0.00  0.00    +0.008 C 
ATOM     15  C   UNL     1      34.796 -16.925 -21.485  0.00  0.00    +0.055 C 
ATOM     16  C   UNL     1      34.823 -17.465 -23.840  0.00  0.00    +0.055 C 
ATOM     17  C   UNL     1      34.888 -18.282 -21.173  0.00  0.00    +0.011 C 
ATOM     18  C   UNL     1      34.915 -18.821 -23.528  0.00  0.00    +0.011 C 
ATOM     19  C   UNL     1      34.948 -19.230 -22.194  0.00  0.00    +0.002 C 
ENDBRANCH  11  14
ENDBRANCH   2  11
TORSDOF 4
ENDMDL
MODEL 9
REMARK VINA RESULT:      -7.0      2.956      3.914
REMARK  Name = 3519
REMARK  4 active torsions:
REMARK  status: ('A' for Active; 'I' for Inactive)
REMARK    1  A    between atoms: C_2  and  N_3
REMARK    2  A    between atoms: C_2  and  C_11
REMARK    3  A    between atoms: N_3  and  C_6
REMARK    4  A    between atoms: C_11  and  C_14
REMARK                            x       y       z     vdW  Elec       q    Type
REMARK                         _______ _______ _______ _____ _____    ______ ____
ROOT
ATOM      1  O   UNL     1      35.582 -25.593 -15.657  0.00  0.00    -0.273 OA
ATOM      2  C   UNL     1      35.984 -24.600 -15.054  0.00  0.00    +0.252 C 
ENDROOT
BRANCH   2   3
ATOM      3  N   UNL     1      37.115 -24.551 -14.267  0.00  0.00    -0.147 NA
BRANCH   3   6
ATOM      4  N   UNL     1      39.248 -24.953 -15.309  0.00  0.00    -0.372 N 
ATOM      5  N   UNL     1      38.171 -26.626 -14.192  0.00  0.00    -0.372 N 
ATOM      6  C   UNL     1      38.134 -25.308 -14.581  0.00  0.00    +0.184 C 
ATOM      7  H   UNL     1      39.342 -24.033 -15.647  0.00  0.00    +0.159 HD
ATOM      8  H   UNL     1      39.950 -25.618 -15.490  0.00  0.00    +0.159 HD
ATOM      9  H   UNL     1      37.431 -27.005 -13.664  0.00  0.00    +0.159 HD
ATOM     10  H   UNL     1      38.939 -27.191 -14.440  0.00  0.00    +0.159 HD
ENDBRANCH   3   6
ENDBRANCH   2   3
BRANCH   2  11
ATOM     11  C   UNL     1      35.300 -23.250 -15.156  0.00  0.00    +0.115 C 
BRANCH  11  14
ATOM     12 CL   UNL     1      37.711 -21.962 -16.515  0.00  0.00    -0.083 Cl
ATOM     13 CL   UNL     1      32.541 -23.688 -16.385  0.00  0.00    -0.083 Cl
ATOM     14  C   UNL     1      35.109 -22.785 -16.575  0.00  0.00    +0.008 C 
ATOM     15  C   UNL     1      36.167 -22.190 -17.255  0.00  0.00    +0.055 C 
ATOM     16  C   UNL     1      33.876 -22.954 -17.197  0.00  0.00    +0.055 C 
ATOM     17  C   UNL     1      35.991 -21.760 -18.570  0.00  0.00    +0.011 C 
ATOM     18  C   UNL     1      33.699 -22.524 -18.512  0.00  0.00    +0.011 C 
ATOM     19  C   UNL     1      34.757 -21.927 -19.199  0.00  0.00    +0.002 C 
ENDBRANCH  11  14
ENDBRANCH   2  11
TORSDOF 4
ENDMDL
