MODEL 1
REMARK VINA RESULT:     -10.6      0.000      0.000
REMARK  Name = 11219835
REMARK  4 active torsions:
REMARK  status: ('A' for Active; 'I' for Inactive)
REMARK    1  A    between atoms: C_4  and  C_13
REMARK    2  A    between atoms: C_5  and  C_7
REMARK    3  A    between atoms: C_15  and  C_20
REMARK    4  A    between atoms: C_20  and  O_21
REMARK                            x       y       z     vdW  Elec       q    Type
REMARK                         _______ _______ _______ _____ _____    ______ ____
ROOT
ATOM      1  O   UNL     1      34.538 -16.998 -23.547  0.00  0.00    -0.311 OA
ATOM      2  N   UNL     1      34.360 -17.092 -21.316  0.00  0.00    -0.308 NA
ATOM      3  N   UNL     1      35.012 -18.261 -23.170  0.00  0.00    -0.007 NA
ATOM      4  C   UNL     1      34.874 -18.239 -21.842  0.00  0.00    +0.127 C 
ATOM      5  C   UNL     1      34.175 -16.374 -22.395  0.00  0.00    +0.319 C 
ENDROOT
BRANCH   5   7
ATOM      6  F   UNL     1      32.163 -15.361 -20.720  0.00  0.00    -0.204 F 
ATOM      7  C   UNL     1      33.653 -15.047 -22.547  0.00  0.00    +0.097 C 
ATOM      8  C   UNL     1      32.649 -14.577 -21.692  0.00  0.00    +0.146 C 
ATOM      9  C   UNL     1      34.144 -14.211 -23.555  0.00  0.00    +0.008 C 
ATOM     10  C   UNL     1      32.143 -13.286 -21.844  0.00  0.00    +0.030 C 
ATOM     11  C   UNL     1      33.638 -12.919 -23.707  0.00  0.00    +0.000 C 
ATOM     12  C   UNL     1      32.638 -12.457 -22.852  0.00  0.00    +0.002 C 
ENDBRANCH   5   7
BRANCH   4  13
ATOM     13  C   UNL     1      35.242 -19.350 -21.009  0.00  0.00    +0.077 C 
ATOM     14  C   UNL     1      34.261 -20.227 -20.545  0.00  0.00    +0.018 C 
ATOM     15  C   UNL     1      34.618 -21.307 -19.737  0.00  0.00    +0.076 C 
ATOM     16  C   UNL     1      36.579 -19.553 -20.667  0.00  0.00    +0.011 C 
ATOM     17  C   UNL     1      35.955 -21.511 -19.394  0.00  0.00    +0.006 C 
ATOM     18  C   UNL     1      36.935 -20.633 -19.859  0.00  0.00    +0.001 C 
BRANCH  15  20
ATOM     19  O   UNL     1      32.523 -21.890 -18.738  0.00  0.00    -0.245 OA
ATOM     20  C   UNL     1      33.596 -22.222 -19.252  0.00  0.00    +0.338 C 
BRANCH  20  21
ATOM     21  O   UNL     1      33.943 -23.527 -19.424  0.00  0.00    -0.477 OA
ATOM     22  H   UNL     1      34.450 -23.967 -18.770  0.00  0.00    +0.295 HD
ENDBRANCH  20  21
ENDBRANCH  15  20
ENDBRANCH   4  13
TORSDOF 4
ENDMDL
MODEL 2
REMARK VINA RESULT:     -10.6      2.347      7.413
REMARK  Name = 11219835
REMARK  4 active torsions:
REMARK  status: ('A' for Active; 'I' for Inactive)
REMARK    1  A    between atoms: C_4  and  C_13
REMARK    2  A    between atoms: C_5  and  C_7
REMARK    3  A    between atoms: C_15  and  C_20
REMARK    4  A    between atoms: C_20  and  O_21
REMARK                            x       y       z     vdW  Elec       q    Type
REMARK                         _______ _______ _______ _____ _____    ______ ____
ROOT
ATOM      1  O   UNL     1      35.386 -19.415 -22.852  0.00  0.00    -0.311 OA
ATOM      2  N   UNL     1      34.286 -17.880 -21.647  0.00  0.00    -0.308 NA
ATOM      3  N   UNL     1      35.282 -18.280 -23.666  0.00  0.00    -0.007 NA
ATOM      4  C   UNL     1      34.622 -17.421 -22.885  0.00  0.00    +0.127 C 
ATOM      5  C   UNL     1      34.774 -19.094 -21.681  0.00  0.00    +0.319 C 
ENDROOT
BRANCH   5   7
ATOM      6  F   UNL     1      32.386 -20.221 -20.727  0.00  0.00    -0.204 F 
ATOM      7  C   UNL     1      34.762 -20.126 -20.685  0.00  0.00    +0.097 C 
ATOM      8  C   UNL     1      33.551 -20.664 -20.234  0.00  0.00    +0.146 C 
ATOM      9  C   UNL     1      35.965 -20.603 -20.154  0.00  0.00    +0.008 C 
ATOM     10  C   UNL     1      33.544 -21.666 -19.263  0.00  0.00    +0.030 C 
ATOM     11  C   UNL     1      35.959 -21.606 -19.184  0.00  0.00    +0.000 C 
ATOM     12  C   UNL     1      34.748 -22.136 -18.738  0.00  0.00    +0.002 C 
ENDBRANCH   5   7
BRANCH   4  13
ATOM     13  C   UNL     1      34.283 -16.093 -23.314  0.00  0.00    +0.077 C 
ATOM     14  C   UNL     1      33.812 -15.878 -24.609  0.00  0.00    +0.018 C 
ATOM     15  C   UNL     1      33.481 -14.588 -25.025  0.00  0.00    +0.076 C 
ATOM     16  C   UNL     1      34.423 -15.019 -22.435  0.00  0.00    +0.011 C 
ATOM     17  C   UNL     1      33.622 -13.513 -24.146  0.00  0.00    +0.006 C 
ATOM     18  C   UNL     1      34.093 -13.729 -22.851  0.00  0.00    +0.001 C 
BRANCH  15  20
ATOM     19  O   UNL     1      33.127 -13.320 -27.024  0.00  0.00    -0.245 OA
ATOM     20  C   UNL     1      32.990 -14.363 -26.376  0.00  0.00    +0.338 C 
BRANCH  20  21
ATOM     21  O   UNL     1      32.342 -15.448 -26.881  0.00  0.00    -0.477 OA
ATOM     22  H   UNL     1      32.200 -15.521 -27.805  0.00  0.00    +0.295 HD
ENDBRANCH  20  21
ENDBRANCH  15  20
ENDBRANCH   4  13
TORSDOF 4
ENDMDL
MODEL 3
REMARK VINA RESULT:     -10.6      2.247      7.686
REMARK  Name = 11219835
REMARK  4 active torsions:
REMARK  status: ('A' for Active; 'I' for Inactive)
REMARK    1  A    between atoms: C_4  and  C_13
REMARK    2  A    between atoms: C_5  and  C_7
REMARK    3  A    between atoms: C_15  and  C_20
REMARK    4  A    between atoms: C_20  and  O_21
REMARK                            x       y       z     vdW  Elec       q    Type
REMARK                         _______ _______ _______ _____ _____    ______ ____
ROOT
ATOM      1  O   UNL     1      35.166 -18.221 -22.778  0.00  0.00    -0.311 OA
ATOM      2  N   UNL     1      33.873 -17.176 -21.277  0.00  0.00    -0.308 NA
ATOM      3  N   UNL     1      34.896 -16.953 -23.310  0.00  0.00    -0.007 NA
ATOM      4  C   UNL     1      34.129 -16.400 -22.367  0.00  0.00    +0.127 C 
ATOM      5  C   UNL     1      34.527 -18.269 -21.580  0.00  0.00    +0.319 C 
ENDROOT
BRANCH   5   7
ATOM      6  F   UNL     1      32.310 -19.748 -20.698  0.00  0.00    -0.204 F 
ATOM      7  C   UNL     1      34.670 -19.495 -20.849  0.00  0.00    +0.097 C 
ATOM      8  C   UNL     1      33.540 -20.205 -20.426  0.00  0.00    +0.146 C 
ATOM      9  C   UNL     1      35.944 -19.990 -20.552  0.00  0.00    +0.008 C 
ATOM     10  C   UNL     1      33.684 -21.396 -19.714  0.00  0.00    +0.030 C 
ATOM     11  C   UNL     1      36.088 -21.182 -19.841  0.00  0.00    +0.000 C 
ATOM     12  C   UNL     1      34.958 -21.884 -19.422  0.00  0.00    +0.002 C 
ENDBRANCH   5   7
BRANCH   4  13
ATOM     13  C   UNL     1      33.603 -15.068 -22.485  0.00  0.00    +0.077 C 
ATOM     14  C   UNL     1      34.006 -14.251 -23.541  0.00  0.00    +0.018 C 
ATOM     15  C   UNL     1      33.494 -12.958 -23.656  0.00  0.00    +0.076 C 
ATOM     16  C   UNL     1      32.688 -14.594 -21.545  0.00  0.00    +0.011 C 
ATOM     17  C   UNL     1      32.579 -12.483 -22.716  0.00  0.00    +0.006 C 
ATOM     18  C   UNL     1      32.176 -13.302 -21.660  0.00  0.00    +0.001 C 
BRANCH  15  20
ATOM     19  O   UNL     1      33.625 -12.275 -25.946  0.00  0.00    -0.245 OA
ATOM     20  C   UNL     1      33.914 -12.104 -24.757  0.00  0.00    +0.338 C 
BRANCH  20  21
ATOM     21  O   UNL     1      34.683 -11.061 -24.341  0.00  0.00    -0.477 OA
ATOM     22  H   UNL     1      35.570 -10.985 -24.635  0.00  0.00    +0.295 HD
ENDBRANCH  20  21
ENDBRANCH  15  20
ENDBRANCH   4  13
TORSDOF 4
ENDMDL
MODEL 4
REMARK VINA RESULT:     -10.4      4.781      7.705
REMARK  Name = 11219835
REMARK  4 active torsions:
REMARK  status: ('A' for Active; 'I' for Inactive)
REMARK    1  A    between atoms: C_4  and  C_13
REMARK    2  A    between atoms: C_5  and  C_7
REMARK    3  A    between atoms: C_15  and  C_20
REMARK    4  A    between atoms: C_20  and  O_21
REMARK                            x       y       z     vdW  Elec       q    Type
REMARK                         _______ _______ _______ _____ _____    ______ ____
ROOT
ATOM      1  O   UNL     1      34.283 -23.118 -17.560  0.00  0.00    -0.311 OA
ATOM      2  N   UNL     1      32.258 -22.264 -17.992  0.00  0.00    -0.308 NA
ATOM      3  N   UNL     1      33.397 -23.743 -16.672  0.00  0.00    -0.007 NA
ATOM      4  C   UNL     1      32.226 -23.186 -16.989  0.00  0.00    +0.127 C 
ATOM      5  C   UNL     1      33.530 -22.263 -18.300  0.00  0.00    +0.319 C 
ENDROOT
BRANCH   5   7
ATOM      6  F   UNL     1      32.272 -20.318 -19.885  0.00  0.00    -0.204 F 
ATOM      7  C   UNL     1      34.243 -21.507 -19.289  0.00  0.00    +0.097 C 
ATOM      8  C   UNL     1      33.581 -20.544 -20.060  0.00  0.00    +0.146 C 
ATOM      9  C   UNL     1      35.610 -21.727 -19.491  0.00  0.00    +0.008 C 
ATOM     10  C   UNL     1      34.278 -19.812 -21.022  0.00  0.00    +0.030 C 
ATOM     11  C   UNL     1      36.307 -20.994 -20.451  0.00  0.00    +0.000 C 
ATOM     12  C   UNL     1      35.641 -20.037 -21.217  0.00  0.00    +0.002 C 
ENDBRANCH   5   7
BRANCH   4  13
ATOM     13  C   UNL     1      31.002 -23.532 -16.322  0.00  0.00    +0.077 C 
ATOM     14  C   UNL     1      29.841 -22.802 -16.576  0.00  0.00    +0.018 C 
ATOM     15  C   UNL     1      28.651 -23.138 -15.929  0.00  0.00    +0.076 C 
ATOM     16  C   UNL     1      30.975 -24.596 -15.422  0.00  0.00    +0.011 C 
ATOM     17  C   UNL     1      28.623 -24.203 -15.028  0.00  0.00    +0.006 C 
ATOM     18  C   UNL     1      29.785 -24.932 -14.775  0.00  0.00    +0.001 C 
BRANCH  15  20
ATOM     19  O   UNL     1      26.414 -22.401 -15.505  0.00  0.00    -0.245 OA
ATOM     20  C   UNL     1      27.439 -22.378 -16.194  0.00  0.00    +0.338 C 
BRANCH  20  21
ATOM     21  O   UNL     1      27.542 -21.608 -17.312  0.00  0.00    -0.477 OA
ATOM     22  H   UNL     1      28.041 -21.911 -18.045  0.00  0.00    +0.295 HD
ENDBRANCH  20  21
ENDBRANCH  15  20
ENDBRANCH   4  13
TORSDOF 4
ENDMDL
MODEL 5
REMARK VINA RESULT:     -10.3      2.729      7.872
REMARK  Name = 11219835
REMARK  4 active torsions:
REMARK  status: ('A' for Active; 'I' for Inactive)
REMARK    1  A    between atoms: C_4  and  C_13
REMARK    2  A    between atoms: C_5  and  C_7
REMARK    3  A    between atoms: C_15  and  C_20
REMARK    4  A    between atoms: C_20  and  O_21
REMARK                            x       y       z     vdW  Elec       q    Type
REMARK                         _______ _______ _______ _____ _____    ______ ____
ROOT
ATOM      1  O   UNL     1      35.126 -16.836 -20.529  0.00  0.00    -0.311 OA
ATOM      2  N   UNL     1      34.280 -17.431 -22.515  0.00  0.00    -0.308 NA
ATOM      3  N   UNL     1      34.922 -15.645 -21.239  0.00  0.00    -0.007 NA
ATOM      4  C   UNL     1      34.422 -16.081 -22.398  0.00  0.00    +0.127 C 
ATOM      5  C   UNL     1      34.722 -17.838 -21.353  0.00  0.00    +0.319 C 
ENDROOT
BRANCH   5   7
ATOM      6  F   UNL     1      37.216 -19.072 -20.976  0.00  0.00    -0.204 F 
ATOM      7  C   UNL     1      34.844 -19.165 -20.821  0.00  0.00    +0.097 C 
ATOM      8  C   UNL     1      36.106 -19.747 -20.647  0.00  0.00    +0.146 C 
ATOM      9  C   UNL     1      33.700 -19.890 -20.473  0.00  0.00    +0.008 C 
ATOM     10  C   UNL     1      36.219 -21.038 -20.132  0.00  0.00    +0.030 C 
ATOM     11  C   UNL     1      33.813 -21.181 -19.956  0.00  0.00    +0.000 C 
ATOM     12  C   UNL     1      35.073 -21.755 -19.786  0.00  0.00    +0.002 C 
ENDBRANCH   5   7
BRANCH   4  13
ATOM     13  C   UNL     1      34.053 -15.189 -23.462  0.00  0.00    +0.077 C 
ATOM     14  C   UNL     1      34.087 -13.810 -23.258  0.00  0.00    +0.018 C 
ATOM     15  C   UNL     1      33.729 -12.943 -24.291  0.00  0.00    +0.076 C 
ATOM     16  C   UNL     1      33.662 -15.703 -24.698  0.00  0.00    +0.011 C 
ATOM     17  C   UNL     1      33.338 -13.456 -25.528  0.00  0.00    +0.006 C 
ATOM     18  C   UNL     1      33.304 -14.836 -25.731  0.00  0.00    +0.001 C 
BRANCH  15  20
ATOM     19  O   UNL     1      32.947 -10.858 -23.416  0.00  0.00    -0.245 OA
ATOM     20  C   UNL     1      33.764 -11.504 -24.079  0.00  0.00    +0.338 C 
BRANCH  20  21
ATOM     21  O   UNL     1      34.821 -10.913 -24.701  0.00  0.00    -0.477 OA
ATOM     22  H   UNL     1      34.681 -10.179 -25.267  0.00  0.00    +0.295 HD
ENDBRANCH  20  21
ENDBRANCH  15  20
ENDBRANCH   4  13
TORSDOF 4
ENDMDL
MODEL 6
REMARK VINA RESULT:     -10.3      3.059      4.152
REMARK  Name = 11219835
REMARK  4 active torsions:
REMARK  status: ('A' for Active; 'I' for Inactive)
REMARK    1  A    between atoms: C_4  and  C_13
REMARK    2  A    between atoms: C_5  and  C_7
REMARK    3  A    between atoms: C_15  and  C_20
REMARK    4  A    between atoms: C_20  and  O_21
REMARK                            x       y       z     vdW  Elec       q    Type
REMARK                         _______ _______ _______ _____ _____    ______ ____
ROOT
ATOM      1  O   UNL     1      36.774 -18.940 -21.382  0.00  0.00    -0.311 OA
ATOM      2  N   UNL     1      34.736 -19.817 -21.075  0.00  0.00    -0.308 NA
ATOM      3  N   UNL     1      36.887 -19.821 -20.299  0.00  0.00    -0.007 NA
ATOM      4  C   UNL     1      35.645 -20.297 -20.180  0.00  0.00    +0.127 C 
ATOM      5  C   UNL     1      35.476 -18.998 -21.779  0.00  0.00    +0.319 C 
ENDROOT
BRANCH   5   7
ATOM      6  F   UNL     1      34.942 -20.051 -24.326  0.00  0.00    -0.204 F 
ATOM      7  C   UNL     1      35.130 -18.163 -22.893  0.00  0.00    +0.097 C 
ATOM      8  C   UNL     1      34.870 -18.725 -24.148  0.00  0.00    +0.146 C 
ATOM      9  C   UNL     1      35.051 -16.775 -22.732  0.00  0.00    +0.008 C 
ATOM     10  C   UNL     1      34.536 -17.909 -25.229  0.00  0.00    +0.030 C 
ATOM     11  C   UNL     1      34.716 -15.959 -23.813  0.00  0.00    +0.000 C 
ATOM     12  C   UNL     1      34.459 -16.526 -25.061  0.00  0.00    +0.002 C 
ENDBRANCH   5   7
BRANCH   4  13
ATOM     13  C   UNL     1      35.280 -21.256 -19.176  0.00  0.00    +0.077 C 
ATOM     14  C   UNL     1      36.185 -21.590 -18.169  0.00  0.00    +0.018 C 
ATOM     15  C   UNL     1      35.830 -22.521 -17.193  0.00  0.00    +0.076 C 
ATOM     16  C   UNL     1      34.020 -21.853 -19.207  0.00  0.00    +0.011 C 
ATOM     17  C   UNL     1      34.570 -23.119 -17.224  0.00  0.00    +0.006 C 
ATOM     18  C   UNL     1      33.665 -22.784 -18.231  0.00  0.00    +0.001 C 
BRANCH  15  20
ATOM     19  O   UNL     1      37.563 -22.089 -15.599  0.00  0.00    -0.245 OA
ATOM     20  C   UNL     1      36.774 -22.870 -16.142  0.00  0.00    +0.338 C 
BRANCH  20  21
ATOM     21  O   UNL     1      36.706 -24.185 -15.797  0.00  0.00    -0.477 OA
ATOM     22  H   UNL     1      36.026 -24.486 -15.226  0.00  0.00    +0.295 HD
ENDBRANCH  20  21
ENDBRANCH  15  20
ENDBRANCH   4  13
TORSDOF 4
ENDMDL
MODEL 7
REMARK VINA RESULT:     -10.3      1.718      2.305
REMARK  Name = 11219835
REMARK  4 active torsions:
REMARK  status: ('A' for Active; 'I' for Inactive)
REMARK    1  A    between atoms: C_4  and  C_13
REMARK    2  A    between atoms: C_5  and  C_7
REMARK    3  A    between atoms: C_15  and  C_20
REMARK    4  A    between atoms: C_20  and  O_21
REMARK                            x       y       z     vdW  Elec       q    Type
REMARK                         _______ _______ _______ _____ _____    ______ ____
ROOT
ATOM      1  O   UNL     1      34.721 -15.730 -21.530  0.00  0.00    -0.311 OA
ATOM      2  N   UNL     1      34.646 -17.690 -22.612  0.00  0.00    -0.308 NA
ATOM      3  N   UNL     1      35.138 -16.701 -20.610  0.00  0.00    -0.007 NA
ATOM      4  C   UNL     1      35.066 -17.827 -21.323  0.00  0.00    +0.127 C 
ATOM      5  C   UNL     1      34.451 -16.398 -22.683  0.00  0.00    +0.319 C 
ENDROOT
BRANCH   5   7
ATOM      6  F   UNL     1      34.075 -17.446 -25.260  0.00  0.00    -0.204 F 
ATOM      7  C   UNL     1      34.002 -15.587 -23.778  0.00  0.00    +0.097 C 
ATOM      8  C   UNL     1      33.825 -16.146 -25.049  0.00  0.00    +0.146 C 
ATOM      9  C   UNL     1      33.737 -14.228 -23.583  0.00  0.00    +0.008 C 
ATOM     10  C   UNL     1      33.390 -15.354 -26.112  0.00  0.00    +0.030 C 
ATOM     11  C   UNL     1      33.300 -13.435 -24.645  0.00  0.00    +0.000 C 
ATOM     12  C   UNL     1      33.128 -13.999 -25.909  0.00  0.00    +0.002 C 
ENDBRANCH   5   7
BRANCH   4  13
ATOM     13  C   UNL     1      35.409 -19.110 -20.775  0.00  0.00    +0.077 C 
ATOM     14  C   UNL     1      34.403 -19.985 -20.366  0.00  0.00    +0.018 C 
ATOM     15  C   UNL     1      34.736 -21.231 -19.835  0.00  0.00    +0.076 C 
ATOM     16  C   UNL     1      36.748 -19.481 -20.653  0.00  0.00    +0.011 C 
ATOM     17  C   UNL     1      36.075 -21.603 -19.713  0.00  0.00    +0.006 C 
ATOM     18  C   UNL     1      37.081 -20.727 -20.122  0.00  0.00    +0.001 C 
BRANCH  15  20
ATOM     19  O   UNL     1      33.768 -23.376 -19.400  0.00  0.00    -0.245 OA
ATOM     20  C   UNL     1      33.686 -22.144 -19.408  0.00  0.00    +0.338 C 
BRANCH  20  21
ATOM     21  O   UNL     1      32.563 -21.491 -19.002  0.00  0.00    -0.477 OA
ATOM     22  H   UNL     1      31.794 -21.977 -18.776  0.00  0.00    +0.295 HD
ENDBRANCH  20  21
ENDBRANCH  15  20
ENDBRANCH   4  13
TORSDOF 4
ENDMDL
MODEL 8
REMARK VINA RESULT:     -10.2      2.568      7.416
REMARK  Name = 11219835
REMARK  4 active torsions:
REMARK  status: ('A' for Active; 'I' for Inactive)
REMARK    1  A    between atoms: C_4  and  C_13
REMARK    2  A    between atoms: C_5  and  C_7
REMARK    3  A    between atoms: C_15  and  C_20
REMARK    4  A    between atoms: C_20  and  O_21
REMARK                            x       y       z     vdW  Elec       q    Type
REMARK                         _______ _______ _______ _____ _____    ______ ____
ROOT
ATOM      1  O   UNL     1      34.928 -18.186 -23.118  0.00  0.00    -0.311 OA
ATOM      2  N   UNL     1      33.916 -16.912 -21.579  0.00  0.00    -0.308 NA
ATOM      3  N   UNL     1      34.711 -16.941 -23.723  0.00  0.00    -0.007 NA
ATOM      4  C   UNL     1      34.111 -16.247 -22.752  0.00  0.00    +0.127 C 
ATOM      5  C   UNL     1      34.430 -18.083 -21.858  0.00  0.00    +0.319 C 
ENDROOT
BRANCH   5   7
ATOM      6  F   UNL     1      36.921 -19.110 -21.070  0.00  0.00    -0.204 F 
ATOM      7  C   UNL     1      34.547 -19.260 -21.046  0.00  0.00    +0.097 C 
ATOM      8  C   UNL     1      35.807 -19.742 -20.673  0.00  0.00    +0.146 C 
ATOM      9  C   UNL     1      33.399 -19.937 -20.621  0.00  0.00    +0.008 C 
ATOM     10  C   UNL     1      35.917 -20.888 -19.885  0.00  0.00    +0.030 C 
ATOM     11  C   UNL     1      33.509 -21.083 -19.833  0.00  0.00    +0.000 C 
ATOM     12  C   UNL     1      34.768 -21.558 -19.465  0.00  0.00    +0.002 C 
ENDBRANCH   5   7
BRANCH   4  13
ATOM     13  C   UNL     1      33.695 -14.883 -22.924  0.00  0.00    +0.077 C 
ATOM     14  C   UNL     1      32.898 -14.271 -21.956  0.00  0.00    +0.018 C 
ATOM     15  C   UNL     1      32.494 -12.946 -22.122  0.00  0.00    +0.076 C 
ATOM     16  C   UNL     1      34.088 -14.171 -24.057  0.00  0.00    +0.011 C 
ATOM     17  C   UNL     1      32.887 -12.233 -23.256  0.00  0.00    +0.006 C 
ATOM     18  C   UNL     1      33.684 -12.846 -24.223  0.00  0.00    +0.001 C 
BRANCH  15  20
ATOM     19  O   UNL     1      31.889 -12.300 -19.899  0.00  0.00    -0.245 OA
ATOM     20  C   UNL     1      31.663 -12.307 -21.113  0.00  0.00    +0.338 C 
BRANCH  20  21
ATOM     21  O   UNL     1      30.574 -11.693 -21.650  0.00  0.00    -0.477 OA
ATOM     22  H   UNL     1      30.369 -10.809 -21.413  0.00  0.00    +0.295 HD
ENDBRANCH  20  21
ENDBRANCH  15  20
ENDBRANCH   4  13
TORSDOF 4
ENDMDL
MODEL 9
REMARK VINA RESULT:     -10.1      2.305      7.229
REMARK  Name = 11219835
REMARK  4 active torsions:
REMARK  status: ('A' for Active; 'I' for Inactive)
REMARK    1  A    between atoms: C_4  and  C_13
REMARK    2  A    between atoms: C_5  and  C_7
REMARK    3  A    between atoms: C_15  and  C_20
REMARK    4  A    between atoms: C_20  and  O_21
REMARK                            x       y       z     vdW  Elec       q    Type
REMARK                         _______ _______ _______ _____ _____    ______ ____
ROOT
ATOM      1  O   UNL     1      35.404 -19.000 -22.828  0.00  0.00    -0.311 OA
ATOM      2  N   UNL     1      34.080 -17.717 -21.556  0.00  0.00    -0.308 NA
ATOM      3  N   UNL     1      35.152 -17.839 -23.572  0.00  0.00    -0.007 NA
ATOM      4  C   UNL     1      34.366 -17.135 -22.754  0.00  0.00    +0.127 C 
ATOM      5  C   UNL     1      34.735 -18.846 -21.655  0.00  0.00    +0.319 C 
ENDROOT
BRANCH   5   7
ATOM      6  F   UNL     1      32.498 -20.252 -20.707  0.00  0.00    -0.204 F 
ATOM      7  C   UNL     1      34.855 -19.932 -20.726  0.00  0.00    +0.097 C 
ATOM      8  C   UNL     1      33.716 -20.610 -20.276  0.00  0.00    +0.146 C 
ATOM      9  C   UNL     1      36.115 -20.322 -20.261  0.00  0.00    +0.008 C 
ATOM     10  C   UNL     1      33.837 -21.665 -19.371  0.00  0.00    +0.030 C 
ATOM     11  C   UNL     1      36.236 -21.378 -19.356  0.00  0.00    +0.000 C 
ATOM     12  C   UNL     1      35.097 -22.048 -18.912  0.00  0.00    +0.002 C 
ENDBRANCH   5   7
BRANCH   4  13
ATOM     13  C   UNL     1      33.848 -15.842 -23.106  0.00  0.00    +0.077 C 
ATOM     14  C   UNL     1      33.224 -15.054 -22.139  0.00  0.00    +0.018 C 
ATOM     15  C   UNL     1      32.723 -13.798 -22.480  0.00  0.00    +0.076 C 
ATOM     16  C   UNL     1      33.971 -15.374 -24.414  0.00  0.00    +0.011 C 
ATOM     17  C   UNL     1      32.845 -13.329 -23.788  0.00  0.00    +0.006 C 
ATOM     18  C   UNL     1      33.469 -14.118 -24.755  0.00  0.00    +0.001 C 
BRANCH  15  20
ATOM     19  O   UNL     1      32.264 -13.050 -20.253  0.00  0.00    -0.245 OA
ATOM     20  C   UNL     1      32.071 -12.976 -21.471  0.00  0.00    +0.338 C 
BRANCH  20  21
ATOM     21  O   UNL     1      31.198 -12.083 -22.013  0.00  0.00    -0.477 OA
ATOM     22  H   UNL     1      30.498 -11.738 -21.493  0.00  0.00    +0.295 HD
ENDBRANCH  20  21
ENDBRANCH  15  20
ENDBRANCH   4  13
TORSDOF 4
ENDMDL
