MODEL 1
REMARK VINA RESULT:      -7.6      0.000      0.000
REMARK  Name = 65825
REMARK  4 active torsions:
REMARK  status: ('A' for Active; 'I' for Inactive)
REMARK    1  A    between atoms: N_1  and  C_16
REMARK    2  A    between atoms: N_2  and  C_20
REMARK    3  A    between atoms: C_16  and  C_17
REMARK    4  A    between atoms: C_20  and  C_21
REMARK                            x       y       z     vdW  Elec       q    Type
REMARK                         _______ _______ _______ _____ _____    ______ ____
ROOT
ATOM      1  N   UNL     1      32.557  -8.754 -21.224  0.00  0.00    +0.387 N 
ATOM      2  N   UNL     1      33.491  -9.601 -23.799  0.00  0.00    +0.387 N 
ATOM      3  C   UNL     1      32.668  -6.753 -23.438  0.00  0.00    -0.008 C 
ATOM      4  C   UNL     1      33.940  -7.336 -22.785  0.00  0.00    -0.042 C 
ATOM      5  C   UNL     1      31.643  -7.922 -23.425  0.00  0.00    -0.042 C 
ATOM      6  C   UNL     1      32.159  -5.477 -22.732  0.00  0.00    -0.000 C 
ATOM      7  C   UNL     1      32.925  -6.173 -24.847  0.00  0.00    -0.000 C 
ATOM      8  C   UNL     1      33.637  -7.764 -21.325  0.00  0.00    -0.079 C 
ATOM      9  C   UNL     1      31.349  -8.366 -21.965  0.00  0.00    -0.079 C 
ATOM     10  C   UNL     1      34.473  -8.522 -23.631  0.00  0.00    -0.079 C 
ATOM     11  C   UNL     1      32.180  -9.120 -24.255  0.00  0.00    -0.079 C 
ATOM     12  C   UNL     1      31.247  -4.796 -23.748  0.00  0.00    -0.000 C 
ATOM     13  C   UNL     1      31.744  -5.246 -25.118  0.00  0.00    -0.000 C 
ATOM     14  H   UNL     1      32.905  -9.603 -21.671  0.00  0.00    -0.080 HD
ATOM     15  H   UNL     1      33.342  -9.998 -22.871  0.00  0.00    -0.080 HD
ENDROOT
BRANCH   1  16
ATOM     16  C   UNL     1      32.249  -9.065 -19.832  0.00  0.00    -0.077 C 
BRANCH  16  17
ATOM     17  C   UNL     1      31.226 -10.182 -19.732  0.00  0.00    -0.021 C 
ATOM     18  C   UNL     1      31.701 -11.579 -19.881  0.00  0.00    -0.002 C 
ATOM     19  C   UNL     1      31.268 -11.063 -18.540  0.00  0.00    -0.002 C 
ENDBRANCH  16  17
ENDBRANCH   1  16
BRANCH   2  20
ATOM     20  C   UNL     1      34.002 -10.655 -24.669  0.00  0.00    -0.077 C 
BRANCH  20  21
ATOM     21  C   UNL     1      34.102 -11.978 -23.929  0.00  0.00    -0.021 C 
ATOM     22  C   UNL     1      33.412 -13.156 -24.509  0.00  0.00    -0.002 C 
ATOM     23  C   UNL     1      32.883 -12.501 -23.266  0.00  0.00    -0.002 C 
ENDBRANCH  20  21
ENDBRANCH   2  20
TORSDOF 4
ENDMDL
MODEL 2
REMARK VINA RESULT:      -7.4      0.826      4.289
REMARK  Name = 65825
REMARK  4 active torsions:
REMARK  status: ('A' for Active; 'I' for Inactive)
REMARK    1  A    between atoms: N_1  and  C_16
REMARK    2  A    between atoms: N_2  and  C_20
REMARK    3  A    between atoms: C_16  and  C_17
REMARK    4  A    between atoms: C_20  and  C_21
REMARK                            x       y       z     vdW  Elec       q    Type
REMARK                         _______ _______ _______ _____ _____    ______ ____
ROOT
ATOM      1  N   UNL     1      33.712  -9.204 -23.540  0.00  0.00    +0.387 N 
ATOM      2  N   UNL     1      32.480  -8.724 -20.996  0.00  0.00    +0.387 N 
ATOM      3  C   UNL     1      31.880  -6.863 -23.254  0.00  0.00    -0.008 C 
ATOM      4  C   UNL     1      31.371  -8.320 -23.225  0.00  0.00    -0.042 C 
ATOM      5  C   UNL     1      33.274  -6.915 -22.568  0.00  0.00    -0.042 C 
ATOM      6  C   UNL     1      31.913  -6.263 -24.677  0.00  0.00    -0.000 C 
ATOM      7  C   UNL     1      30.902  -5.869 -22.587  0.00  0.00    -0.000 C 
ATOM      8  C   UNL     1      32.330  -9.232 -24.035  0.00  0.00    -0.079 C 
ATOM      9  C   UNL     1      34.234  -7.841 -23.366  0.00  0.00    -0.079 C 
ATOM     10  C   UNL     1      31.226  -8.802 -21.757  0.00  0.00    -0.079 C 
ATOM     11  C   UNL     1      33.138  -7.415 -21.103  0.00  0.00    -0.079 C 
ATOM     12  C   UNL     1      31.960  -4.752 -24.472  0.00  0.00    -0.000 C 
ATOM     13  C   UNL     1      31.304  -4.497 -23.119  0.00  0.00    -0.000 C 
ATOM     14  H   UNL     1      33.690  -9.622 -22.609  0.00  0.00    -0.080 HD
ATOM     15  H   UNL     1      33.115  -9.399 -21.423  0.00  0.00    -0.080 HD
ENDROOT
BRANCH   1  16
ATOM     16  C   UNL     1      34.594 -10.008 -24.380  0.00  0.00    -0.077 C 
BRANCH  16  17
ATOM     17  C   UNL     1      33.798 -10.942 -25.275  0.00  0.00    -0.021 C 
ATOM     18  C   UNL     1      34.546 -11.829 -26.198  0.00  0.00    -0.002 C 
ATOM     19  C   UNL     1      33.856 -12.397 -24.993  0.00  0.00    -0.002 C 
ENDBRANCH  16  17
ENDBRANCH   1  16
BRANCH   2  20
ATOM     20  C   UNL     1      32.280  -9.105 -19.601  0.00  0.00    -0.077 C 
BRANCH  20  21
ATOM     21  C   UNL     1      31.225 -10.191 -19.474  0.00  0.00    -0.021 C 
ATOM     22  C   UNL     1      31.308 -11.110 -18.313  0.00  0.00    -0.002 C 
ATOM     23  C   UNL     1      31.641 -11.597 -19.693  0.00  0.00    -0.002 C 
ENDBRANCH  20  21
ENDBRANCH   2  20
TORSDOF 4
ENDMDL
MODEL 3
REMARK VINA RESULT:      -6.9      1.361      2.135
REMARK  Name = 65825
REMARK  4 active torsions:
REMARK  status: ('A' for Active; 'I' for Inactive)
REMARK    1  A    between atoms: N_1  and  C_16
REMARK    2  A    between atoms: N_2  and  C_20
REMARK    3  A    between atoms: C_16  and  C_17
REMARK    4  A    between atoms: C_20  and  C_21
REMARK                            x       y       z     vdW  Elec       q    Type
REMARK                         _______ _______ _______ _____ _____    ______ ____
ROOT
ATOM      1  N   UNL     1      32.030  -9.521 -21.552  0.00  0.00    +0.387 N 
ATOM      2  N   UNL     1      33.782  -8.500 -23.578  0.00  0.00    +0.387 N 
ATOM      3  C   UNL     1      31.994  -6.592 -22.135  0.00  0.00    -0.008 C 
ATOM      4  C   UNL     1      33.191  -7.285 -21.449  0.00  0.00    -0.042 C 
ATOM      5  C   UNL     1      31.448  -7.646 -23.140  0.00  0.00    -0.042 C 
ATOM      6  C   UNL     1      30.933  -6.086 -21.133  0.00  0.00    -0.000 C 
ATOM      7  C   UNL     1      32.373  -5.248 -22.797  0.00  0.00    -0.000 C 
ATOM      8  C   UNL     1      32.707  -8.546 -20.687  0.00  0.00    -0.079 C 
ATOM      9  C   UNL     1      30.977  -8.920 -22.383  0.00  0.00    -0.079 C 
ATOM     10  C   UNL     1      34.277  -7.632 -22.501  0.00  0.00    -0.079 C 
ATOM     11  C   UNL     1      32.537  -8.012 -24.185  0.00  0.00    -0.079 C 
ATOM     12  C   UNL     1      30.119  -5.051 -21.903  0.00  0.00    -0.000 C 
ATOM     13  C   UNL     1      31.051  -4.507 -22.980  0.00  0.00    -0.000 C 
ATOM     14  H   UNL     1      32.738  -9.870 -22.197  0.00  0.00    -0.080 HD
ATOM     15  H   UNL     1      33.557  -9.394 -23.142  0.00  0.00    -0.080 HD
ENDROOT
BRANCH   1  16
ATOM     16  C   UNL     1      31.518 -10.650 -20.781  0.00  0.00    -0.077 C 
BRANCH  16  17
ATOM     17  C   UNL     1      31.320 -11.871 -21.663  0.00  0.00    -0.021 C 
ATOM     18  C   UNL     1      32.398 -12.226 -22.617  0.00  0.00    -0.002 C 
ATOM     19  C   UNL     1      32.156 -13.067 -21.398  0.00  0.00    -0.002 C 
ENDBRANCH  16  17
ENDBRANCH   1  16
BRANCH   2  20
ATOM     20  C   UNL     1      34.810  -8.732 -24.588  0.00  0.00    -0.077 C 
BRANCH  20  21
ATOM     21  C   UNL     1      35.106 -10.214 -24.741  0.00  0.00    -0.021 C 
ATOM     22  C   UNL     1      35.491 -10.713 -26.083  0.00  0.00    -0.002 C 
ATOM     23  C   UNL     1      34.144 -11.042 -25.509  0.00  0.00    -0.002 C 
ENDBRANCH  20  21
ENDBRANCH   2  20
TORSDOF 4
ENDMDL
MODEL 4
REMARK VINA RESULT:      -6.5     14.187     17.453
REMARK  Name = 65825
REMARK  4 active torsions:
REMARK  status: ('A' for Active; 'I' for Inactive)
REMARK    1  A    between atoms: N_1  and  C_16
REMARK    2  A    between atoms: N_2  and  C_20
REMARK    3  A    between atoms: C_16  and  C_17
REMARK    4  A    between atoms: C_20  and  C_21
REMARK                            x       y       z     vdW  Elec       q    Type
REMARK                         _______ _______ _______ _____ _____    ______ ____
ROOT
ATOM      1  N   UNL     1      36.889 -24.985 -14.874  0.00  0.00    +0.387 N 
ATOM      2  N   UNL     1      36.151 -22.697 -16.435  0.00  0.00    +0.387 N 
ATOM      3  C   UNL     1      34.194 -23.770 -14.451  0.00  0.00    -0.008 C 
ATOM      4  C   UNL     1      35.497 -23.060 -14.027  0.00  0.00    -0.042 C 
ATOM      5  C   UNL     1      34.565 -24.537 -15.752  0.00  0.00    -0.042 C 
ATOM      6  C   UNL     1      33.612 -24.676 -13.343  0.00  0.00    -0.000 C 
ATOM      7  C   UNL     1      33.006 -22.797 -14.626  0.00  0.00    -0.000 C 
ATOM      8  C   UNL     1      36.600 -24.110 -13.730  0.00  0.00    -0.079 C 
ATOM      9  C   UNL     1      35.681 -25.579 -15.464  0.00  0.00    -0.079 C 
ATOM     10  C   UNL     1      35.939 -22.061 -15.128  0.00  0.00    -0.079 C 
ATOM     11  C   UNL     1      35.025 -23.544 -16.853  0.00  0.00    -0.079 C 
ATOM     12  C   UNL     1      32.152 -24.891 -13.730  0.00  0.00    -0.000 C 
ATOM     13  C   UNL     1      31.759 -23.674 -14.560  0.00  0.00    -0.000 C 
ATOM     14  H   UNL     1      37.294 -24.387 -15.595  0.00  0.00    -0.080 HD
ATOM     15  H   UNL     1      36.951 -23.320 -16.322  0.00  0.00    -0.080 HD
ENDROOT
BRANCH   1  16
ATOM     16  C   UNL     1      37.869 -26.008 -14.525  0.00  0.00    -0.077 C 
BRANCH  16  17
ATOM     17  C   UNL     1      39.187 -25.384 -14.100  0.00  0.00    -0.021 C 
ATOM     18  C   UNL     1      40.415 -26.208 -14.205  0.00  0.00    -0.002 C 
ATOM     19  C   UNL     1      40.182 -25.068 -15.152  0.00  0.00    -0.002 C 
ENDBRANCH  16  17
ENDBRANCH   1  16
BRANCH   2  20
ATOM     20  C   UNL     1      36.482 -21.711 -17.459  0.00  0.00    -0.077 C 
BRANCH  20  21
ATOM     21  C   UNL     1      35.850 -22.069 -18.793  0.00  0.00    -0.021 C 
ATOM     22  C   UNL     1      36.404 -21.444 -20.018  0.00  0.00    -0.002 C 
ATOM     23  C   UNL     1      35.061 -21.028 -19.495  0.00  0.00    -0.002 C 
ENDBRANCH  20  21
ENDBRANCH   2  20
TORSDOF 4
ENDMDL
MODEL 5
REMARK VINA RESULT:      -6.4      7.112     10.550
REMARK  Name = 65825
REMARK  4 active torsions:
REMARK  status: ('A' for Active; 'I' for Inactive)
REMARK    1  A    between atoms: N_1  and  C_16
REMARK    2  A    between atoms: N_2  and  C_20
REMARK    3  A    between atoms: C_16  and  C_17
REMARK    4  A    between atoms: C_20  and  C_21
REMARK                            x       y       z     vdW  Elec       q    Type
REMARK                         _______ _______ _______ _____ _____    ______ ____
ROOT
ATOM      1  N   UNL     1      34.409 -16.867 -20.747  0.00  0.00    +0.387 N 
ATOM      2  N   UNL     1      35.009 -19.653 -20.436  0.00  0.00    +0.387 N 
ATOM      3  C   UNL     1      34.946 -18.499 -23.190  0.00  0.00    -0.008 C 
ATOM      4  C   UNL     1      36.051 -18.147 -22.170  0.00  0.00    -0.042 C 
ATOM      5  C   UNL     1      33.660 -18.681 -22.335  0.00  0.00    -0.042 C 
ATOM      6  C   UNL     1      34.801 -17.444 -24.309  0.00  0.00    -0.000 C 
ATOM      7  C   UNL     1      35.293 -19.733 -24.053  0.00  0.00    -0.000 C 
ATOM      8  C   UNL     1      35.700 -16.821 -21.446  0.00  0.00    -0.079 C 
ATOM      9  C   UNL     1      33.314 -17.360 -21.594  0.00  0.00    -0.079 C 
ATOM     10  C   UNL     1      36.238 -19.316 -21.168  0.00  0.00    -0.079 C 
ATOM     11  C   UNL     1      33.848 -19.838 -21.316  0.00  0.00    -0.079 C 
ATOM     12  C   UNL     1      34.056 -18.157 -25.434  0.00  0.00    -0.000 C 
ATOM     13  C   UNL     1      34.375 -19.639 -25.269  0.00  0.00    -0.000 C 
ATOM     14  H   UNL     1      34.516 -17.547 -19.994  0.00  0.00    -0.080 HD
ATOM     15  H   UNL     1      34.797 -18.846 -19.849  0.00  0.00    -0.080 HD
ENDROOT
BRANCH   1  16
ATOM     16  C   UNL     1      34.081 -15.576 -20.152  0.00  0.00    -0.077 C 
BRANCH  16  17
ATOM     17  C   UNL     1      32.829 -14.985 -20.776  0.00  0.00    -0.021 C 
ATOM     18  C   UNL     1      32.503 -13.569 -20.480  0.00  0.00    -0.002 C 
ATOM     19  C   UNL     1      32.993 -13.967 -21.842  0.00  0.00    -0.002 C 
ENDBRANCH  16  17
ENDBRANCH   1  16
BRANCH   2  20
ATOM     20  C   UNL     1      35.207 -20.809 -19.568  0.00  0.00    -0.077 C 
BRANCH  20  21
ATOM     21  C   UNL     1      33.954 -21.665 -19.497  0.00  0.00    -0.021 C 
ATOM     22  C   UNL     1      33.715 -22.450 -18.262  0.00  0.00    -0.002 C 
ATOM     23  C   UNL     1      34.112 -23.139 -19.534  0.00  0.00    -0.002 C 
ENDBRANCH  20  21
ENDBRANCH   2  20
TORSDOF 4
ENDMDL
MODEL 6
REMARK VINA RESULT:      -6.3     14.114     17.545
REMARK  Name = 65825
REMARK  4 active torsions:
REMARK  status: ('A' for Active; 'I' for Inactive)
REMARK    1  A    between atoms: N_1  and  C_16
REMARK    2  A    between atoms: N_2  and  C_20
REMARK    3  A    between atoms: C_16  and  C_17
REMARK    4  A    between atoms: C_20  and  C_21
REMARK                            x       y       z     vdW  Elec       q    Type
REMARK                         _______ _______ _______ _____ _____    ______ ____
ROOT
ATOM      1  N   UNL     1      34.176 -23.719 -14.054  0.00  0.00    +0.387 N 
ATOM      2  N   UNL     1      36.113 -22.469 -15.758  0.00  0.00    +0.387 N 
ATOM      3  C   UNL     1      36.954 -24.813 -14.109  0.00  0.00    -0.008 C 
ATOM      4  C   UNL     1      35.988 -24.947 -15.306  0.00  0.00    -0.042 C 
ATOM      5  C   UNL     1      36.617 -23.431 -13.480  0.00  0.00    -0.042 C 
ATOM      6  C   UNL     1      36.848 -25.988 -13.113  0.00  0.00    -0.000 C 
ATOM      7  C   UNL     1      38.439 -24.961 -14.513  0.00  0.00    -0.000 C 
ATOM      8  C   UNL     1      34.520 -24.933 -14.806  0.00  0.00    -0.079 C 
ATOM      9  C   UNL     1      35.142 -23.406 -12.992  0.00  0.00    -0.079 C 
ATOM     10  C   UNL     1      36.255 -23.814 -16.332  0.00  0.00    -0.079 C 
ATOM     11  C   UNL     1      36.864 -22.294 -14.508  0.00  0.00    -0.079 C 
ATOM     12  C   UNL     1      38.143 -25.947 -12.308  0.00  0.00    -0.000 C 
ATOM     13  C   UNL     1      39.174 -25.283 -13.215  0.00  0.00    -0.000 C 
ATOM     14  H   UNL     1      34.224 -22.948 -14.721  0.00  0.00    -0.080 HD
ATOM     15  H   UNL     1      35.127 -22.366 -15.516  0.00  0.00    -0.080 HD
ENDROOT
BRANCH   1  16
ATOM     16  C   UNL     1      32.815 -23.786 -13.532  0.00  0.00    -0.077 C 
BRANCH  16  17
ATOM     17  C   UNL     1      31.905 -22.797 -14.241  0.00  0.00    -0.021 C 
ATOM     18  C   UNL     1      31.428 -23.140 -15.602  0.00  0.00    -0.002 C 
ATOM     19  C   UNL     1      30.484 -23.171 -14.436  0.00  0.00    -0.002 C 
ENDBRANCH  16  17
ENDBRANCH   1  16
BRANCH   2  20
ATOM     20  C   UNL     1      36.454 -21.437 -16.732  0.00  0.00    -0.077 C 
BRANCH  20  21
ATOM     21  C   UNL     1      36.411 -21.983 -18.149  0.00  0.00    -0.021 C 
ATOM     22  C   UNL     1      36.535 -21.020 -19.271  0.00  0.00    -0.002 C 
ATOM     23  C   UNL     1      35.219 -21.680 -18.979  0.00  0.00    -0.002 C 
ENDBRANCH  20  21
ENDBRANCH   2  20
TORSDOF 4
ENDMDL
MODEL 7
REMARK VINA RESULT:      -6.1      1.567      4.799
REMARK  Name = 65825
REMARK  4 active torsions:
REMARK  status: ('A' for Active; 'I' for Inactive)
REMARK    1  A    between atoms: N_1  and  C_16
REMARK    2  A    between atoms: N_2  and  C_20
REMARK    3  A    between atoms: C_16  and  C_17
REMARK    4  A    between atoms: C_20  and  C_21
REMARK                            x       y       z     vdW  Elec       q    Type
REMARK                         _______ _______ _______ _____ _____    ______ ____
ROOT
ATOM      1  N   UNL     1      32.825  -6.622 -24.732  0.00  0.00    +0.387 N 
ATOM      2  N   UNL     1      33.058  -9.441 -24.265  0.00  0.00    +0.387 N 
ATOM      3  C   UNL     1      32.177  -7.683 -22.017  0.00  0.00    -0.008 C 
ATOM      4  C   UNL     1      31.288  -7.961 -23.248  0.00  0.00    -0.042 C 
ATOM      5  C   UNL     1      33.629  -7.656 -22.574  0.00  0.00    -0.042 C 
ATOM      6  C   UNL     1      31.780  -6.395 -21.264  0.00  0.00    -0.000 C 
ATOM      7  C   UNL     1      31.972  -8.710 -20.881  0.00  0.00    -0.000 C 
ATOM      8  C   UNL     1      31.441  -6.814 -24.281  0.00  0.00    -0.079 C 
ATOM      9  C   UNL     1      33.783  -6.519 -23.623  0.00  0.00    -0.079 C 
ATOM     10  C   UNL     1      31.649  -9.338 -23.863  0.00  0.00    -0.079 C 
ATOM     11  C   UNL     1      33.991  -9.027 -23.208  0.00  0.00    -0.079 C 
ATOM     12  C   UNL     1      32.402  -6.535 -19.878  0.00  0.00    -0.000 C 
ATOM     13  C   UNL     1      32.525  -8.035 -19.629  0.00  0.00    -0.000 C 
ATOM     14  H   UNL     1      33.076  -7.464 -25.249  0.00  0.00    -0.080 HD
ATOM     15  H   UNL     1      33.184  -8.779 -25.032  0.00  0.00    -0.080 HD
ENDROOT
BRANCH   1  16
ATOM     16  C   UNL     1      32.935  -5.482 -25.637  0.00  0.00    -0.077 C 
BRANCH  16  17
ATOM     17  C   UNL     1      31.749  -4.545 -25.487  0.00  0.00    -0.021 C 
ATOM     18  C   UNL     1      31.959  -3.261 -24.776  0.00  0.00    -0.002 C 
ATOM     19  C   UNL     1      31.756  -3.281 -26.263  0.00  0.00    -0.002 C 
ENDBRANCH  16  17
ENDBRANCH   1  16
BRANCH   2  20
ATOM     20  C   UNL     1      33.375 -10.777 -24.759  0.00  0.00    -0.077 C 
BRANCH  20  21
ATOM     21  C   UNL     1      33.740 -11.712 -23.620  0.00  0.00    -0.021 C 
ATOM     22  C   UNL     1      33.804 -13.167 -23.904  0.00  0.00    -0.002 C 
ATOM     23  C   UNL     1      32.682 -12.603 -23.081  0.00  0.00    -0.002 C 
ENDBRANCH  20  21
ENDBRANCH   2  20
TORSDOF 4
ENDMDL
MODEL 8
REMARK VINA RESULT:      -5.9      1.511      4.981
REMARK  Name = 65825
REMARK  4 active torsions:
REMARK  status: ('A' for Active; 'I' for Inactive)
REMARK    1  A    between atoms: N_1  and  C_16
REMARK    2  A    between atoms: N_2  and  C_20
REMARK    3  A    between atoms: C_16  and  C_17
REMARK    4  A    between atoms: C_20  and  C_21
REMARK                            x       y       z     vdW  Elec       q    Type
REMARK                         _______ _______ _______ _____ _____    ______ ____
ROOT
ATOM      1  N   UNL     1      32.871  -9.509 -24.137  0.00  0.00    +0.387 N 
ATOM      2  N   UNL     1      32.494  -6.698 -24.558  0.00  0.00    +0.387 N 
ATOM      3  C   UNL     1      32.668  -7.717 -21.756  0.00  0.00    -0.008 C 
ATOM      4  C   UNL     1      33.884  -7.696 -22.706  0.00  0.00    -0.042 C 
ATOM      5  C   UNL     1      31.451  -8.018 -22.676  0.00  0.00    -0.042 C 
ATOM      6  C   UNL     1      32.827  -8.722 -20.594  0.00  0.00    -0.000 C 
ATOM      7  C   UNL     1      32.517  -6.414 -20.940  0.00  0.00    -0.000 C 
ATOM      8  C   UNL     1      34.055  -9.084 -23.379  0.00  0.00    -0.079 C 
ATOM      9  C   UNL     1      31.624  -9.399 -23.366  0.00  0.00    -0.079 C 
ATOM     10  C   UNL     1      33.718  -6.567 -23.756  0.00  0.00    -0.079 C 
ATOM     11  C   UNL     1      31.290  -6.899 -23.742  0.00  0.00    -0.079 C 
ATOM     12  C   UNL     1      31.817  -8.277 -19.541  0.00  0.00    -0.000 C 
ATOM     13  C   UNL     1      31.617  -6.782 -19.764  0.00  0.00    -0.000 C 
ATOM     14  H   UNL     1      32.782  -8.857 -24.917  0.00  0.00    -0.080 HD
ATOM     15  H   UNL     1      32.608  -7.546 -25.113  0.00  0.00    -0.080 HD
ENDROOT
BRANCH   1  16
ATOM     16  C   UNL     1      33.042 -10.851 -24.682  0.00  0.00    -0.077 C 
BRANCH  16  17
ATOM     17  C   UNL     1      33.621 -11.796 -23.643  0.00  0.00    -0.021 C 
ATOM     18  C   UNL     1      32.710 -12.780 -23.010  0.00  0.00    -0.002 C 
ATOM     19  C   UNL     1      33.747 -13.230 -23.996  0.00  0.00    -0.002 C 
ENDBRANCH  16  17
ENDBRANCH   1  16
BRANCH   2  20
ATOM     20  C   UNL     1      32.334  -5.572 -25.472  0.00  0.00    -0.077 C 
BRANCH  20  21
ATOM     21  C   UNL     1      31.274  -4.605 -24.974  0.00  0.00    -0.021 C 
ATOM     22  C   UNL     1      31.181  -3.276 -25.624  0.00  0.00    -0.002 C 
ATOM     23  C   UNL     1      31.719  -3.403 -24.229  0.00  0.00    -0.002 C 
ENDBRANCH  20  21
ENDBRANCH   2  20
TORSDOF 4
ENDMDL
MODEL 9
REMARK VINA RESULT:      -5.9     15.148     17.939
REMARK  Name = 65825
REMARK  4 active torsions:
REMARK  status: ('A' for Active; 'I' for Inactive)
REMARK    1  A    between atoms: N_1  and  C_16
REMARK    2  A    between atoms: N_2  and  C_20
REMARK    3  A    between atoms: C_16  and  C_17
REMARK    4  A    between atoms: C_20  and  C_21
REMARK                            x       y       z     vdW  Elec       q    Type
REMARK                         _______ _______ _______ _____ _____    ______ ____
ROOT
ATOM      1  N   UNL     1      34.433 -24.718 -13.713  0.00  0.00    +0.387 N 
ATOM      2  N   UNL     1      37.244 -25.281 -13.673  0.00  0.00    +0.387 N 
ATOM      3  C   UNL     1      36.254 -23.039 -15.380  0.00  0.00    -0.008 C 
ATOM      4  C   UNL     1      36.246 -22.971 -13.839  0.00  0.00    -0.042 C 
ATOM      5  C   UNL     1      35.961 -24.530 -15.713  0.00  0.00    -0.042 C 
ATOM      6  C   UNL     1      35.261 -22.053 -16.034  0.00  0.00    -0.000 C 
ATOM      7  C   UNL     1      37.569 -22.516 -16.001  0.00  0.00    -0.000 C 
ATOM      8  C   UNL     1      34.849 -23.373 -13.297  0.00  0.00    -0.079 C 
ATOM      9  C   UNL     1      34.569 -24.943 -15.159  0.00  0.00    -0.079 C 
ATOM     10  C   UNL     1      37.366 -23.876 -13.262  0.00  0.00    -0.079 C 
ATOM     11  C   UNL     1      37.069 -25.444 -15.122  0.00  0.00    -0.079 C 
ATOM     12  C   UNL     1      35.733 -21.909 -17.477  0.00  0.00    -0.000 C 
ATOM     13  C   UNL     1      37.228 -22.208 -17.456  0.00  0.00    -0.000 C 
ATOM     14  H   UNL     1      35.077 -25.368 -13.261  0.00  0.00    -0.080 HD
ATOM     15  H   UNL     1      36.388 -25.630 -13.241  0.00  0.00    -0.080 HD
ENDROOT
BRANCH   1  16
ATOM     16  C   UNL     1      33.081 -25.022 -13.253  0.00  0.00    -0.077 C 
BRANCH  16  17
ATOM     17  C   UNL     1      32.039 -24.478 -14.215  0.00  0.00    -0.021 C 
ATOM     18  C   UNL     1      30.645 -24.964 -14.080  0.00  0.00    -0.002 C 
ATOM     19  C   UNL     1      31.003 -23.563 -13.678  0.00  0.00    -0.002 C 
ENDBRANCH  16  17
ENDBRANCH   1  16
BRANCH   2  20
ATOM     20  C   UNL     1      38.361 -26.079 -13.179  0.00  0.00    -0.077 C 
BRANCH  20  21
ATOM     21  C   UNL     1      39.693 -25.456 -13.561  0.00  0.00    -0.021 C 
ATOM     22  C   UNL     1      40.070 -25.440 -14.995  0.00  0.00    -0.002 C 
ATOM     23  C   UNL     1      40.774 -26.354 -14.035  0.00  0.00    -0.002 C 
ENDBRANCH  20  21
ENDBRANCH   2  20
TORSDOF 4
ENDMDL
