MODEL 1
REMARK VINA RESULT:     -10.5      0.000      0.000
REMARK  Name = 87517
REMARK  6 active torsions:
REMARK  status: ('A' for Active; 'I' for Inactive)
REMARK    1  A    between atoms: C_3  and  C_13
REMARK    2  A    between atoms: C_4  and  O_22
REMARK    3  A    between atoms: N_12  and  C_16
REMARK    4  A    between atoms: O_22  and  P_23
REMARK    5  A    between atoms: P_23  and  O_25
REMARK    6  A    between atoms: P_23  and  O_27
REMARK                            x       y       z     vdW  Elec       q    Type
REMARK                         _______ _______ _______ _____ _____    ______ ____
ROOT
ATOM      1  C   UNL     1      31.552 -23.794 -15.868  0.00  0.00    +0.000 C 
ATOM      2  C   UNL     1      32.467 -23.993 -14.807  0.00  0.00    +0.003 C 
ATOM      3  C   UNL     1      33.395 -23.150 -17.320  0.00  0.00    +0.088 C 
ATOM      4  C   UNL     1      34.294 -23.345 -16.276  0.00  0.00    +0.153 C 
ATOM      5  C   UNL     1      32.033 -23.372 -17.118  0.00  0.00    +0.008 C 
ATOM      6  C   UNL     1      33.834 -23.763 -15.027  0.00  0.00    +0.038 C 
ATOM      7  C   UNL     1      30.184 -24.023 -15.648  0.00  0.00    +0.000 C 
ATOM      8  C   UNL     1      31.986 -24.413 -13.556  0.00  0.00    +0.000 C 
ATOM      9  C   UNL     1      29.725 -24.442 -14.399  0.00  0.00    +0.000 C 
ATOM     10  C   UNL     1      30.624 -24.636 -13.355  0.00  0.00    +0.000 C 
ENDROOT
BRANCH   3  13
ATOM     11  O   UNL     1      34.112 -23.566 -19.493  0.00  0.00    -0.270 OA
ATOM     12  N   UNL     1      33.948 -21.327 -18.813  0.00  0.00    -0.280 N 
ATOM     13  C   UNL     1      33.856 -22.713 -18.631  0.00  0.00    +0.252 C 
ATOM     14  H   UNL     1      33.710 -20.774 -18.033  0.00  0.00    +0.155 HD
BRANCH  12  16
ATOM     15 CL   UNL     1      35.576 -18.364 -23.656  0.00  0.00    -0.082 Cl
ATOM     16  C   UNL     1      34.338 -20.617 -19.975  0.00  0.00    +0.051 C 
ATOM     17  C   UNL     1      33.365 -20.056 -20.785  0.00  0.00    +0.016 C 
ATOM     18  C   UNL     1      35.685 -20.498 -20.274  0.00  0.00    +0.016 C 
ATOM     19  C   UNL     1      33.749 -19.357 -21.928  0.00  0.00    +0.013 C 
ATOM     20  C   UNL     1      36.069 -19.798 -21.419  0.00  0.00    +0.013 C 
ATOM     21  C   UNL     1      35.101 -19.228 -22.245  0.00  0.00    +0.058 C 
ENDBRANCH  12  16
ENDBRANCH   3  13
BRANCH   4  22
ATOM     22  O   UNL     1      35.629 -23.133 -16.453  0.00  0.00    -0.403 OA
BRANCH  22  23
ATOM     23  P   UNL     1      36.785 -23.544 -15.400  0.00  0.00    +0.528 P 
ATOM     24  O   UNL     1      36.589 -23.038 -14.000  0.00  0.00    -0.216 OA
BRANCH  23  25
ATOM     25  O   UNL     1      36.908 -25.149 -15.553  0.00  0.00    -0.293 OA
ATOM     26  H   UNL     1      36.657 -25.575 -14.718  0.00  0.00    +0.223 HD
ENDBRANCH  23  25
BRANCH  23  27
ATOM     27  O   UNL     1      38.132 -23.007 -16.121  0.00  0.00    -0.293 OA
ATOM     28  H   UNL     1      37.894 -22.381 -16.823  0.00  0.00    +0.223 HD
ENDBRANCH  23  27
ENDBRANCH  22  23
ENDBRANCH   4  22
TORSDOF 6
ENDMDL
MODEL 2
REMARK VINA RESULT:     -10.4      3.015      7.018
REMARK  Name = 87517
REMARK  6 active torsions:
REMARK  status: ('A' for Active; 'I' for Inactive)
REMARK    1  A    between atoms: C_3  and  C_13
REMARK    2  A    between atoms: C_4  and  O_22
REMARK    3  A    between atoms: N_12  and  C_16
REMARK    4  A    between atoms: O_22  and  P_23
REMARK    5  A    between atoms: P_23  and  O_25
REMARK    6  A    between atoms: P_23  and  O_27
REMARK                            x       y       z     vdW  Elec       q    Type
REMARK                         _______ _______ _______ _____ _____    ______ ____
ROOT
ATOM      1  C   UNL     1      34.484 -20.090 -20.664  0.00  0.00    +0.000 C 
ATOM      2  C   UNL     1      35.876 -20.002 -20.427  0.00  0.00    +0.003 C 
ATOM      3  C   UNL     1      34.337 -21.913 -19.060  0.00  0.00    +0.088 C 
ATOM      4  C   UNL     1      35.706 -21.827 -18.828  0.00  0.00    +0.153 C 
ATOM      5  C   UNL     1      33.729 -21.050 -19.972  0.00  0.00    +0.008 C 
ATOM      6  C   UNL     1      36.472 -20.879 -19.506  0.00  0.00    +0.038 C 
ATOM      7  C   UNL     1      33.888 -19.213 -21.585  0.00  0.00    +0.000 C 
ATOM      8  C   UNL     1      36.632 -19.042 -21.120  0.00  0.00    +0.000 C 
ATOM      9  C   UNL     1      34.654 -18.264 -22.263  0.00  0.00    +0.000 C 
ATOM     10  C   UNL     1      36.023 -18.179 -22.031  0.00  0.00    +0.000 C 
ENDROOT
BRANCH   3  13
ATOM     11  O   UNL     1      33.658 -24.097 -18.640  0.00  0.00    -0.270 OA
ATOM     12  N   UNL     1      32.645 -22.386 -17.395  0.00  0.00    -0.280 N 
ATOM     13  C   UNL     1      33.521 -22.897 -18.362  0.00  0.00    +0.252 C 
ATOM     14  H   UNL     1      32.648 -21.407 -17.288  0.00  0.00    +0.155 HD
BRANCH  12  16
ATOM     15 CL   UNL     1      28.938 -25.343 -13.874  0.00  0.00    -0.082 Cl
ATOM     16  C   UNL     1      31.756 -23.095 -16.551  0.00  0.00    +0.051 C 
ATOM     17  C   UNL     1      32.262 -23.784 -15.461  0.00  0.00    +0.016 C 
ATOM     18  C   UNL     1      30.401 -23.084 -16.834  0.00  0.00    +0.016 C 
ATOM     19  C   UNL     1      31.387 -24.482 -14.630  0.00  0.00    +0.013 C 
ATOM     20  C   UNL     1      29.526 -23.783 -16.002  0.00  0.00    +0.013 C 
ATOM     21  C   UNL     1      30.019 -24.482 -14.900  0.00  0.00    +0.058 C 
ENDBRANCH  12  16
ENDBRANCH   3  13
BRANCH   4  22
ATOM     22  O   UNL     1      36.319 -22.661 -17.940  0.00  0.00    -0.403 OA
BRANCH  22  23
ATOM     23  P   UNL     1      36.658 -22.297 -16.401  0.00  0.00    +0.528 P 
ATOM     24  O   UNL     1      35.477 -22.256 -15.476  0.00  0.00    -0.216 OA
BRANCH  23  25
ATOM     25  O   UNL     1      37.829 -23.336 -15.997  0.00  0.00    -0.293 OA
ATOM     26  H   UNL     1      37.458 -24.230 -15.926  0.00  0.00    +0.223 HD
ENDBRANCH  23  25
BRANCH  23  27
ATOM     27  O   UNL     1      37.452 -20.892 -16.534  0.00  0.00    -0.293 OA
ATOM     28  H   UNL     1      38.377 -21.017 -16.273  0.00  0.00    +0.223 HD
ENDBRANCH  23  27
ENDBRANCH  22  23
ENDBRANCH   4  22
TORSDOF 6
ENDMDL
MODEL 3
REMARK VINA RESULT:     -10.2      6.677     10.487
REMARK  Name = 87517
REMARK  6 active torsions:
REMARK  status: ('A' for Active; 'I' for Inactive)
REMARK    1  A    between atoms: C_3  and  C_13
REMARK    2  A    between atoms: C_4  and  O_22
REMARK    3  A    between atoms: N_12  and  C_16
REMARK    4  A    between atoms: O_22  and  P_23
REMARK    5  A    between atoms: P_23  and  O_25
REMARK    6  A    between atoms: P_23  and  O_27
REMARK                            x       y       z     vdW  Elec       q    Type
REMARK                         _______ _______ _______ _____ _____    ______ ____
ROOT
ATOM      1  C   UNL     1      32.414 -12.862 -21.344  0.00  0.00    +0.000 C 
ATOM      2  C   UNL     1      32.727 -12.545 -22.687  0.00  0.00    +0.003 C 
ATOM      3  C   UNL     1      33.698 -14.919 -21.542  0.00  0.00    +0.088 C 
ATOM      4  C   UNL     1      34.006 -14.607 -22.863  0.00  0.00    +0.153 C 
ATOM      5  C   UNL     1      32.907 -14.053 -20.787  0.00  0.00    +0.008 C 
ATOM      6  C   UNL     1      33.524 -13.428 -23.433  0.00  0.00    +0.038 C 
ATOM      7  C   UNL     1      31.617 -11.978 -20.598  0.00  0.00    +0.000 C 
ATOM      8  C   UNL     1      32.233 -11.354 -23.244  0.00  0.00    +0.000 C 
ATOM      9  C   UNL     1      31.136 -10.799 -21.167  0.00  0.00    +0.000 C 
ATOM     10  C   UNL     1      31.443 -10.488 -22.488  0.00  0.00    +0.000 C 
ENDROOT
BRANCH   3  13
ATOM     11  O   UNL     1      35.060 -16.069 -20.048  0.00  0.00    -0.270 OA
ATOM     12  N   UNL     1      33.606 -17.332 -21.387  0.00  0.00    -0.280 N 
ATOM     13  C   UNL     1      34.191 -16.145 -20.930  0.00  0.00    +0.252 C 
ATOM     14  H   UNL     1      32.928 -17.232 -22.094  0.00  0.00    +0.155 HD
BRANCH  12  16
ATOM     15 CL   UNL     1      34.679 -22.866 -19.624  0.00  0.00    -0.082 Cl
ATOM     16  C   UNL     1      33.863 -18.660 -20.965  0.00  0.00    +0.051 C 
ATOM     17  C   UNL     1      35.159 -19.145 -21.009  0.00  0.00    +0.016 C 
ATOM     18  C   UNL     1      32.813 -19.442 -20.516  0.00  0.00    +0.016 C 
ATOM     19  C   UNL     1      35.413 -20.451 -20.593  0.00  0.00    +0.013 C 
ATOM     20  C   UNL     1      33.067 -20.750 -20.100  0.00  0.00    +0.013 C 
ATOM     21  C   UNL     1      34.367 -21.254 -20.139  0.00  0.00    +0.058 C 
ENDBRANCH  12  16
ENDBRANCH   3  13
BRANCH   4  22
ATOM     22  O   UNL     1      34.777 -15.440 -23.617  0.00  0.00    -0.403 OA
BRANCH  22  23
ATOM     23  P   UNL     1      34.266 -16.268 -24.909  0.00  0.00    +0.528 P 
ATOM     24  O   UNL     1      33.046 -15.714 -25.585  0.00  0.00    -0.216 OA
BRANCH  23  25
ATOM     25  O   UNL     1      35.582 -16.403 -25.839  0.00  0.00    -0.293 OA
ATOM     26  H   UNL     1      35.825 -15.529 -26.184  0.00  0.00    +0.223 HD
ENDBRANCH  23  25
BRANCH  23  27
ATOM     27  O   UNL     1      34.082 -17.766 -24.322  0.00  0.00    -0.293 OA
ATOM     28  H   UNL     1      34.933 -18.230 -24.350  0.00  0.00    +0.223 HD
ENDBRANCH  23  27
ENDBRANCH  22  23
ENDBRANCH   4  22
TORSDOF 6
ENDMDL
MODEL 4
REMARK VINA RESULT:     -10.2      9.969     12.611
REMARK  Name = 87517
REMARK  6 active torsions:
REMARK  status: ('A' for Active; 'I' for Inactive)
REMARK    1  A    between atoms: C_3  and  C_13
REMARK    2  A    between atoms: C_4  and  O_22
REMARK    3  A    between atoms: N_12  and  C_16
REMARK    4  A    between atoms: O_22  and  P_23
REMARK    5  A    between atoms: P_23  and  O_25
REMARK    6  A    between atoms: P_23  and  O_27
REMARK                            x       y       z     vdW  Elec       q    Type
REMARK                         _______ _______ _______ _____ _____    ______ ____
ROOT
ATOM      1  C   UNL     1      34.583 -16.122 -22.804  0.00  0.00    +0.000 C 
ATOM      2  C   UNL     1      34.406 -16.631 -24.113  0.00  0.00    +0.003 C 
ATOM      3  C   UNL     1      33.385 -14.103 -23.441  0.00  0.00    +0.088 C 
ATOM      4  C   UNL     1      33.212 -14.603 -24.728  0.00  0.00    +0.153 C 
ATOM      5  C   UNL     1      34.066 -14.856 -22.485  0.00  0.00    +0.008 C 
ATOM      6  C   UNL     1      33.719 -15.858 -25.063  0.00  0.00    +0.038 C 
ATOM      7  C   UNL     1      35.270 -16.895 -21.854  0.00  0.00    +0.000 C 
ATOM      8  C   UNL     1      34.924 -17.897 -24.432  0.00  0.00    +0.000 C 
ATOM      9  C   UNL     1      35.776 -18.150 -22.189  0.00  0.00    +0.000 C 
ATOM     10  C   UNL     1      35.604 -18.650 -23.476  0.00  0.00    +0.000 C 
ENDROOT
BRANCH   3  13
ATOM     11  O   UNL     1      31.939 -12.725 -22.248  0.00  0.00    -0.270 OA
ATOM     12  N   UNL     1      33.485 -11.696 -23.681  0.00  0.00    -0.280 N 
ATOM     13  C   UNL     1      32.863 -12.793 -23.072  0.00  0.00    +0.252 C 
ATOM     14  H   UNL     1      34.206 -11.910 -24.317  0.00  0.00    +0.155 HD
BRANCH  12  16
ATOM     15 CL   UNL     1      32.345  -5.950 -22.929  0.00  0.00    -0.082 Cl
ATOM     16  C   UNL     1      33.212 -10.318 -23.501  0.00  0.00    +0.051 C 
ATOM     17  C   UNL     1      31.979  -9.932 -23.003  0.00  0.00    +0.016 C 
ATOM     18  C   UNL     1      34.184  -9.387 -23.826  0.00  0.00    +0.016 C 
ATOM     19  C   UNL     1      31.710  -8.576 -22.826  0.00  0.00    +0.013 C 
ATOM     20  C   UNL     1      33.914  -8.030 -23.648  0.00  0.00    +0.013 C 
ATOM     21  C   UNL     1      32.677  -7.625 -23.148  0.00  0.00    +0.058 C 
ENDBRANCH  12  16
ENDBRANCH   3  13
BRANCH   4  22
ATOM     22  O   UNL     1      32.549 -13.882 -25.676  0.00  0.00    -0.403 OA
BRANCH  22  23
ATOM     23  P   UNL     1      33.213 -13.284 -27.024  0.00  0.00    +0.528 P 
ATOM     24  O   UNL     1      34.116 -14.224 -27.767  0.00  0.00    -0.216 OA
BRANCH  23  25
ATOM     25  O   UNL     1      31.956 -12.709 -27.863  0.00  0.00    -0.293 OA
ATOM     26  H   UNL     1      31.163 -13.229 -27.655  0.00  0.00    +0.223 HD
ENDBRANCH  23  25
BRANCH  23  27
ATOM     27  O   UNL     1      33.941 -11.937 -26.495  0.00  0.00    -0.293 OA
ATOM     28  H   UNL     1      34.063 -11.993 -25.534  0.00  0.00    +0.223 HD
ENDBRANCH  23  27
ENDBRANCH  22  23
ENDBRANCH   4  22
TORSDOF 6
ENDMDL
MODEL 5
REMARK VINA RESULT:      -9.9     11.070     14.663
REMARK  Name = 87517
REMARK  6 active torsions:
REMARK  status: ('A' for Active; 'I' for Inactive)
REMARK    1  A    between atoms: C_3  and  C_13
REMARK    2  A    between atoms: C_4  and  O_22
REMARK    3  A    between atoms: N_12  and  C_16
REMARK    4  A    between atoms: O_22  and  P_23
REMARK    5  A    between atoms: P_23  and  O_25
REMARK    6  A    between atoms: P_23  and  O_27
REMARK                            x       y       z     vdW  Elec       q    Type
REMARK                         _______ _______ _______ _____ _____    ______ ____
ROOT
ATOM      1  C   UNL     1      32.337  -7.021 -23.721  0.00  0.00    +0.000 C 
ATOM      2  C   UNL     1      31.791  -6.934 -22.418  0.00  0.00    +0.003 C 
ATOM      3  C   UNL     1      33.029  -9.308 -23.266  0.00  0.00    +0.088 C 
ATOM      4  C   UNL     1      32.493  -9.223 -21.984  0.00  0.00    +0.153 C 
ATOM      5  C   UNL     1      32.952  -8.216 -24.129  0.00  0.00    +0.008 C 
ATOM      6  C   UNL     1      31.879  -8.044 -21.562  0.00  0.00    +0.038 C 
ATOM      7  C   UNL     1      32.249  -5.911 -24.577  0.00  0.00    +0.000 C 
ATOM      8  C   UNL     1      31.177  -5.740 -22.009  0.00  0.00    +0.000 C 
ATOM      9  C   UNL     1      31.634  -4.733 -24.154  0.00  0.00    +0.000 C 
ATOM     10  C   UNL     1      31.099  -4.647 -22.873  0.00  0.00    +0.000 C 
ENDROOT
BRANCH   3  13
ATOM     11  O   UNL     1      34.788 -10.454 -24.267  0.00  0.00    -0.270 OA
ATOM     12  N   UNL     1      32.973 -11.718 -23.485  0.00  0.00    -0.280 N 
ATOM     13  C   UNL     1      33.675 -10.531 -23.725  0.00  0.00    +0.252 C 
ATOM     14  H   UNL     1      32.098 -11.618 -23.045  0.00  0.00    +0.155 HD
BRANCH  12  16
ATOM     15 CL   UNL     1      34.577 -17.254 -24.775  0.00  0.00    -0.082 Cl
ATOM     16  C   UNL     1      33.358 -13.046 -23.795  0.00  0.00    +0.051 C 
ATOM     17  C   UNL     1      34.108 -13.764 -22.879  0.00  0.00    +0.016 C 
ATOM     18  C   UNL     1      32.974 -13.596 -25.006  0.00  0.00    +0.016 C 
ATOM     19  C   UNL     1      34.487 -15.071 -23.183  0.00  0.00    +0.013 C 
ATOM     20  C   UNL     1      33.354 -14.904 -25.310  0.00  0.00    +0.013 C 
ATOM     21  C   UNL     1      34.110 -15.641 -24.399  0.00  0.00    +0.058 C 
ENDBRANCH  12  16
ENDBRANCH   3  13
BRANCH   4  22
ATOM     22  O   UNL     1      32.558 -10.280 -21.126  0.00  0.00    -0.403 OA
BRANCH  22  23
ATOM     23  P   UNL     1      31.289 -11.133 -20.600  0.00  0.00    +0.528 P 
ATOM     24  O   UNL     1      30.598 -10.576 -19.390  0.00  0.00    -0.216 OA
BRANCH  23  25
ATOM     25  O   UNL     1      30.363 -11.315 -21.914  0.00  0.00    -0.293 OA
ATOM     26  H   UNL     1      29.700 -12.005 -21.750  0.00  0.00    +0.223 HD
ENDBRANCH  23  25
BRANCH  23  27
ATOM     27  O   UNL     1      31.915 -12.611 -20.391  0.00  0.00    -0.293 OA
ATOM     28  H   UNL     1      32.733 -12.545 -19.874  0.00  0.00    +0.223 HD
ENDBRANCH  23  27
ENDBRANCH  22  23
ENDBRANCH   4  22
TORSDOF 6
ENDMDL
MODEL 6
REMARK VINA RESULT:      -9.6      2.899      4.427
REMARK  Name = 87517
REMARK  6 active torsions:
REMARK  status: ('A' for Active; 'I' for Inactive)
REMARK    1  A    between atoms: C_3  and  C_13
REMARK    2  A    between atoms: C_4  and  O_22
REMARK    3  A    between atoms: N_12  and  C_16
REMARK    4  A    between atoms: O_22  and  P_23
REMARK    5  A    between atoms: P_23  and  O_25
REMARK    6  A    between atoms: P_23  and  O_27
REMARK                            x       y       z     vdW  Elec       q    Type
REMARK                         _______ _______ _______ _____ _____    ______ ____
ROOT
ATOM      1  C   UNL     1      37.674 -24.148 -15.066  0.00  0.00    +0.000 C 
ATOM      2  C   UNL     1      36.436 -24.606 -14.555  0.00  0.00    +0.003 C 
ATOM      3  C   UNL     1      36.492 -22.556 -16.475  0.00  0.00    +0.088 C 
ATOM      4  C   UNL     1      35.274 -23.006 -15.973  0.00  0.00    +0.153 C 
ATOM      5  C   UNL     1      37.684 -23.123 -16.025  0.00  0.00    +0.008 C 
ATOM      6  C   UNL     1      35.245 -24.024 -15.020  0.00  0.00    +0.038 C 
ATOM      7  C   UNL     1      38.865 -24.730 -14.601  0.00  0.00    +0.000 C 
ATOM      8  C   UNL     1      36.425 -25.632 -13.597  0.00  0.00    +0.000 C 
ATOM      9  C   UNL     1      38.835 -25.747 -13.647  0.00  0.00    +0.000 C 
ATOM     10  C   UNL     1      37.618 -26.198 -13.147  0.00  0.00    +0.000 C 
ENDROOT
BRANCH   3  13
ATOM     11  O   UNL     1      37.328 -20.549 -17.301  0.00  0.00    -0.270 OA
ATOM     12  N   UNL     1      35.694 -21.652 -18.574  0.00  0.00    -0.280 N 
ATOM     13  C   UNL     1      36.543 -21.494 -17.471  0.00  0.00    +0.252 C 
ATOM     14  H   UNL     1      35.127 -22.457 -18.567  0.00  0.00    +0.155 HD
BRANCH  12  16
ATOM     15 CL   UNL     1      35.076 -18.114 -23.263  0.00  0.00    -0.082 Cl
ATOM     16  C   UNL     1      35.546 -20.804 -19.698  0.00  0.00    +0.051 C 
ATOM     17  C   UNL     1      34.285 -20.605 -20.235  0.00  0.00    +0.016 C 
ATOM     18  C   UNL     1      36.666 -20.191 -20.236  0.00  0.00    +0.016 C 
ATOM     19  C   UNL     1      34.139 -19.770 -21.342  0.00  0.00    +0.013 C 
ATOM     20  C   UNL     1      36.519 -19.356 -21.344  0.00  0.00    +0.013 C 
ATOM     21  C   UNL     1      35.256 -19.146 -21.896  0.00  0.00    +0.058 C 
ENDBRANCH  12  16
ENDBRANCH   3  13
BRANCH   4  22
ATOM     22  O   UNL     1      34.098 -22.465 -16.400  0.00  0.00    -0.403 OA
BRANCH  22  23
ATOM     23  P   UNL     1      32.936 -23.267 -17.188  0.00  0.00    +0.528 P 
ATOM     24  O   UNL     1      31.949 -23.988 -16.317  0.00  0.00    -0.216 OA
BRANCH  23  25
ATOM     25  O   UNL     1      32.308 -22.167 -18.194  0.00  0.00    -0.293 OA
ATOM     26  H   UNL     1      32.967 -21.475 -18.368  0.00  0.00    +0.223 HD
ENDBRANCH  23  25
BRANCH  23  27
ATOM     27  O   UNL     1      33.777 -24.228 -18.182  0.00  0.00    -0.293 OA
ATOM     28  H   UNL     1      33.677 -25.151 -17.900  0.00  0.00    +0.223 HD
ENDBRANCH  23  27
ENDBRANCH  22  23
ENDBRANCH   4  22
TORSDOF 6
ENDMDL
MODEL 7
REMARK VINA RESULT:      -9.4      2.812      4.030
REMARK  Name = 87517
REMARK  6 active torsions:
REMARK  status: ('A' for Active; 'I' for Inactive)
REMARK    1  A    between atoms: C_3  and  C_13
REMARK    2  A    between atoms: C_4  and  O_22
REMARK    3  A    between atoms: N_12  and  C_16
REMARK    4  A    between atoms: O_22  and  P_23
REMARK    5  A    between atoms: P_23  and  O_25
REMARK    6  A    between atoms: P_23  and  O_27
REMARK                            x       y       z     vdW  Elec       q    Type
REMARK                         _______ _______ _______ _____ _____    ______ ____
ROOT
ATOM      1  C   UNL     1      35.633 -23.543 -14.775  0.00  0.00    +0.000 C 
ATOM      2  C   UNL     1      34.471 -23.923 -14.062  0.00  0.00    +0.003 C 
ATOM      3  C   UNL     1      34.280 -23.178 -16.763  0.00  0.00    +0.088 C 
ATOM      4  C   UNL     1      33.138 -23.553 -16.062  0.00  0.00    +0.153 C 
ATOM      5  C   UNL     1      35.520 -23.173 -16.125  0.00  0.00    +0.008 C 
ATOM      6  C   UNL     1      33.231 -23.924 -14.721  0.00  0.00    +0.038 C 
ATOM      7  C   UNL     1      36.873 -23.543 -14.115  0.00  0.00    +0.000 C 
ATOM      8  C   UNL     1      34.584 -24.294 -12.712  0.00  0.00    +0.000 C 
ATOM      9  C   UNL     1      36.967 -23.913 -12.774  0.00  0.00    +0.000 C 
ATOM     10  C   UNL     1      35.825 -24.288 -12.073  0.00  0.00    +0.000 C 
ENDROOT
BRANCH   3  13
ATOM     11  O   UNL     1      33.794 -23.613 -18.996  0.00  0.00    -0.270 OA
ATOM     12  N   UNL     1      34.584 -21.472 -18.453  0.00  0.00    -0.280 N 
ATOM     13  C   UNL     1      34.203 -22.788 -18.164  0.00  0.00    +0.252 C 
ATOM     14  H   UNL     1      34.888 -20.935 -17.685  0.00  0.00    +0.155 HD
BRANCH  12  16
ATOM     15 CL   UNL     1      34.611 -18.719 -23.678  0.00  0.00    -0.082 Cl
ATOM     16  C   UNL     1      34.591 -20.812 -19.706  0.00  0.00    +0.051 C 
ATOM     17  C   UNL     1      33.391 -20.400 -20.260  0.00  0.00    +0.016 C 
ATOM     18  C   UNL     1      35.798 -20.592 -20.348  0.00  0.00    +0.016 C 
ATOM     19  C   UNL     1      33.397 -19.750 -21.493  0.00  0.00    +0.013 C 
ATOM     20  C   UNL     1      35.803 -19.942 -21.583  0.00  0.00    +0.013 C 
ATOM     21  C   UNL     1      34.603 -19.521 -22.155  0.00  0.00    +0.058 C 
ENDBRANCH  12  16
ENDBRANCH   3  13
BRANCH   4  22
ATOM     22  O   UNL     1      31.917 -23.564 -16.669  0.00  0.00    -0.403 OA
BRANCH  22  23
ATOM     23  P   UNL     1      30.514 -23.210 -15.946  0.00  0.00    +0.528 P 
ATOM     24  O   UNL     1      30.631 -22.471 -14.645  0.00  0.00    -0.216 OA
BRANCH  23  25
ATOM     25  O   UNL     1      29.651 -22.472 -17.097  0.00  0.00    -0.293 OA
ATOM     26  H   UNL     1      28.710 -22.494 -16.860  0.00  0.00    +0.223 HD
ENDBRANCH  23  25
BRANCH  23  27
ATOM     27  O   UNL     1      29.798 -24.658 -15.829  0.00  0.00    -0.293 OA
ATOM     28  H   UNL     1      30.147 -25.129 -15.056  0.00  0.00    +0.223 HD
ENDBRANCH  23  27
ENDBRANCH  22  23
ENDBRANCH   4  22
TORSDOF 6
ENDMDL
MODEL 8
REMARK VINA RESULT:      -9.2      7.388     10.857
REMARK  Name = 87517
REMARK  6 active torsions:
REMARK  status: ('A' for Active; 'I' for Inactive)
REMARK    1  A    between atoms: C_3  and  C_13
REMARK    2  A    between atoms: C_4  and  O_22
REMARK    3  A    between atoms: N_12  and  C_16
REMARK    4  A    between atoms: O_22  and  P_23
REMARK    5  A    between atoms: P_23  and  O_25
REMARK    6  A    between atoms: P_23  and  O_27
REMARK                            x       y       z     vdW  Elec       q    Type
REMARK                         _______ _______ _______ _____ _____    ______ ____
ROOT
ATOM      1  C   UNL     1      32.040 -12.092 -20.560  0.00  0.00    +0.000 C 
ATOM      2  C   UNL     1      32.032 -11.654 -21.906  0.00  0.00    +0.003 C 
ATOM      3  C   UNL     1      32.409 -14.375 -21.317  0.00  0.00    +0.088 C 
ATOM      4  C   UNL     1      32.401 -13.944 -22.641  0.00  0.00    +0.153 C 
ATOM      5  C   UNL     1      32.230 -13.456 -20.283  0.00  0.00    +0.008 C 
ATOM      6  C   UNL     1      32.213 -12.593 -22.934  0.00  0.00    +0.038 C 
ATOM      7  C   UNL     1      31.859 -11.153 -19.532  0.00  0.00    +0.000 C 
ATOM      8  C   UNL     1      31.841 -10.291 -22.183  0.00  0.00    +0.000 C 
ATOM      9  C   UNL     1      31.673  -9.802 -19.825  0.00  0.00    +0.000 C 
ATOM     10  C   UNL     1      31.663  -9.372 -21.148  0.00  0.00    +0.000 C 
ENDROOT
BRANCH   3  13
ATOM     11  O   UNL     1      31.652 -16.426 -20.525  0.00  0.00    -0.270 OA
ATOM     12  N   UNL     1      33.876 -16.299 -21.261  0.00  0.00    -0.280 N 
ATOM     13  C   UNL     1      32.603 -15.781 -20.991  0.00  0.00    +0.252 C 
ATOM     14  H   UNL     1      34.529 -15.662 -21.630  0.00  0.00    +0.155 HD
BRANCH  12  16
ATOM     15 CL   UNL     1      35.833 -21.816 -20.475  0.00  0.00    -0.082 Cl
ATOM     16  C   UNL     1      34.345 -17.622 -21.072  0.00  0.00    +0.051 C 
ATOM     17  C   UNL     1      33.430 -18.651 -20.929  0.00  0.00    +0.016 C 
ATOM     18  C   UNL     1      35.709 -17.857 -21.037  0.00  0.00    +0.016 C 
ATOM     19  C   UNL     1      33.892 -19.954 -20.743  0.00  0.00    +0.013 C 
ATOM     20  C   UNL     1      36.171 -19.161 -20.851  0.00  0.00    +0.013 C 
ATOM     21  C   UNL     1      35.262 -20.209 -20.704  0.00  0.00    +0.058 C 
ENDBRANCH  12  16
ENDBRANCH   3  13
BRANCH   4  22
ATOM     22  O   UNL     1      32.574 -14.826 -23.665  0.00  0.00    -0.403 OA
BRANCH  22  23
ATOM     23  P   UNL     1      33.840 -14.848 -24.672  0.00  0.00    +0.528 P 
ATOM     24  O   UNL     1      33.702 -15.759 -25.856  0.00  0.00    -0.216 OA
BRANCH  23  25
ATOM     25  O   UNL     1      34.100 -13.288 -25.014  0.00  0.00    -0.293 OA
ATOM     26  H   UNL     1      33.584 -12.734 -24.407  0.00  0.00    +0.223 HD
ENDBRANCH  23  25
BRANCH  23  27
ATOM     27  O   UNL     1      35.072 -15.212 -23.688  0.00  0.00    -0.293 OA
ATOM     28  H   UNL     1      35.809 -14.605 -23.854  0.00  0.00    +0.223 HD
ENDBRANCH  23  27
ENDBRANCH  22  23
ENDBRANCH   4  22
TORSDOF 6
ENDMDL
MODEL 9
REMARK VINA RESULT:      -9.2      4.432      6.161
REMARK  Name = 87517
REMARK  6 active torsions:
REMARK  status: ('A' for Active; 'I' for Inactive)
REMARK    1  A    between atoms: C_3  and  C_13
REMARK    2  A    between atoms: C_4  and  O_22
REMARK    3  A    between atoms: N_12  and  C_16
REMARK    4  A    between atoms: O_22  and  P_23
REMARK    5  A    between atoms: P_23  and  O_25
REMARK    6  A    between atoms: P_23  and  O_27
REMARK                            x       y       z     vdW  Elec       q    Type
REMARK                         _______ _______ _______ _____ _____    ______ ____
ROOT
ATOM      1  C   UNL     1      30.623 -24.001 -15.082  0.00  0.00    +0.000 C 
ATOM      2  C   UNL     1      30.522 -23.323 -16.320  0.00  0.00    +0.003 C 
ATOM      3  C   UNL     1      33.047 -23.824 -15.197  0.00  0.00    +0.088 C 
ATOM      4  C   UNL     1      32.948 -23.158 -16.415  0.00  0.00    +0.153 C 
ATOM      5  C   UNL     1      31.893 -24.243 -14.534  0.00  0.00    +0.008 C 
ATOM      6  C   UNL     1      31.694 -22.909 -16.974  0.00  0.00    +0.038 C 
ATOM      7  C   UNL     1      29.451 -24.414 -14.428  0.00  0.00    +0.000 C 
ATOM      8  C   UNL     1      29.252 -23.082 -16.869  0.00  0.00    +0.000 C 
ATOM      9  C   UNL     1      28.198 -24.165 -14.987  0.00  0.00    +0.000 C 
ATOM     10  C   UNL     1      28.099 -23.500 -16.206  0.00  0.00    +0.000 C 
ENDROOT
BRANCH   3  13
ATOM     11  O   UNL     1      34.524 -23.821 -13.400  0.00  0.00    -0.270 OA
ATOM     12  N   UNL     1      35.300 -24.674 -15.443  0.00  0.00    -0.280 N 
ATOM     13  C   UNL     1      34.347 -24.093 -14.597  0.00  0.00    +0.252 C 
ATOM     14  H   UNL     1      35.011 -24.831 -16.371  0.00  0.00    +0.155 HD
BRANCH  12  16
ATOM     15 CL   UNL     1      40.830 -26.309 -14.168  0.00  0.00    -0.082 Cl
ATOM     16  C   UNL     1      36.626 -25.066 -15.137  0.00  0.00    +0.051 C 
ATOM     17  C   UNL     1      36.886 -26.390 -14.826  0.00  0.00    +0.016 C 
ATOM     18  C   UNL     1      37.633 -24.117 -15.157  0.00  0.00    +0.016 C 
ATOM     19  C   UNL     1      38.191 -26.776 -14.525  0.00  0.00    +0.013 C 
ATOM     20  C   UNL     1      38.940 -24.503 -14.855  0.00  0.00    +0.013 C 
ATOM     21  C   UNL     1      39.218 -25.833 -14.539  0.00  0.00    +0.058 C 
ENDBRANCH  12  16
ENDBRANCH   3  13
BRANCH   4  22
ATOM     22  O   UNL     1      34.063 -22.741 -17.077  0.00  0.00    -0.403 OA
BRANCH  22  23
ATOM     23  P   UNL     1      34.154 -22.470 -18.669  0.00  0.00    +0.528 P 
ATOM     24  O   UNL     1      33.195 -21.445 -19.202  0.00  0.00    -0.216 OA
BRANCH  23  25
ATOM     25  O   UNL     1      35.721 -22.165 -18.930  0.00  0.00    -0.293 OA
ATOM     26  H   UNL     1      36.257 -22.655 -18.286  0.00  0.00    +0.223 HD
ENDBRANCH  23  25
BRANCH  23  27
ATOM     27  O   UNL     1      33.964 -23.951 -19.294  0.00  0.00    -0.293 OA
ATOM     28  H   UNL     1      33.813 -23.882 -20.250  0.00  0.00    +0.223 HD
ENDBRANCH  23  27
ENDBRANCH  22  23
ENDBRANCH   4  22
TORSDOF 6
ENDMDL
