MODEL 1
REMARK VINA RESULT:      -5.4      0.000      0.000
REMARK  Name = 38988837
REMARK  7 active torsions:
REMARK  status: ('A' for Active; 'I' for Inactive)
REMARK    1  A    between atoms: CA_1  and  N_2
REMARK    2  A    between atoms: CA_1  and  C_8
REMARK    3  A    between atoms: CA_1  and  C_9
REMARK    4  A    between atoms: C_9  and  C_10
REMARK    5  A    between atoms: C_10  and  C_11
REMARK    6  A    between atoms: C_11  and  C_12
REMARK    7  A    between atoms: C_12  and  O_13
REMARK                            x       y       z     vdW  Elec       q    Type
REMARK                         _______ _______ _______ _____ _____    ______ ____
ROOT
ATOM      1  CA  UNL     1      38.882 -25.668 -14.401  0.00  0.00    +0.040 C 
ENDROOT
BRANCH   1   2
ATOM      2  N   UNL     1      37.890 -24.998 -15.301  0.00  0.00    +0.389 N 
ATOM      3  H1  UNL     1      37.612 -25.643 -16.041  0.00  0.00    -0.088 HD
ATOM      4  H2  UNL     1      38.313 -24.167 -15.715  0.00  0.00    -0.088 HD
ATOM      5  H3  UNL     1      37.068 -24.727 -14.760  0.00  0.00    -0.088 HD
ENDBRANCH   1   2
BRANCH   1   8
ATOM      6  O   UNL     1      41.009 -24.617 -14.228  0.00  0.00    -0.248 OA
ATOM      7  OXT UNL     1      40.645 -26.130 -15.901  0.00  0.00    -0.248 OA
ATOM      8  C   UNL     1      40.321 -25.441 -14.891  0.00  0.00    +0.345 C 
ENDBRANCH   1   8
BRANCH   1   9
ATOM      9  C   UNL     1      38.606 -25.158 -12.982  0.00  0.00    -0.011 C 
BRANCH   9  10
ATOM     10  C   UNL     1      37.264 -25.660 -12.438  0.00  0.00    +0.001 C 
BRANCH  10  11
ATOM     11  C   UNL     1      36.466 -24.524 -11.798  0.00  0.00    +0.032 C 
BRANCH  11  12
ATOM     12  C   UNL     1      36.955 -23.161 -12.264  0.00  0.00    +0.137 C 
BRANCH  12  13
ATOM     13  O   UNL     1      37.334 -22.396 -11.128  0.00  0.00    -0.382 OA
ATOM     14  H   UNL     1      38.224 -22.658 -10.844  0.00  0.00    +0.210 HD
ENDBRANCH  12  13
ENDBRANCH  11  12
ENDBRANCH  10  11
ENDBRANCH   9  10
ENDBRANCH   1   9
TORSDOF 7
ENDMDL
MODEL 2
REMARK VINA RESULT:      -5.4      1.353      1.748
REMARK  Name = 38988837
REMARK  7 active torsions:
REMARK  status: ('A' for Active; 'I' for Inactive)
REMARK    1  A    between atoms: CA_1  and  N_2
REMARK    2  A    between atoms: CA_1  and  C_8
REMARK    3  A    between atoms: CA_1  and  C_9
REMARK    4  A    between atoms: C_9  and  C_10
REMARK    5  A    between atoms: C_10  and  C_11
REMARK    6  A    between atoms: C_11  and  C_12
REMARK    7  A    between atoms: C_12  and  O_13
REMARK                            x       y       z     vdW  Elec       q    Type
REMARK                         _______ _______ _______ _____ _____    ______ ____
ROOT
ATOM      1  CA  UNL     1      38.880 -25.791 -14.257  0.00  0.00    +0.040 C 
ENDROOT
BRANCH   1   2
ATOM      2  N   UNL     1      38.207 -24.900 -15.256  0.00  0.00    +0.389 N 
ATOM      3  H1  UNL     1      38.009 -25.430 -16.105  0.00  0.00    -0.088 HD
ATOM      4  H2  UNL     1      38.820 -24.116 -15.479  0.00  0.00    -0.088 HD
ATOM      5  H3  UNL     1      37.334 -24.548 -14.864  0.00  0.00    -0.088 HD
ENDBRANCH   1   2
BRANCH   1   8
ATOM      6  O   UNL     1      41.007 -26.815 -14.553  0.00  0.00    -0.248 OA
ATOM      7  OXT UNL     1      40.884 -24.546 -14.322  0.00  0.00    -0.248 OA
ATOM      8  C   UNL     1      40.410 -25.716 -14.386  0.00  0.00    +0.345 C 
ENDBRANCH   1   8
BRANCH   1   9
ATOM      9  C   UNL     1      38.337 -25.399 -12.879  0.00  0.00    -0.011 C 
BRANCH   9  10
ATOM     10  C   UNL     1      37.718 -23.997 -12.877  0.00  0.00    +0.001 C 
BRANCH  10  11
ATOM     11  C   UNL     1      36.903 -23.753 -11.608  0.00  0.00    +0.032 C 
BRANCH  11  12
ATOM     12  C   UNL     1      35.556 -24.458 -11.661  0.00  0.00    +0.137 C 
BRANCH  12  13
ATOM     13  O   UNL     1      35.339 -25.126 -10.425  0.00  0.00    -0.382 OA
ATOM     14  H   UNL     1      35.925 -24.752  -9.748  0.00  0.00    +0.210 HD
ENDBRANCH  12  13
ENDBRANCH  11  12
ENDBRANCH  10  11
ENDBRANCH   9  10
ENDBRANCH   1   9
TORSDOF 7
ENDMDL
MODEL 3
REMARK VINA RESULT:      -5.3      1.634      4.563
REMARK  Name = 38988837
REMARK  7 active torsions:
REMARK  status: ('A' for Active; 'I' for Inactive)
REMARK    1  A    between atoms: CA_1  and  N_2
REMARK    2  A    between atoms: CA_1  and  C_8
REMARK    3  A    between atoms: CA_1  and  C_9
REMARK    4  A    between atoms: C_9  and  C_10
REMARK    5  A    between atoms: C_10  and  C_11
REMARK    6  A    between atoms: C_11  and  C_12
REMARK    7  A    between atoms: C_12  and  O_13
REMARK                            x       y       z     vdW  Elec       q    Type
REMARK                         _______ _______ _______ _____ _____    ______ ____
ROOT
ATOM      1  CA  UNL     1      36.610 -23.829 -12.807  0.00  0.00    +0.040 C 
ENDROOT
BRANCH   1   2
ATOM      2  N   UNL     1      35.145 -23.516 -12.809  0.00  0.00    +0.389 N 
ATOM      3  H1  UNL     1      35.000 -22.566 -12.467  0.00  0.00    -0.088 HD
ATOM      4  H2  UNL     1      34.656 -24.175 -12.203  0.00  0.00    -0.088 HD
ATOM      5  H3  UNL     1      34.782 -23.594 -13.758  0.00  0.00    -0.088 HD
ENDBRANCH   1   2
BRANCH   1   8
ATOM      6  O   UNL     1      38.273 -22.615 -11.616  0.00  0.00    -0.248 OA
ATOM      7  OXT UNL     1      36.722 -23.819 -10.449  0.00  0.00    -0.248 OA
ATOM      8  C   UNL     1      37.274 -23.378 -11.496  0.00  0.00    +0.345 C 
ENDBRANCH   1   8
BRANCH   1   9
ATOM      9  C   UNL     1      36.743 -25.327 -13.105  0.00  0.00    -0.011 C 
BRANCH   9  10
ATOM     10  C   UNL     1      38.202 -25.751 -13.300  0.00  0.00    +0.001 C 
BRANCH  10  11
ATOM     11  C   UNL     1      38.815 -25.082 -14.529  0.00  0.00    +0.032 C 
BRANCH  11  12
ATOM     12  C   UNL     1      40.273 -25.475 -14.716  0.00  0.00    +0.137 C 
BRANCH  12  13
ATOM     13  O   UNL     1      40.448 -25.974 -16.035  0.00  0.00    -0.382 OA
ATOM     14  H   UNL     1      40.203 -26.912 -16.061  0.00  0.00    +0.210 HD
ENDBRANCH  12  13
ENDBRANCH  11  12
ENDBRANCH  10  11
ENDBRANCH   9  10
ENDBRANCH   1   9
TORSDOF 7
ENDMDL
MODEL 4
REMARK VINA RESULT:      -5.3      8.401      9.679
REMARK  Name = 38988837
REMARK  7 active torsions:
REMARK  status: ('A' for Active; 'I' for Inactive)
REMARK    1  A    between atoms: CA_1  and  N_2
REMARK    2  A    between atoms: CA_1  and  C_8
REMARK    3  A    between atoms: CA_1  and  C_9
REMARK    4  A    between atoms: C_9  and  C_10
REMARK    5  A    between atoms: C_10  and  C_11
REMARK    6  A    between atoms: C_11  and  C_12
REMARK    7  A    between atoms: C_12  and  O_13
REMARK                            x       y       z     vdW  Elec       q    Type
REMARK                         _______ _______ _______ _____ _____    ______ ____
ROOT
ATOM      1  CA  UNL     1      29.309 -23.749 -16.129  0.00  0.00    +0.040 C 
ENDROOT
BRANCH   1   2
ATOM      2  N   UNL     1      28.738 -24.728 -15.150  0.00  0.00    +0.389 N 
ATOM      3  H1  UNL     1      28.135 -25.388 -15.642  0.00  0.00    -0.088 HD
ATOM      4  H2  UNL     1      28.195 -24.229 -14.447  0.00  0.00    -0.088 HD
ATOM      5  H3  UNL     1      29.497 -25.237 -14.696  0.00  0.00    -0.088 HD
ENDBRANCH   1   2
BRANCH   1   8
ATOM      6  O   UNL     1      28.084 -21.845 -16.858  0.00  0.00    -0.248 OA
ATOM      7  OXT UNL     1      27.551 -23.902 -17.697  0.00  0.00    -0.248 OA
ATOM      8  C   UNL     1      28.202 -23.096 -16.973  0.00  0.00    +0.345 C 
ENDBRANCH   1   8
BRANCH   1   9
ATOM      9  C   UNL     1      30.160 -22.763 -15.322  0.00  0.00    -0.011 C 
BRANCH   9  10
ATOM     10  C   UNL     1      31.654 -23.099 -15.388  0.00  0.00    +0.001 C 
BRANCH  10  11
ATOM     11  C   UNL     1      32.196 -23.482 -14.012  0.00  0.00    +0.032 C 
BRANCH  11  12
ATOM     12  C   UNL     1      31.962 -24.954 -13.705  0.00  0.00    +0.137 C 
BRANCH  12  13
ATOM     13  O   UNL     1      30.807 -25.073 -12.885  0.00  0.00    -0.382 OA
ATOM     14  H   UNL     1      30.607 -24.213 -12.482  0.00  0.00    +0.210 HD
ENDBRANCH  12  13
ENDBRANCH  11  12
ENDBRANCH  10  11
ENDBRANCH   9  10
ENDBRANCH   1   9
TORSDOF 7
ENDMDL
MODEL 5
REMARK VINA RESULT:      -5.3      1.857      5.073
REMARK  Name = 38988837
REMARK  7 active torsions:
REMARK  status: ('A' for Active; 'I' for Inactive)
REMARK    1  A    between atoms: CA_1  and  N_2
REMARK    2  A    between atoms: CA_1  and  C_8
REMARK    3  A    between atoms: CA_1  and  C_9
REMARK    4  A    between atoms: C_9  and  C_10
REMARK    5  A    between atoms: C_10  and  C_11
REMARK    6  A    between atoms: C_11  and  C_12
REMARK    7  A    between atoms: C_12  and  O_13
REMARK                            x       y       z     vdW  Elec       q    Type
REMARK                         _______ _______ _______ _____ _____    ______ ____
ROOT
ATOM      1  CA  UNL     1      36.796 -23.517 -11.867  0.00  0.00    +0.040 C 
ENDROOT
BRANCH   1   2
ATOM      2  N   UNL     1      36.174 -23.200 -13.191  0.00  0.00    +0.389 N 
ATOM      3  H1  UNL     1      35.414 -23.856 -13.376  0.00  0.00    -0.088 HD
ATOM      4  H2  UNL     1      36.877 -23.278 -13.926  0.00  0.00    -0.088 HD
ATOM      5  H3  UNL     1      35.804 -22.249 -13.175  0.00  0.00    -0.088 HD
ENDBRANCH   1   2
BRANCH   1   8
ATOM      6  O   UNL     1      34.857 -24.852 -11.529  0.00  0.00    -0.248 OA
ATOM      7  OXT UNL     1      36.089 -24.197  -9.720  0.00  0.00    -0.248 OA
ATOM      8  C   UNL     1      35.810 -24.260 -10.951  0.00  0.00    +0.345 C 
ENDBRANCH   1   8
BRANCH   1   9
ATOM      9  C   UNL     1      38.093 -24.280 -12.159  0.00  0.00    -0.011 C 
BRANCH   9  10
ATOM     10  C   UNL     1      38.212 -24.675 -13.635  0.00  0.00    +0.001 C 
BRANCH  10  11
ATOM     11  C   UNL     1      39.284 -25.744 -13.838  0.00  0.00    +0.032 C 
BRANCH  11  12
ATOM     12  C   UNL     1      40.396 -25.258 -14.756  0.00  0.00    +0.137 C 
BRANCH  12  13
ATOM     13  O   UNL     1      40.300 -25.944 -15.997  0.00  0.00    -0.382 OA
ATOM     14  H   UNL     1      39.366 -26.033 -16.245  0.00  0.00    +0.210 HD
ENDBRANCH  12  13
ENDBRANCH  11  12
ENDBRANCH  10  11
ENDBRANCH   9  10
ENDBRANCH   1   9
TORSDOF 7
ENDMDL
MODEL 6
REMARK VINA RESULT:      -5.3      2.724      4.747
REMARK  Name = 38988837
REMARK  7 active torsions:
REMARK  status: ('A' for Active; 'I' for Inactive)
REMARK    1  A    between atoms: CA_1  and  N_2
REMARK    2  A    between atoms: CA_1  and  C_8
REMARK    3  A    between atoms: CA_1  and  C_9
REMARK    4  A    between atoms: C_9  and  C_10
REMARK    5  A    between atoms: C_10  and  C_11
REMARK    6  A    between atoms: C_11  and  C_12
REMARK    7  A    between atoms: C_12  and  O_13
REMARK                            x       y       z     vdW  Elec       q    Type
REMARK                         _______ _______ _______ _____ _____    ______ ____
ROOT
ATOM      1  CA  UNL     1      36.665 -23.376 -11.856  0.00  0.00    +0.040 C 
ENDROOT
BRANCH   1   2
ATOM      2  N   UNL     1      36.046 -23.178 -13.206  0.00  0.00    +0.389 N 
ATOM      3  H1  UNL     1      35.573 -24.036 -13.492  0.00  0.00    -0.088 HD
ATOM      4  H2  UNL     1      36.773 -22.949 -13.883  0.00  0.00    -0.088 HD
ATOM      5  H3  UNL     1      35.370 -22.416 -13.162  0.00  0.00    -0.088 HD
ENDBRANCH   1   2
BRANCH   1   8
ATOM      6  O   UNL     1      34.864 -24.900 -11.546  0.00  0.00    -0.248 OA
ATOM      7  OXT UNL     1      36.081 -24.227  -9.734  0.00  0.00    -0.248 OA
ATOM      8  C   UNL     1      35.776 -24.253 -10.960  0.00  0.00    +0.345 C 
ENDBRANCH   1   8
BRANCH   1   9
ATOM      9  C   UNL     1      38.074 -23.931 -12.093  0.00  0.00    -0.011 C 
BRANCH   9  10
ATOM     10  C   UNL     1      38.061 -25.432 -12.399  0.00  0.00    +0.001 C 
BRANCH  10  11
ATOM     11  C   UNL     1      38.563 -25.713 -13.815  0.00  0.00    +0.032 C 
BRANCH  11  12
ATOM     12  C   UNL     1      37.453 -26.240 -14.712  0.00  0.00    +0.137 C 
BRANCH  12  13
ATOM     13  O   UNL     1      36.220 -26.163 -14.009  0.00  0.00    -0.382 OA
ATOM     14  H   UNL     1      36.134 -25.286 -13.603  0.00  0.00    +0.210 HD
ENDBRANCH  12  13
ENDBRANCH  11  12
ENDBRANCH  10  11
ENDBRANCH   9  10
ENDBRANCH   1   9
TORSDOF 7
ENDMDL
MODEL 7
REMARK VINA RESULT:      -5.2      8.553      9.896
REMARK  Name = 38988837
REMARK  7 active torsions:
REMARK  status: ('A' for Active; 'I' for Inactive)
REMARK    1  A    between atoms: CA_1  and  N_2
REMARK    2  A    between atoms: CA_1  and  C_8
REMARK    3  A    between atoms: CA_1  and  C_9
REMARK    4  A    between atoms: C_9  and  C_10
REMARK    5  A    between atoms: C_10  and  C_11
REMARK    6  A    between atoms: C_11  and  C_12
REMARK    7  A    between atoms: C_12  and  O_13
REMARK                            x       y       z     vdW  Elec       q    Type
REMARK                         _______ _______ _______ _____ _____    ______ ____
ROOT
ATOM      1  CA  UNL     1      29.014 -22.829 -16.061  0.00  0.00    +0.040 C 
ENDROOT
BRANCH   1   2
ATOM      2  N   UNL     1      30.362 -22.726 -16.705  0.00  0.00    +0.389 N 
ATOM      3  H1  UNL     1      31.064 -23.140 -16.091  0.00  0.00    -0.088 HD
ATOM      4  H2  UNL     1      30.588 -21.745 -16.868  0.00  0.00    -0.088 HD
ATOM      5  H3  UNL     1      30.353 -23.225 -17.594  0.00  0.00    -0.088 HD
ENDBRANCH   1   2
BRANCH   1   8
ATOM      6  O   UNL     1      27.604 -23.837 -17.690  0.00  0.00    -0.248 OA
ATOM      7  OXT UNL     1      27.375 -21.608 -17.243  0.00  0.00    -0.248 OA
ATOM      8  C   UNL     1      27.890 -22.755 -17.107  0.00  0.00    +0.345 C 
ENDBRANCH   1   8
BRANCH   1   9
ATOM      9  C   UNL     1      29.020 -24.112 -15.223  0.00  0.00    -0.011 C 
BRANCH   9  10
ATOM     10  C   UNL     1      30.367 -24.841 -15.291  0.00  0.00    +0.001 C 
BRANCH  10  11
ATOM     11  C   UNL     1      31.033 -24.902 -13.917  0.00  0.00    +0.032 C 
BRANCH  11  12
ATOM     12  C   UNL     1      32.328 -24.105 -13.883  0.00  0.00    +0.137 C 
BRANCH  12  13
ATOM     13  O   UNL     1      32.020 -22.723 -13.996  0.00  0.00    -0.382 OA
ATOM     14  H   UNL     1      32.652 -22.299 -14.598  0.00  0.00    +0.210 HD
ENDBRANCH  12  13
ENDBRANCH  11  12
ENDBRANCH  10  11
ENDBRANCH   9  10
ENDBRANCH   1   9
TORSDOF 7
ENDMDL
MODEL 8
REMARK VINA RESULT:      -5.2      9.609     11.103
REMARK  Name = 38988837
REMARK  7 active torsions:
REMARK  status: ('A' for Active; 'I' for Inactive)
REMARK    1  A    between atoms: CA_1  and  N_2
REMARK    2  A    between atoms: CA_1  and  C_8
REMARK    3  A    between atoms: CA_1  and  C_9
REMARK    4  A    between atoms: C_9  and  C_10
REMARK    5  A    between atoms: C_10  and  C_11
REMARK    6  A    between atoms: C_11  and  C_12
REMARK    7  A    between atoms: C_12  and  O_13
REMARK                            x       y       z     vdW  Elec       q    Type
REMARK                         _______ _______ _______ _____ _____    ______ ____
ROOT
ATOM      1  CA  UNL     1      28.235 -22.532 -16.670  0.00  0.00    +0.040 C 
ENDROOT
BRANCH   1   2
ATOM      2  N   UNL     1      28.161 -24.007 -16.918  0.00  0.00    +0.389 N 
ATOM      3  H1  UNL     1      28.500 -24.211 -17.859  0.00  0.00    -0.088 HD
ATOM      4  H2  UNL     1      27.194 -24.318 -16.830  0.00  0.00    -0.088 HD
ATOM      5  H3  UNL     1      28.739 -24.497 -16.235  0.00  0.00    -0.088 HD
ENDBRANCH   1   2
BRANCH   1   8
ATOM      6  O   UNL     1      26.614 -21.130 -17.703  0.00  0.00    -0.248 OA
ATOM      7  OXT UNL     1      26.080 -22.212 -15.763  0.00  0.00    -0.248 OA
ATOM      8  C   UNL     1      26.840 -21.888 -16.718  0.00  0.00    +0.345 C 
ENDBRANCH   1   8
BRANCH   1   9
ATOM      9  C   UNL     1      28.978 -22.344 -15.342  0.00  0.00    -0.011 C 
BRANCH   9  10
ATOM     10  C   UNL     1      30.390 -22.938 -15.380  0.00  0.00    +0.001 C 
BRANCH  10  11
ATOM     11  C   UNL     1      30.651 -23.823 -14.162  0.00  0.00    +0.032 C 
BRANCH  11  12
ATOM     12  C   UNL     1      30.484 -25.299 -14.494  0.00  0.00    +0.137 C 
BRANCH  12  13
ATOM     13  O   UNL     1      29.110 -25.642 -14.377  0.00  0.00    -0.382 OA
ATOM     14  H   UNL     1      29.031 -26.548 -14.037  0.00  0.00    +0.210 HD
ENDBRANCH  12  13
ENDBRANCH  11  12
ENDBRANCH  10  11
ENDBRANCH   9  10
ENDBRANCH   1   9
TORSDOF 7
ENDMDL
MODEL 9
REMARK VINA RESULT:      -5.1     10.445     10.891
REMARK  Name = 38988837
REMARK  7 active torsions:
REMARK  status: ('A' for Active; 'I' for Inactive)
REMARK    1  A    between atoms: CA_1  and  N_2
REMARK    2  A    between atoms: CA_1  and  C_8
REMARK    3  A    between atoms: CA_1  and  C_9
REMARK    4  A    between atoms: C_9  and  C_10
REMARK    5  A    between atoms: C_10  and  C_11
REMARK    6  A    between atoms: C_11  and  C_12
REMARK    7  A    between atoms: C_12  and  O_13
REMARK                            x       y       z     vdW  Elec       q    Type
REMARK                         _______ _______ _______ _____ _____    ______ ____
ROOT
ATOM      1  CA  UNL     1      35.831 -18.079 -21.607  0.00  0.00    +0.040 C 
ENDROOT
BRANCH   1   2
ATOM      2  N   UNL     1      36.008 -18.343 -23.071  0.00  0.00    +0.389 N 
ATOM      3  H1  UNL     1      36.691 -17.690 -23.454  0.00  0.00    -0.088 HD
ATOM      4  H2  UNL     1      35.115 -18.222 -23.549  0.00  0.00    -0.088 HD
ATOM      5  H3  UNL     1      36.338 -19.299 -23.207  0.00  0.00    -0.088 HD
ENDBRANCH   1   2
BRANCH   1   8
ATOM      6  O   UNL     1      35.010 -16.365 -20.176  0.00  0.00    -0.248 OA
ATOM      7  OXT UNL     1      34.533 -16.278 -22.408  0.00  0.00    -0.248 OA
ATOM      8  C   UNL     1      35.043 -16.781 -21.367  0.00  0.00    +0.345 C 
ENDBRANCH   1   8
BRANCH   1   9
ATOM      9  C   UNL     1      35.189 -19.334 -21.006  0.00  0.00    -0.011 C 
BRANCH   9  10
ATOM     10  C   UNL     1      33.747 -19.533 -21.484  0.00  0.00    +0.001 C 
BRANCH  10  11
ATOM     11  C   UNL     1      32.901 -20.226 -20.417  0.00  0.00    +0.032 C 
BRANCH  11  12
ATOM     12  C   UNL     1      33.696 -21.285 -19.668  0.00  0.00    +0.137 C 
BRANCH  12  13
ATOM     13  O   UNL     1      32.794 -22.114 -18.949  0.00  0.00    -0.382 OA
ATOM     14  H   UNL     1      32.015 -21.596 -18.691  0.00  0.00    +0.210 HD
ENDBRANCH  12  13
ENDBRANCH  11  12
ENDBRANCH  10  11
ENDBRANCH   9  10
ENDBRANCH   1   9
TORSDOF 7
ENDMDL
