MODEL 1
REMARK VINA RESULT:      -6.9      0.000      0.000
REMARK  Name = 11213558
REMARK  4 active torsions:
REMARK  status: ('A' for Active; 'I' for Inactive)
REMARK    1  A    between atoms: N_7  and  C_26
REMARK    2  A    between atoms: C_29  and  O_32
REMARK    3  A    between atoms: C_30  and  O_34
REMARK    4  A    between atoms: C_31  and  O_36
REMARK                            x       y       z     vdW  Elec       q    Type
REMARK                         _______ _______ _______ _____ _____    ______ ____
ROOT
ATOM      1  F   UNL     1      37.244 -25.933 -12.067  0.00  0.00    -0.198 F 
ATOM      2  O   UNL     1      29.845 -24.107 -15.152  0.00  0.00    -0.470 OA
ATOM      3  O   UNL     1      30.675 -21.926 -17.922  0.00  0.00    -0.271 OA
ATOM      4  N   UNL     1      32.065 -22.881 -16.372  0.00  0.00    -0.254 N 
ATOM      5  N   UNL     1      33.488 -23.922 -14.802  0.00  0.00    -0.373 NA
ATOM      6  N   UNL     1      34.922 -24.997 -13.232  0.00  0.00    -0.264 N 
ATOM      7  N   UNL     1      37.545 -22.537 -16.298  0.00  0.00    -0.247 N 
ATOM      8  N   UNL     1      36.226 -23.752 -14.785  0.00  0.00    -0.320 NA
ATOM      9  N   UNL     1      38.632 -23.840 -14.677  0.00  0.00    -0.167 NA
ATOM     10  C   UNL     1      29.650 -22.957 -15.971  0.00  0.00    +0.201 C 
ATOM     11  C   UNL     1      30.826 -22.557 -16.875  0.00  0.00    +0.264 C 
ATOM     12  C   UNL     1      29.316 -21.767 -15.057  0.00  0.00    +0.053 C 
ATOM     13  C   UNL     1      28.431 -23.269 -16.848  0.00  0.00    +0.053 C 
ATOM     14  C   UNL     1      31.111 -24.288 -14.684  0.00  0.00    +0.179 C 
ATOM     15  C   UNL     1      32.231 -23.700 -15.251  0.00  0.00    +0.221 C 
ATOM     16  C   UNL     1      31.287 -25.152 -13.607  0.00  0.00    +0.024 C 
ATOM     17  C   UNL     1      33.624 -24.755 -13.745  0.00  0.00    +0.169 C 
ATOM     18  C   UNL     1      32.566 -25.390 -13.118  0.00  0.00    +0.104 C 
ATOM     19  C   UNL     1      36.138 -24.611 -13.715  0.00  0.00    +0.227 C 
ATOM     20  C   UNL     1      37.463 -23.420 -15.200  0.00  0.00    +0.150 C 
ATOM     21  C   UNL     1      37.308 -25.098 -13.109  0.00  0.00    +0.205 C 
ATOM     22  C   UNL     1      38.517 -24.682 -13.628  0.00  0.00    +0.145 C 
ATOM     23  H   UNL     1      32.866 -22.522 -16.819  0.00  0.00    +0.157 HD
ATOM     24  H   UNL     1      34.951 -25.524 -12.401  0.00  0.00    +0.157 HD
ATOM     25  H   UNL     1      38.384 -22.028 -16.378  0.00  0.00    +0.165 HD
ENDROOT
BRANCH   7  26
ATOM     26  C   UNL     1      36.597 -22.295 -17.279  0.00  0.00    +0.064 C 
ATOM     27  C   UNL     1      36.694 -21.169 -18.116  0.00  0.00    +0.055 C 
ATOM     28  C   UNL     1      35.511 -23.171 -17.465  0.00  0.00    +0.055 C 
ATOM     29  C   UNL     1      34.556 -22.927 -18.452  0.00  0.00    +0.177 C 
ATOM     30  C   UNL     1      35.740 -20.925 -19.104  0.00  0.00    +0.177 C 
ATOM     31  C   UNL     1      34.670 -21.805 -19.271  0.00  0.00    +0.206 C 
BRANCH  29  32
ATOM     32  O   UNL     1      33.516 -23.795 -18.605  0.00  0.00    -0.468 OA
ATOM     33  C   UNL     1      33.706 -24.880 -19.510  0.00  0.00    +0.253 C 
ENDBRANCH  29  32
BRANCH  30  34
ATOM     34  O   UNL     1      35.863 -19.825 -19.898  0.00  0.00    -0.468 OA
ATOM     35  C   UNL     1      37.071 -19.697 -20.645  0.00  0.00    +0.253 C 
ENDBRANCH  30  34
BRANCH  31  36
ATOM     36  O   UNL     1      33.737 -21.568 -20.237  0.00  0.00    -0.465 OA
ATOM     37  C   UNL     1      32.824 -20.499 -20.006  0.00  0.00    +0.253 C 
ENDBRANCH  31  36
ENDBRANCH   7  26
TORSDOF 4
ENDMDL
MODEL 2
REMARK VINA RESULT:      -6.9      0.020      2.087
REMARK  Name = 11213558
REMARK  4 active torsions:
REMARK  status: ('A' for Active; 'I' for Inactive)
REMARK    1  A    between atoms: N_7  and  C_26
REMARK    2  A    between atoms: C_29  and  O_32
REMARK    3  A    between atoms: C_30  and  O_34
REMARK    4  A    between atoms: C_31  and  O_36
REMARK                            x       y       z     vdW  Elec       q    Type
REMARK                         _______ _______ _______ _____ _____    ______ ____
ROOT
ATOM      1  F   UNL     1      37.226 -25.935 -12.060  0.00  0.00    -0.198 F 
ATOM      2  O   UNL     1      29.841 -24.104 -15.175  0.00  0.00    -0.470 OA
ATOM      3  O   UNL     1      30.683 -21.920 -17.939  0.00  0.00    -0.271 OA
ATOM      4  N   UNL     1      32.066 -22.876 -16.385  0.00  0.00    -0.254 N 
ATOM      5  N   UNL     1      33.482 -23.920 -14.809  0.00  0.00    -0.373 NA
ATOM      6  N   UNL     1      34.909 -24.997 -13.234  0.00  0.00    -0.264 N 
ATOM      7  N   UNL     1      37.546 -22.534 -16.287  0.00  0.00    -0.247 N 
ATOM      8  N   UNL     1      36.220 -23.751 -14.781  0.00  0.00    -0.320 NA
ATOM      9  N   UNL     1      38.625 -23.839 -14.662  0.00  0.00    -0.167 NA
ATOM     10  C   UNL     1      29.649 -22.953 -15.994  0.00  0.00    +0.201 C 
ATOM     11  C   UNL     1      30.829 -22.552 -16.892  0.00  0.00    +0.264 C 
ATOM     12  C   UNL     1      29.312 -21.763 -15.081  0.00  0.00    +0.053 C 
ATOM     13  C   UNL     1      28.434 -23.263 -16.877  0.00  0.00    +0.053 C 
ATOM     14  C   UNL     1      31.105 -24.285 -14.702  0.00  0.00    +0.179 C 
ATOM     15  C   UNL     1      32.227 -23.697 -15.264  0.00  0.00    +0.221 C 
ATOM     16  C   UNL     1      31.276 -25.150 -13.626  0.00  0.00    +0.024 C 
ATOM     17  C   UNL     1      33.613 -24.753 -13.752  0.00  0.00    +0.169 C 
ATOM     18  C   UNL     1      32.552 -25.389 -13.131  0.00  0.00    +0.104 C 
ATOM     19  C   UNL     1      36.127 -24.611 -13.712  0.00  0.00    +0.227 C 
ATOM     20  C   UNL     1      37.459 -23.419 -15.190  0.00  0.00    +0.150 C 
ATOM     21  C   UNL     1      37.294 -25.098 -13.101  0.00  0.00    +0.205 C 
ATOM     22  C   UNL     1      38.506 -24.682 -13.615  0.00  0.00    +0.145 C 
ATOM     23  H   UNL     1      32.869 -22.518 -16.828  0.00  0.00    +0.157 HD
ATOM     24  H   UNL     1      34.935 -25.525 -12.404  0.00  0.00    +0.157 HD
ATOM     25  H   UNL     1      38.385 -22.026 -16.362  0.00  0.00    +0.165 HD
ENDROOT
BRANCH   7  26
ATOM     26  C   UNL     1      36.602 -22.291 -17.272  0.00  0.00    +0.064 C 
ATOM     27  C   UNL     1      35.516 -23.164 -17.462  0.00  0.00    +0.055 C 
ATOM     28  C   UNL     1      36.706 -21.164 -18.108  0.00  0.00    +0.055 C 
ATOM     29  C   UNL     1      35.756 -20.919 -19.100  0.00  0.00    +0.177 C 
ATOM     30  C   UNL     1      34.565 -22.919 -18.454  0.00  0.00    +0.177 C 
ATOM     31  C   UNL     1      34.686 -21.797 -19.273  0.00  0.00    +0.206 C 
BRANCH  29  32
ATOM     32  O   UNL     1      35.886 -19.819 -19.893  0.00  0.00    -0.468 OA
ATOM     33  C   UNL     1      37.096 -19.696 -20.637  0.00  0.00    +0.253 C 
ENDBRANCH  29  32
BRANCH  30  34
ATOM     34  O   UNL     1      33.525 -23.784 -18.612  0.00  0.00    -0.468 OA
ATOM     35  C   UNL     1      33.716 -24.868 -19.520  0.00  0.00    +0.253 C 
ENDBRANCH  30  34
BRANCH  31  36
ATOM     36  O   UNL     1      33.757 -21.556 -20.242  0.00  0.00    -0.465 OA
ATOM     37  C   UNL     1      32.859 -20.471 -20.021  0.00  0.00    +0.253 C 
ENDBRANCH  31  36
ENDBRANCH   7  26
TORSDOF 4
ENDMDL
MODEL 3
REMARK VINA RESULT:      -4.4      1.549      5.615
REMARK  Name = 11213558
REMARK  4 active torsions:
REMARK  status: ('A' for Active; 'I' for Inactive)
REMARK    1  A    between atoms: N_7  and  C_26
REMARK    2  A    between atoms: C_29  and  O_32
REMARK    3  A    between atoms: C_30  and  O_34
REMARK    4  A    between atoms: C_31  and  O_36
REMARK                            x       y       z     vdW  Elec       q    Type
REMARK                         _______ _______ _______ _____ _____    ______ ____
ROOT
ATOM      1  F   UNL     1      38.233 -23.608 -11.774  0.00  0.00    -0.198 F 
ATOM      2  O   UNL     1      36.305 -20.709 -19.222  0.00  0.00    -0.470 OA
ATOM      3  O   UNL     1      32.835 -21.688 -19.562  0.00  0.00    -0.271 OA
ATOM      4  N   UNL     1      34.298 -22.136 -17.859  0.00  0.00    -0.254 N 
ATOM      5  N   UNL     1      35.804 -22.535 -16.085  0.00  0.00    -0.373 NA
ATOM      6  N   UNL     1      37.320 -22.912 -14.285  0.00  0.00    -0.264 N 
ATOM      7  N   UNL     1      33.109 -24.749 -13.178  0.00  0.00    -0.247 N 
ATOM      8  N   UNL     1      35.193 -23.831 -13.746  0.00  0.00    -0.320 NA
ATOM      9  N   UNL     1      34.824 -24.816 -11.578  0.00  0.00    -0.167 NA
ATOM     10  C   UNL     1      35.191 -21.222 -19.949  0.00  0.00    +0.201 C 
ATOM     11  C   UNL     1      33.982 -21.671 -19.114  0.00  0.00    +0.264 C 
ATOM     12  C   UNL     1      35.672 -22.420 -20.785  0.00  0.00    +0.053 C 
ATOM     13  C   UNL     1      34.754 -20.098 -20.896  0.00  0.00    +0.053 C 
ATOM     14  C   UNL     1      36.534 -21.287 -18.011  0.00  0.00    +0.179 C 
ATOM     15  C   UNL     1      35.576 -22.002 -17.308  0.00  0.00    +0.221 C 
ATOM     16  C   UNL     1      37.785 -21.103 -17.431  0.00  0.00    +0.024 C 
ATOM     17  C   UNL     1      37.036 -22.352 -15.556  0.00  0.00    +0.169 C 
ATOM     18  C   UNL     1      38.051 -21.649 -16.181  0.00  0.00    +0.104 C 
ATOM     19  C   UNL     1      36.491 -23.537 -13.401  0.00  0.00    +0.227 C 
ATOM     20  C   UNL     1      34.441 -24.450 -12.816  0.00  0.00    +0.150 C 
ATOM     21  C   UNL     1      36.974 -23.884 -12.129  0.00  0.00    +0.205 C 
ATOM     22  C   UNL     1      36.103 -24.516 -11.265  0.00  0.00    +0.145 C 
ATOM     23  H   UNL     1      33.598 -22.579 -17.328  0.00  0.00    +0.157 HD
ATOM     24  H   UNL     1      38.258 -22.837 -13.997  0.00  0.00    +0.157 HD
ATOM     25  H   UNL     1      32.683 -25.481 -12.677  0.00  0.00    +0.165 HD
ENDROOT
BRANCH   7  26
ATOM     26  C   UNL     1      32.325 -24.144 -14.147  0.00  0.00    +0.064 C 
ATOM     27  C   UNL     1      31.228 -23.340 -13.790  0.00  0.00    +0.055 C 
ATOM     28  C   UNL     1      32.607 -24.318 -15.515  0.00  0.00    +0.055 C 
ATOM     29  C   UNL     1      31.817 -23.709 -16.491  0.00  0.00    +0.177 C 
ATOM     30  C   UNL     1      30.439 -22.730 -14.766  0.00  0.00    +0.177 C 
ATOM     31  C   UNL     1      30.734 -22.916 -16.116  0.00  0.00    +0.206 C 
BRANCH  29  32
ATOM     32  O   UNL     1      32.116 -23.898 -17.807  0.00  0.00    -0.468 OA
ATOM     33  C   UNL     1      33.209 -24.766 -18.105  0.00  0.00    +0.253 C 
ENDBRANCH  29  32
BRANCH  30  34
ATOM     34  O   UNL     1      29.383 -21.958 -14.386  0.00  0.00    -0.468 OA
ATOM     35  C   UNL     1      28.078 -22.446 -14.694  0.00  0.00    +0.253 C 
ENDBRANCH  30  34
BRANCH  31  36
ATOM     36  O   UNL     1      29.963 -22.320 -17.071  0.00  0.00    -0.465 OA
ATOM     37  C   UNL     1      28.759 -22.987 -17.440  0.00  0.00    +0.253 C 
ENDBRANCH  31  36
ENDBRANCH   7  26
TORSDOF 4
ENDMDL
MODEL 4
REMARK VINA RESULT:      -4.4      1.549      5.545
REMARK  Name = 11213558
REMARK  4 active torsions:
REMARK  status: ('A' for Active; 'I' for Inactive)
REMARK    1  A    between atoms: N_7  and  C_26
REMARK    2  A    between atoms: C_29  and  O_32
REMARK    3  A    between atoms: C_30  and  O_34
REMARK    4  A    between atoms: C_31  and  O_36
REMARK                            x       y       z     vdW  Elec       q    Type
REMARK                         _______ _______ _______ _____ _____    ______ ____
ROOT
ATOM      1  F   UNL     1      38.213 -23.613 -11.747  0.00  0.00    -0.198 F 
ATOM      2  O   UNL     1      36.325 -20.715 -19.205  0.00  0.00    -0.470 OA
ATOM      3  O   UNL     1      32.856 -21.693 -19.564  0.00  0.00    -0.271 OA
ATOM      4  N   UNL     1      34.310 -22.140 -17.853  0.00  0.00    -0.254 N 
ATOM      5  N   UNL     1      35.807 -22.540 -16.070  0.00  0.00    -0.373 NA
ATOM      6  N   UNL     1      37.313 -22.917 -14.263  0.00  0.00    -0.264 N 
ATOM      7  N   UNL     1      33.096 -24.753 -13.178  0.00  0.00    -0.247 N 
ATOM      8  N   UNL     1      35.183 -23.836 -13.734  0.00  0.00    -0.320 NA
ATOM      9  N   UNL     1      34.803 -24.820 -11.568  0.00  0.00    -0.167 NA
ATOM     10  C   UNL     1      35.214 -21.227 -19.938  0.00  0.00    +0.201 C 
ATOM     11  C   UNL     1      34.000 -21.675 -19.110  0.00  0.00    +0.264 C 
ATOM     12  C   UNL     1      35.699 -22.425 -20.771  0.00  0.00    +0.053 C 
ATOM     13  C   UNL     1      34.783 -20.103 -20.887  0.00  0.00    +0.053 C 
ATOM     14  C   UNL     1      36.547 -21.293 -17.992  0.00  0.00    +0.179 C 
ATOM     15  C   UNL     1      35.586 -22.007 -17.295  0.00  0.00    +0.221 C 
ATOM     16  C   UNL     1      37.795 -21.109 -17.406  0.00  0.00    +0.024 C 
ATOM     17  C   UNL     1      37.035 -22.357 -15.535  0.00  0.00    +0.169 C 
ATOM     18  C   UNL     1      38.054 -21.655 -16.154  0.00  0.00    +0.104 C 
ATOM     19  C   UNL     1      36.479 -23.542 -13.383  0.00  0.00    +0.227 C 
ATOM     20  C   UNL     1      34.426 -24.454 -12.809  0.00  0.00    +0.150 C 
ATOM     21  C   UNL     1      36.955 -23.889 -12.108  0.00  0.00    +0.205 C 
ATOM     22  C   UNL     1      36.079 -24.521 -11.249  0.00  0.00    +0.145 C 
ATOM     23  H   UNL     1      33.607 -22.584 -17.325  0.00  0.00    +0.157 HD
ATOM     24  H   UNL     1      38.250 -22.843 -13.970  0.00  0.00    +0.157 HD
ATOM     25  H   UNL     1      32.667 -25.485 -12.679  0.00  0.00    +0.165 HD
ENDROOT
BRANCH   7  26
ATOM     26  C   UNL     1      32.317 -24.148 -14.151  0.00  0.00    +0.064 C 
ATOM     27  C   UNL     1      32.604 -24.320 -15.517  0.00  0.00    +0.055 C 
ATOM     28  C   UNL     1      31.217 -23.344 -13.798  0.00  0.00    +0.055 C 
ATOM     29  C   UNL     1      30.433 -22.734 -14.777  0.00  0.00    +0.177 C 
ATOM     30  C   UNL     1      31.820 -23.711 -16.497  0.00  0.00    +0.177 C 
ATOM     31  C   UNL     1      30.735 -22.917 -16.126  0.00  0.00    +0.206 C 
BRANCH  29  32
ATOM     32  O   UNL     1      29.375 -21.961 -14.402  0.00  0.00    -0.468 OA
ATOM     33  C   UNL     1      28.072 -22.487 -14.643  0.00  0.00    +0.253 C 
ENDBRANCH  29  32
BRANCH  30  34
ATOM     34  O   UNL     1      32.126 -23.898 -17.811  0.00  0.00    -0.468 OA
ATOM     35  C   UNL     1      33.210 -24.777 -18.106  0.00  0.00    +0.253 C 
ENDBRANCH  30  34
BRANCH  31  36
ATOM     36  O   UNL     1      29.967 -22.322 -17.083  0.00  0.00    -0.465 OA
ATOM     37  C   UNL     1      28.759 -22.986 -17.448  0.00  0.00    +0.253 C 
ENDBRANCH  31  36
ENDBRANCH   7  26
TORSDOF 4
ENDMDL
MODEL 5
REMARK VINA RESULT:      -4.3      3.028      6.860
REMARK  Name = 11213558
REMARK  4 active torsions:
REMARK  status: ('A' for Active; 'I' for Inactive)
REMARK    1  A    between atoms: N_7  and  C_26
REMARK    2  A    between atoms: C_29  and  O_32
REMARK    3  A    between atoms: C_30  and  O_34
REMARK    4  A    between atoms: C_31  and  O_36
REMARK                            x       y       z     vdW  Elec       q    Type
REMARK                         _______ _______ _______ _____ _____    ______ ____
ROOT
ATOM      1  F   UNL     1      28.696 -23.515 -15.841  0.00  0.00    -0.198 F 
ATOM      2  O   UNL     1      35.490 -21.494 -20.007  0.00  0.00    -0.470 OA
ATOM      3  O   UNL     1      38.113 -22.244 -17.626  0.00  0.00    -0.271 OA
ATOM      4  N   UNL     1      35.844 -22.376 -17.358  0.00  0.00    -0.254 N 
ATOM      5  N   UNL     1      33.501 -22.564 -17.122  0.00  0.00    -0.373 NA
ATOM      6  N   UNL     1      31.139 -22.778 -16.897  0.00  0.00    -0.264 N 
ATOM      7  N   UNL     1      33.215 -24.242 -12.912  0.00  0.00    -0.247 N 
ATOM      8  N   UNL     1      32.202 -23.510 -14.898  0.00  0.00    -0.320 NA
ATOM      9  N   UNL     1      30.884 -24.433 -13.105  0.00  0.00    -0.167 NA
ATOM     10  C   UNL     1      36.716 -21.219 -19.334  0.00  0.00    +0.201 C 
ATOM     11  C   UNL     1      36.979 -22.017 -18.047  0.00  0.00    +0.264 C 
ATOM     12  C   UNL     1      36.750 -19.722 -18.989  0.00  0.00    +0.053 C 
ATOM     13  C   UNL     1      37.828 -21.524 -20.345  0.00  0.00    +0.053 C 
ATOM     14  C   UNL     1      34.432 -21.795 -19.205  0.00  0.00    +0.179 C 
ATOM     15  C   UNL     1      34.561 -22.228 -17.895  0.00  0.00    +0.221 C 
ATOM     16  C   UNL     1      33.156 -21.708 -19.754  0.00  0.00    +0.024 C 
ATOM     17  C   UNL     1      32.274 -22.454 -17.680  0.00  0.00    +0.169 C 
ATOM     18  C   UNL     1      32.050 -22.037 -18.980  0.00  0.00    +0.104 C 
ATOM     19  C   UNL     1      31.066 -23.322 -15.649  0.00  0.00    +0.227 C 
ATOM     20  C   UNL     1      32.043 -24.053 -13.676  0.00  0.00    +0.150 C 
ATOM     21  C   UNL     1      29.814 -23.690 -15.129  0.00  0.00    +0.205 C 
ATOM     22  C   UNL     1      29.784 -24.237 -13.862  0.00  0.00    +0.145 C 
ATOM     23  H   UNL     1      35.938 -22.753 -16.454  0.00  0.00    +0.157 HD
ATOM     24  H   UNL     1      30.272 -22.580 -17.318  0.00  0.00    +0.157 HD
ATOM     25  H   UNL     1      33.088 -24.295 -11.938  0.00  0.00    +0.165 HD
ENDROOT
BRANCH   7  26
ATOM     26  C   UNL     1      34.522 -24.365 -13.358  0.00  0.00    +0.064 C 
ATOM     27  C   UNL     1      35.560 -23.627 -12.762  0.00  0.00    +0.055 C 
ATOM     28  C   UNL     1      34.844 -25.231 -14.418  0.00  0.00    +0.055 C 
ATOM     29  C   UNL     1      36.158 -25.355 -14.868  0.00  0.00    +0.177 C 
ATOM     30  C   UNL     1      36.876 -23.750 -13.210  0.00  0.00    +0.177 C 
ATOM     31  C   UNL     1      37.174 -24.614 -14.264  0.00  0.00    +0.206 C 
BRANCH  29  32
ATOM     32  O   UNL     1      36.437 -26.203 -15.898  0.00  0.00    -0.468 OA
ATOM     33  C   UNL     1      36.772 -27.546 -15.558  0.00  0.00    +0.253 C 
ENDBRANCH  29  32
BRANCH  30  34
ATOM     34  O   UNL     1      37.858 -23.021 -12.612  0.00  0.00    -0.468 OA
ATOM     35  C   UNL     1      37.613 -22.571 -11.281  0.00  0.00    +0.253 C 
ENDBRANCH  30  34
BRANCH  31  36
ATOM     36  O   UNL     1      38.460 -24.736 -14.703  0.00  0.00    -0.465 OA
ATOM     37  C   UNL     1      39.327 -25.570 -13.938  0.00  0.00    +0.253 C 
ENDBRANCH  31  36
ENDBRANCH   7  26
TORSDOF 4
ENDMDL
MODEL 6
REMARK VINA RESULT:      -4.3      3.027      7.035
REMARK  Name = 11213558
REMARK  4 active torsions:
REMARK  status: ('A' for Active; 'I' for Inactive)
REMARK    1  A    between atoms: N_7  and  C_26
REMARK    2  A    between atoms: C_29  and  O_32
REMARK    3  A    between atoms: C_30  and  O_34
REMARK    4  A    between atoms: C_31  and  O_36
REMARK                            x       y       z     vdW  Elec       q    Type
REMARK                         _______ _______ _______ _____ _____    ______ ____
ROOT
ATOM      1  F   UNL     1      28.728 -23.516 -15.842  0.00  0.00    -0.198 F 
ATOM      2  O   UNL     1      35.514 -21.486 -20.016  0.00  0.00    -0.470 OA
ATOM      3  O   UNL     1      38.142 -22.245 -17.643  0.00  0.00    -0.271 OA
ATOM      4  N   UNL     1      35.873 -22.377 -17.371  0.00  0.00    -0.254 N 
ATOM      5  N   UNL     1      33.531 -22.563 -17.130  0.00  0.00    -0.373 NA
ATOM      6  N   UNL     1      31.169 -22.777 -16.901  0.00  0.00    -0.264 N 
ATOM      7  N   UNL     1      33.253 -24.255 -12.925  0.00  0.00    -0.247 N 
ATOM      8  N   UNL     1      32.236 -23.516 -14.907  0.00  0.00    -0.320 NA
ATOM      9  N   UNL     1      30.921 -24.444 -13.113  0.00  0.00    -0.167 NA
ATOM     10  C   UNL     1      36.741 -21.214 -19.344  0.00  0.00    +0.201 C 
ATOM     11  C   UNL     1      37.007 -22.016 -18.060  0.00  0.00    +0.264 C 
ATOM     12  C   UNL     1      36.777 -19.717 -18.994  0.00  0.00    +0.053 C 
ATOM     13  C   UNL     1      37.851 -21.515 -20.359  0.00  0.00    +0.053 C 
ATOM     14  C   UNL     1      34.457 -21.789 -19.212  0.00  0.00    +0.179 C 
ATOM     15  C   UNL     1      34.589 -22.225 -17.904  0.00  0.00    +0.221 C 
ATOM     16  C   UNL     1      33.181 -21.699 -19.759  0.00  0.00    +0.024 C 
ATOM     17  C   UNL     1      32.303 -22.451 -17.685  0.00  0.00    +0.169 C 
ATOM     18  C   UNL     1      32.076 -22.030 -18.984  0.00  0.00    +0.104 C 
ATOM     19  C   UNL     1      31.098 -23.325 -15.654  0.00  0.00    +0.227 C 
ATOM     20  C   UNL     1      32.079 -24.063 -13.686  0.00  0.00    +0.150 C 
ATOM     21  C   UNL     1      29.847 -23.694 -15.133  0.00  0.00    +0.205 C 
ATOM     22  C   UNL     1      29.820 -24.245 -13.867  0.00  0.00    +0.145 C 
ATOM     23  H   UNL     1      35.968 -22.756 -16.467  0.00  0.00    +0.157 HD
ATOM     24  H   UNL     1      30.301 -22.577 -17.319  0.00  0.00    +0.157 HD
ATOM     25  H   UNL     1      33.127 -24.310 -11.950  0.00  0.00    +0.165 HD
ENDROOT
BRANCH   7  26
ATOM     26  C   UNL     1      34.558 -24.377 -13.374  0.00  0.00    +0.064 C 
ATOM     27  C   UNL     1      34.880 -25.246 -14.431  0.00  0.00    +0.055 C 
ATOM     28  C   UNL     1      35.596 -23.633 -12.783  0.00  0.00    +0.055 C 
ATOM     29  C   UNL     1      36.910 -23.756 -13.234  0.00  0.00    +0.177 C 
ATOM     30  C   UNL     1      36.194 -25.369 -14.883  0.00  0.00    +0.177 C 
ATOM     31  C   UNL     1      37.210 -24.623 -14.284  0.00  0.00    +0.206 C 
BRANCH  29  32
ATOM     32  O   UNL     1      37.893 -23.021 -12.640  0.00  0.00    -0.468 OA
ATOM     33  C   UNL     1      37.631 -22.533 -11.326  0.00  0.00    +0.253 C 
ENDBRANCH  29  32
BRANCH  30  34
ATOM     34  O   UNL     1      36.473 -26.220 -15.909  0.00  0.00    -0.468 OA
ATOM     35  C   UNL     1      36.810 -27.563 -15.564  0.00  0.00    +0.253 C 
ENDBRANCH  30  34
BRANCH  31  36
ATOM     36  O   UNL     1      38.494 -24.742 -14.725  0.00  0.00    -0.465 OA
ATOM     37  C   UNL     1      39.367 -25.572 -13.962  0.00  0.00    +0.253 C 
ENDBRANCH  31  36
ENDBRANCH   7  26
TORSDOF 4
ENDMDL
MODEL 7
REMARK VINA RESULT:      -4.3      2.976      6.839
REMARK  Name = 11213558
REMARK  4 active torsions:
REMARK  status: ('A' for Active; 'I' for Inactive)
REMARK    1  A    between atoms: N_7  and  C_26
REMARK    2  A    between atoms: C_29  and  O_32
REMARK    3  A    between atoms: C_30  and  O_34
REMARK    4  A    between atoms: C_31  and  O_36
REMARK                            x       y       z     vdW  Elec       q    Type
REMARK                         _______ _______ _______ _____ _____    ______ ____
ROOT
ATOM      1  F   UNL     1      36.897 -20.909 -20.759  0.00  0.00    -0.198 F 
ATOM      2  O   UNL     1      37.671 -24.053 -13.202  0.00  0.00    -0.470 OA
ATOM      3  O   UNL     1      34.222 -24.446 -12.167  0.00  0.00    -0.271 OA
ATOM      4  N   UNL     1      35.053 -23.540 -14.099  0.00  0.00    -0.254 N 
ATOM      5  N   UNL     1      35.927 -22.665 -16.111  0.00  0.00    -0.373 NA
ATOM      6  N   UNL     1      36.813 -21.809 -18.150  0.00  0.00    -0.264 N 
ATOM      7  N   UNL     1      32.093 -21.739 -18.359  0.00  0.00    -0.247 N 
ATOM      8  N   UNL     1      34.436 -21.781 -18.237  0.00  0.00    -0.320 NA
ATOM      9  N   UNL     1      33.315 -21.086 -20.253  0.00  0.00    -0.167 NA
ATOM     10  C   UNL     1      36.607 -23.973 -12.256  0.00  0.00    +0.201 C 
ATOM     11  C   UNL     1      35.182 -24.045 -12.826  0.00  0.00    +0.264 C 
ATOM     12  C   UNL     1      36.751 -22.654 -11.481  0.00  0.00    +0.053 C 
ATOM     13  C   UNL     1      36.817 -25.145 -11.289  0.00  0.00    +0.053 C 
ATOM     14  C   UNL     1      37.427 -23.475 -14.411  0.00  0.00    +0.179 C 
ATOM     15  C   UNL     1      36.156 -23.201 -14.889  0.00  0.00    +0.221 C 
ATOM     16  C   UNL     1      38.519 -23.193 -15.226  0.00  0.00    +0.024 C 
ATOM     17  C   UNL     1      37.010 -22.389 -16.872  0.00  0.00    +0.169 C 
ATOM     18  C   UNL     1      38.315 -22.633 -16.481  0.00  0.00    +0.104 C 
ATOM     19  C   UNL     1      35.657 -21.575 -18.834  0.00  0.00    +0.227 C 
ATOM     20  C   UNL     1      33.343 -21.525 -18.980  0.00  0.00    +0.150 C 
ATOM     21  C   UNL     1      35.720 -21.117 -20.160  0.00  0.00    +0.205 C 
ATOM     22  C   UNL     1      34.526 -20.892 -20.816  0.00  0.00    +0.145 C 
ATOM     23  H   UNL     1      34.149 -23.413 -14.469  0.00  0.00    +0.157 HD
ATOM     24  H   UNL     1      37.636 -21.533 -18.615  0.00  0.00    +0.157 HD
ATOM     25  H   UNL     1      31.334 -21.240 -18.740  0.00  0.00    +0.165 HD
ENDROOT
BRANCH   7  26
ATOM     26  C   UNL     1      31.796 -22.560 -17.283  0.00  0.00    +0.064 C 
ATOM     27  C   UNL     1      32.744 -23.475 -16.791  0.00  0.00    +0.055 C 
ATOM     28  C   UNL     1      30.539 -22.500 -16.655  0.00  0.00    +0.055 C 
ATOM     29  C   UNL     1      30.240 -23.327 -15.572  0.00  0.00    +0.177 C 
ATOM     30  C   UNL     1      32.446 -24.302 -15.707  0.00  0.00    +0.177 C 
ATOM     31  C   UNL     1      31.193 -24.228 -15.099  0.00  0.00    +0.206 C 
BRANCH  29  32
ATOM     32  O   UNL     1      29.012 -23.245 -14.986  0.00  0.00    -0.468 OA
ATOM     33  C   UNL     1      27.964 -22.662 -15.758  0.00  0.00    +0.253 C 
ENDBRANCH  29  32
BRANCH  30  34
ATOM     34  O   UNL     1      33.386 -25.178 -15.255  0.00  0.00    -0.468 OA
ATOM     35  C   UNL     1      34.452 -25.502 -16.145  0.00  0.00    +0.253 C 
ENDBRANCH  30  34
BRANCH  31  36
ATOM     36  O   UNL     1      30.901 -25.035 -14.039  0.00  0.00    -0.465 OA
ATOM     37  C   UNL     1      30.755 -24.406 -12.768  0.00  0.00    +0.253 C 
ENDBRANCH  31  36
ENDBRANCH   7  26
TORSDOF 4
ENDMDL
MODEL 8
REMARK VINA RESULT:      -4.2      2.958      6.874
REMARK  Name = 11213558
REMARK  4 active torsions:
REMARK  status: ('A' for Active; 'I' for Inactive)
REMARK    1  A    between atoms: N_7  and  C_26
REMARK    2  A    between atoms: C_29  and  O_32
REMARK    3  A    between atoms: C_30  and  O_34
REMARK    4  A    between atoms: C_31  and  O_36
REMARK                            x       y       z     vdW  Elec       q    Type
REMARK                         _______ _______ _______ _____ _____    ______ ____
ROOT
ATOM      1  F   UNL     1      36.929 -20.853 -20.744  0.00  0.00    -0.198 F 
ATOM      2  O   UNL     1      37.654 -24.159 -13.251  0.00  0.00    -0.470 OA
ATOM      3  O   UNL     1      34.199 -24.522 -12.225  0.00  0.00    -0.271 OA
ATOM      4  N   UNL     1      35.044 -23.590 -14.138  0.00  0.00    -0.254 N 
ATOM      5  N   UNL     1      35.932 -22.688 -16.131  0.00  0.00    -0.373 NA
ATOM      6  N   UNL     1      36.831 -21.804 -18.153  0.00  0.00    -0.264 N 
ATOM      7  N   UNL     1      32.112 -21.661 -18.361  0.00  0.00    -0.247 N 
ATOM      8  N   UNL     1      34.454 -21.740 -18.239  0.00  0.00    -0.320 NA
ATOM      9  N   UNL     1      33.344 -20.989 -20.242  0.00  0.00    -0.167 NA
ATOM     10  C   UNL     1      36.591 -24.082 -12.303  0.00  0.00    +0.201 C 
ATOM     11  C   UNL     1      35.165 -24.122 -12.875  0.00  0.00    +0.264 C 
ATOM     12  C   UNL     1      36.753 -22.781 -11.502  0.00  0.00    +0.053 C 
ATOM     13  C   UNL     1      36.783 -25.276 -11.360  0.00  0.00    +0.053 C 
ATOM     14  C   UNL     1      37.419 -23.553 -14.448  0.00  0.00    +0.179 C 
ATOM     15  C   UNL     1      36.152 -23.251 -14.920  0.00  0.00    +0.221 C 
ATOM     16  C   UNL     1      38.516 -23.271 -15.257  0.00  0.00    +0.024 C 
ATOM     17  C   UNL     1      37.019 -22.412 -16.887  0.00  0.00    +0.169 C 
ATOM     18  C   UNL     1      38.319 -22.683 -16.500  0.00  0.00    +0.104 C 
ATOM     19  C   UNL     1      35.678 -21.539 -18.832  0.00  0.00    +0.227 C 
ATOM     20  C   UNL     1      33.365 -21.454 -18.978  0.00  0.00    +0.150 C 
ATOM     21  C   UNL     1      35.748 -21.056 -20.149  0.00  0.00    +0.205 C 
ATOM     22  C   UNL     1      34.558 -20.801 -20.800  0.00  0.00    +0.145 C 
ATOM     23  H   UNL     1      34.142 -23.443 -14.505  0.00  0.00    +0.157 HD
ATOM     24  H   UNL     1      37.658 -21.531 -18.612  0.00  0.00    +0.157 HD
ATOM     25  H   UNL     1      31.361 -21.145 -18.732  0.00  0.00    +0.165 HD
ENDROOT
BRANCH   7  26
ATOM     26  C   UNL     1      31.803 -22.500 -17.302  0.00  0.00    +0.064 C 
ATOM     27  C   UNL     1      30.550 -22.431 -16.668  0.00  0.00    +0.055 C 
ATOM     28  C   UNL     1      32.736 -23.443 -16.833  0.00  0.00    +0.055 C 
ATOM     29  C   UNL     1      32.426 -24.287 -15.767  0.00  0.00    +0.177 C 
ATOM     30  C   UNL     1      30.239 -23.275 -15.602  0.00  0.00    +0.177 C 
ATOM     31  C   UNL     1      31.178 -24.203 -15.151  0.00  0.00    +0.206 C 
BRANCH  29  32
ATOM     32  O   UNL     1      33.353 -25.189 -15.336  0.00  0.00    -0.468 OA
ATOM     33  C   UNL     1      34.437 -25.474 -16.218  0.00  0.00    +0.253 C 
ENDBRANCH  29  32
BRANCH  30  34
ATOM     34  O   UNL     1      29.016 -23.183 -15.009  0.00  0.00    -0.468 OA
ATOM     35  C   UNL     1      27.983 -22.535 -15.751  0.00  0.00    +0.253 C 
ENDBRANCH  30  34
BRANCH  31  36
ATOM     36  O   UNL     1      30.874 -25.030 -14.110  0.00  0.00    -0.465 OA
ATOM     37  C   UNL     1      30.819 -24.441 -12.813  0.00  0.00    +0.253 C 
ENDBRANCH  31  36
ENDBRANCH   7  26
TORSDOF 4
ENDMDL
