MODEL 1
REMARK VINA RESULT:     -12.5      0.000      0.000
REMARK  Name = 5326868
REMARK  6 active torsions:
REMARK  status: ('A' for Active; 'I' for Inactive)
REMARK    1  A    between atoms: C_2  and  C_28
REMARK    2  A    between atoms: C_7  and  N_12
REMARK    3  A    between atoms: C_13  and  C_18
REMARK    4  A    between atoms: C_16  and  N_23
REMARK    5  A    between atoms: C_28  and  C_29
REMARK    6  A    between atoms: C_29  and  C_31
REMARK                            x       y       z     vdW  Elec       q    Type
REMARK                         _______ _______ _______ _____ _____    ______ ____
ROOT
ATOM      1  N   UNL     1      34.761 -16.507 -24.309  0.00  0.00    -0.312 N 
ATOM      2  C   UNL     1      34.408 -15.633 -22.299  0.00  0.00    -0.006 C 
ATOM      3  C   UNL     1      34.555 -17.041 -22.153  0.00  0.00    +0.012 C 
ATOM      4  C   UNL     1      34.774 -17.565 -23.428  0.00  0.00    +0.048 C 
ATOM      5  C   UNL     1      34.540 -15.335 -23.636  0.00  0.00    +0.058 C 
ATOM      6  C   UNL     1      34.519 -17.922 -21.053  0.00  0.00    +0.016 C 
ATOM      7  C   UNL     1      34.707 -19.291 -21.271  0.00  0.00    +0.051 C 
ATOM      8  C   UNL     1      34.963 -18.932 -23.660  0.00  0.00    +0.016 C 
ATOM      9  C   UNL     1      34.925 -19.787 -22.555  0.00  0.00    +0.016 C 
ATOM     10  H   UNL     1      34.891 -16.583 -25.282  0.00  0.00    +0.152 HD
ENDROOT
BRANCH   7  12
ATOM     11  O   UNL     1      32.632 -21.303 -20.473  0.00  0.00    -0.270 OA
ATOM     12  N   UNL     1      34.673 -20.172 -20.187  0.00  0.00    -0.280 N 
ATOM     13  C   UNL     1      33.673 -21.096 -19.859  0.00  0.00    +0.250 C 
ATOM     14  H   UNL     1      35.446 -20.138 -19.579  0.00  0.00    +0.155 HD
BRANCH  13  18
ATOM     15  F   UNL     1      36.685 -22.984 -16.580  0.00  0.00    -0.204 F 
ATOM     16  C   UNL     1      33.054 -23.125 -16.771  0.00  0.00    +0.050 C 
ATOM     17  C   UNL     1      32.829 -22.393 -17.937  0.00  0.00    +0.019 C 
ATOM     18  C   UNL     1      33.912 -21.878 -18.618  0.00  0.00    +0.057 C 
ATOM     19  C   UNL     1      34.356 -23.325 -16.313  0.00  0.00    +0.044 C 
ATOM     20  C   UNL     1      35.209 -22.061 -18.186  0.00  0.00    +0.034 C 
ATOM     21  C   UNL     1      35.434 -22.793 -17.021  0.00  0.00    +0.142 C 
BRANCH  16  23
ATOM     22  O   UNL     1      29.813 -24.503 -14.472  0.00  0.00    -0.350 OA
ATOM     23  N   UNL     1      31.973 -23.659 -16.060  0.00  0.00    -0.303 N 
ATOM     24  C   UNL     1      30.605 -23.251 -16.395  0.00  0.00    +0.123 C 
ATOM     25  C   UNL     1      32.187 -24.039 -14.657  0.00  0.00    +0.123 C 
ATOM     26  C   UNL     1      29.616 -24.286 -15.869  0.00  0.00    +0.164 C 
ATOM     27  C   UNL     1      31.115 -25.034 -14.225  0.00  0.00    +0.164 C 
ENDBRANCH  16  23
ENDBRANCH  13  18
ENDBRANCH   7  12
BRANCH   2  28
ATOM     28  C   UNL     1      34.159 -14.658 -21.219  0.00  0.00    +0.032 C 
BRANCH  28  29
ATOM     29  C   UNL     1      32.666 -14.419 -20.902  0.00  0.00    +0.031 C 
BRANCH  29  31
ATOM     30  N   UNL     1      31.445 -10.351 -21.476  0.00  0.00    -0.242 NA
ATOM     31  C   UNL     1      32.236 -12.988 -21.104  0.00  0.00    -0.019 C 
ATOM     32  C   UNL     1      31.848 -12.234 -20.014  0.00  0.00    +0.016 C 
ATOM     33  C   UNL     1      32.237 -12.451 -22.377  0.00  0.00    +0.016 C 
ATOM     34  C   UNL     1      31.462 -10.925 -20.252  0.00  0.00    +0.099 C 
ATOM     35  C   UNL     1      31.834 -11.131 -22.510  0.00  0.00    +0.099 C 
ENDBRANCH  29  31
ENDBRANCH  28  29
ENDBRANCH   2  28
TORSDOF 6
ENDMDL
MODEL 2
REMARK VINA RESULT:     -12.3      4.249     11.307
REMARK  Name = 5326868
REMARK  6 active torsions:
REMARK  status: ('A' for Active; 'I' for Inactive)
REMARK    1  A    between atoms: C_2  and  C_28
REMARK    2  A    between atoms: C_7  and  N_12
REMARK    3  A    between atoms: C_13  and  C_18
REMARK    4  A    between atoms: C_16  and  N_23
REMARK    5  A    between atoms: C_28  and  C_29
REMARK    6  A    between atoms: C_29  and  C_31
REMARK                            x       y       z     vdW  Elec       q    Type
REMARK                         _______ _______ _______ _____ _____    ______ ____
ROOT
ATOM      1  N   UNL     1      34.678 -17.991 -25.397  0.00  0.00    -0.312 N 
ATOM      2  C   UNL     1      34.787 -18.156 -23.186  0.00  0.00    -0.006 C 
ATOM      3  C   UNL     1      34.319 -16.852 -23.513  0.00  0.00    +0.012 C 
ATOM      4  C   UNL     1      34.260 -16.775 -24.906  0.00  0.00    +0.048 C 
ATOM      5  C   UNL     1      34.998 -18.832 -24.365  0.00  0.00    +0.058 C 
ATOM      6  C   UNL     1      33.941 -15.726 -22.754  0.00  0.00    +0.016 C 
ATOM      7  C   UNL     1      33.517 -14.568 -23.416  0.00  0.00    +0.051 C 
ATOM      8  C   UNL     1      33.839 -15.623 -25.581  0.00  0.00    +0.016 C 
ATOM      9  C   UNL     1      33.467 -14.519 -24.808  0.00  0.00    +0.016 C 
ATOM     10  H   UNL     1      34.737 -18.222 -26.352  0.00  0.00    +0.152 HD
ENDROOT
BRANCH   7  12
ATOM     11  O   UNL     1      31.663 -14.335 -21.071  0.00  0.00    -0.270 OA
ATOM     12  N   UNL     1      33.140 -13.448 -22.672  0.00  0.00    -0.280 N 
ATOM     13  C   UNL     1      32.265 -13.395 -21.579  0.00  0.00    +0.250 C 
ATOM     14  H   UNL     1      33.538 -12.592 -22.949  0.00  0.00    +0.155 HD
BRANCH  13  18
ATOM     15  F   UNL     1      31.451 -10.494 -17.797  0.00  0.00    -0.204 F 
ATOM     16  C   UNL     1      31.825  -9.682 -21.324  0.00  0.00    +0.050 C 
ATOM     17  C   UNL     1      32.035 -10.954 -21.860  0.00  0.00    +0.019 C 
ATOM     18  C   UNL     1      32.041 -12.040 -21.010  0.00  0.00    +0.057 C 
ATOM     19  C   UNL     1      31.628  -9.527 -19.952  0.00  0.00    +0.044 C 
ATOM     20  C   UNL     1      31.849 -11.914 -19.650  0.00  0.00    +0.034 C 
ATOM     21  C   UNL     1      31.640 -10.644 -19.115  0.00  0.00    +0.142 C 
BRANCH  16  23
ATOM     22  O   UNL     1      32.057  -6.373 -23.908  0.00  0.00    -0.350 OA
ATOM     23  N   UNL     1      31.814  -8.563 -22.163  0.00  0.00    -0.303 N 
ATOM     24  C   UNL     1      31.550  -8.726 -23.597  0.00  0.00    +0.123 C 
ATOM     25  C   UNL     1      32.673  -7.424 -21.810  0.00  0.00    +0.123 C 
ATOM     26  C   UNL     1      31.103  -7.395 -24.192  0.00  0.00    +0.164 C 
ATOM     27  C   UNL     1      32.164  -6.163 -22.499  0.00  0.00    +0.164 C 
ENDBRANCH  16  23
ENDBRANCH  13  18
ENDBRANCH   7  12
BRANCH   2  28
ATOM     28  C   UNL     1      35.009 -18.695 -21.830  0.00  0.00    +0.032 C 
BRANCH  28  29
ATOM     29  C   UNL     1      33.922 -19.681 -21.347  0.00  0.00    +0.031 C 
BRANCH  29  31
ATOM     30  N   UNL     1      35.314 -22.383 -18.325  0.00  0.00    -0.242 NA
ATOM     31  C   UNL     1      34.412 -20.633 -20.283  0.00  0.00    -0.019 C 
ATOM     32  C   UNL     1      35.766 -20.732 -20.032  0.00  0.00    +0.016 C 
ATOM     33  C   UNL     1      33.499 -21.391 -19.576  0.00  0.00    +0.016 C 
ATOM     34  C   UNL     1      36.166 -21.619 -19.046  0.00  0.00    +0.099 C 
ATOM     35  C   UNL     1      33.999 -22.249 -18.610  0.00  0.00    +0.099 C 
ENDBRANCH  29  31
ENDBRANCH  28  29
ENDBRANCH   2  28
TORSDOF 6
ENDMDL
MODEL 3
REMARK VINA RESULT:     -12.3      5.081     12.341
REMARK  Name = 5326868
REMARK  6 active torsions:
REMARK  status: ('A' for Active; 'I' for Inactive)
REMARK    1  A    between atoms: C_2  and  C_28
REMARK    2  A    between atoms: C_7  and  N_12
REMARK    3  A    between atoms: C_13  and  C_18
REMARK    4  A    between atoms: C_16  and  N_23
REMARK    5  A    between atoms: C_28  and  C_29
REMARK    6  A    between atoms: C_29  and  C_31
REMARK                            x       y       z     vdW  Elec       q    Type
REMARK                         _______ _______ _______ _____ _____    ______ ____
ROOT
ATOM      1  N   UNL     1      34.196 -17.341 -25.457  0.00  0.00    -0.312 N 
ATOM      2  C   UNL     1      34.781 -17.022 -23.339  0.00  0.00    -0.006 C 
ATOM      3  C   UNL     1      34.241 -15.805 -23.840  0.00  0.00    +0.012 C 
ATOM      4  C   UNL     1      33.882 -16.032 -25.170  0.00  0.00    +0.048 C 
ATOM      5  C   UNL     1      34.740 -17.948 -24.357  0.00  0.00    +0.058 C 
ATOM      6  C   UNL     1      34.023 -14.527 -23.287  0.00  0.00    +0.016 C 
ATOM      7  C   UNL     1      33.455 -13.527 -24.083  0.00  0.00    +0.051 C 
ATOM      8  C   UNL     1      33.313 -15.040 -25.978  0.00  0.00    +0.016 C 
ATOM      9  C   UNL     1      33.106 -13.781 -25.408  0.00  0.00    +0.016 C 
ATOM     10  H   UNL     1      34.051 -17.777 -26.327  0.00  0.00    +0.152 HD
ENDROOT
BRANCH   7  12
ATOM     11  O   UNL     1      31.575 -12.639 -21.922  0.00  0.00    -0.270 OA
ATOM     12  N   UNL     1      33.236 -12.257 -23.543  0.00  0.00    -0.280 N 
ATOM     13  C   UNL     1      32.340 -11.896 -22.528  0.00  0.00    +0.250 C 
ATOM     14  H   UNL     1      33.777 -11.528 -23.921  0.00  0.00    +0.155 HD
BRANCH  13  18
ATOM     15  F   UNL     1      31.645  -8.330 -19.338  0.00  0.00    -0.204 F 
ATOM     16  C   UNL     1      32.606  -8.172 -22.843  0.00  0.00    +0.050 C 
ATOM     17  C   UNL     1      32.628  -9.529 -23.165  0.00  0.00    +0.019 C 
ATOM     18  C   UNL     1      32.316 -10.449 -22.187  0.00  0.00    +0.057 C 
ATOM     19  C   UNL     1      32.274  -7.767 -21.550  0.00  0.00    +0.044 C 
ATOM     20  C   UNL     1      31.985 -10.075 -20.901  0.00  0.00    +0.034 C 
ATOM     21  C   UNL     1      31.963  -8.719 -20.579  0.00  0.00    +0.142 C 
BRANCH  16  23
ATOM     22  O   UNL     1      33.603  -5.123 -25.563  0.00  0.00    -0.350 OA
ATOM     23  N   UNL     1      32.919  -7.217 -23.816  0.00  0.00    -0.303 N 
ATOM     24  C   UNL     1      34.313  -7.024 -24.231  0.00  0.00    +0.123 C 
ATOM     25  C   UNL     1      32.066  -6.025 -23.917  0.00  0.00    +0.123 C 
ATOM     26  C   UNL     1      34.355  -6.336 -25.591  0.00  0.00    +0.164 C 
ATOM     27  C   UNL     1      32.226  -5.392 -25.295  0.00  0.00    +0.164 C 
ENDBRANCH  16  23
ENDBRANCH  13  18
ENDBRANCH   7  12
BRANCH   2  28
ATOM     28  C   UNL     1      35.296 -17.261 -21.976  0.00  0.00    +0.032 C 
BRANCH  28  29
ATOM     29  C   UNL     1      35.971 -18.636 -21.777  0.00  0.00    +0.031 C 
BRANCH  29  31
ATOM     30  N   UNL     1      33.595 -21.370 -19.486  0.00  0.00    -0.242 NA
ATOM     31  C   UNL     1      35.135 -19.598 -20.970  0.00  0.00    -0.019 C 
ATOM     32  C   UNL     1      33.758 -19.493 -21.001  0.00  0.00    +0.016 C 
ATOM     33  C   UNL     1      35.758 -20.570 -20.211  0.00  0.00    +0.016 C 
ATOM     34  C   UNL     1      33.034 -20.401 -20.244  0.00  0.00    +0.099 C 
ATOM     35  C   UNL     1      34.945 -21.430 -19.489  0.00  0.00    +0.099 C 
ENDBRANCH  29  31
ENDBRANCH  28  29
ENDBRANCH   2  28
TORSDOF 6
ENDMDL
MODEL 4
REMARK VINA RESULT:     -12.3      2.307      3.139
REMARK  Name = 5326868
REMARK  6 active torsions:
REMARK  status: ('A' for Active; 'I' for Inactive)
REMARK    1  A    between atoms: C_2  and  C_28
REMARK    2  A    between atoms: C_7  and  N_12
REMARK    3  A    between atoms: C_13  and  C_18
REMARK    4  A    between atoms: C_16  and  N_23
REMARK    5  A    between atoms: C_28  and  C_29
REMARK    6  A    between atoms: C_29  and  C_31
REMARK                            x       y       z     vdW  Elec       q    Type
REMARK                         _______ _______ _______ _____ _____    ______ ____
ROOT
ATOM      1  N   UNL     1      35.027 -16.519 -24.215  0.00  0.00    -0.312 N 
ATOM      2  C   UNL     1      34.433 -15.635 -22.267  0.00  0.00    -0.006 C 
ATOM      3  C   UNL     1      34.551 -17.043 -22.100  0.00  0.00    +0.012 C 
ATOM      4  C   UNL     1      34.923 -17.573 -23.336  0.00  0.00    +0.048 C 
ATOM      5  C   UNL     1      34.732 -15.343 -23.578  0.00  0.00    +0.058 C 
ATOM      6  C   UNL     1      34.373 -17.920 -21.011  0.00  0.00    +0.016 C 
ATOM      7  C   UNL     1      34.577 -19.292 -21.200  0.00  0.00    +0.051 C 
ATOM      8  C   UNL     1      35.130 -18.943 -23.540  0.00  0.00    +0.016 C 
ATOM      9  C   UNL     1      34.950 -19.793 -22.445  0.00  0.00    +0.016 C 
ATOM     10  H   UNL     1      35.276 -16.598 -25.164  0.00  0.00    +0.152 HD
ENDROOT
BRANCH   7  12
ATOM     11  O   UNL     1      36.318 -21.530 -20.225  0.00  0.00    -0.270 OA
ATOM     12  N   UNL     1      34.403 -20.168 -20.126  0.00  0.00    -0.280 N 
ATOM     13  C   UNL     1      35.253 -21.202 -19.712  0.00  0.00    +0.250 C 
ATOM     14  H   UNL     1      33.584 -20.044 -19.596  0.00  0.00    +0.155 HD
BRANCH  13  18
ATOM     15  F   UNL     1      31.703 -23.394 -17.267  0.00  0.00    -0.204 F 
ATOM     16  C   UNL     1      35.242 -23.092 -16.477  0.00  0.00    +0.050 C 
ATOM     17  C   UNL     1      35.688 -22.356 -17.575  0.00  0.00    +0.019 C 
ATOM     18  C   UNL     1      34.777 -21.986 -18.542  0.00  0.00    +0.057 C 
ATOM     19  C   UNL     1      33.896 -23.443 -16.374  0.00  0.00    +0.044 C 
ATOM     20  C   UNL     1      33.442 -22.320 -18.464  0.00  0.00    +0.034 C 
ATOM     21  C   UNL     1      32.995 -23.057 -17.367  0.00  0.00    +0.142 C 
BRANCH  16  23
ATOM     22  O   UNL     1      38.016 -23.993 -13.449  0.00  0.00    -0.350 OA
ATOM     23  N   UNL     1      36.144 -23.481 -15.482  0.00  0.00    -0.303 N 
ATOM     24  C   UNL     1      35.730 -23.470 -14.074  0.00  0.00    +0.123 C 
ATOM     25  C   UNL     1      37.576 -23.248 -15.714  0.00  0.00    +0.123 C 
ATOM     26  C   UNL     1      36.653 -24.370 -13.259  0.00  0.00    +0.164 C 
ATOM     27  C   UNL     1      38.399 -24.162 -14.814  0.00  0.00    +0.164 C 
ENDBRANCH  16  23
ENDBRANCH  13  18
ENDBRANCH   7  12
BRANCH   2  28
ATOM     28  C   UNL     1      34.059 -14.654 -21.228  0.00  0.00    +0.032 C 
BRANCH  28  29
ATOM     29  C   UNL     1      32.541 -14.390 -21.114  0.00  0.00    +0.031 C 
BRANCH  29  31
ATOM     30  N   UNL     1      31.514 -10.247 -21.508  0.00  0.00    -0.242 NA
ATOM     31  C   UNL     1      32.179 -12.932 -21.253  0.00  0.00    -0.019 C 
ATOM     32  C   UNL     1      31.786 -12.220 -20.136  0.00  0.00    +0.016 C 
ATOM     33  C   UNL     1      32.247 -12.329 -22.494  0.00  0.00    +0.016 C 
ATOM     34  C   UNL     1      31.465 -10.884 -20.316  0.00  0.00    +0.099 C 
ATOM     35  C   UNL     1      31.905 -10.988 -22.569  0.00  0.00    +0.099 C 
ENDBRANCH  29  31
ENDBRANCH  28  29
ENDBRANCH   2  28
TORSDOF 6
ENDMDL
MODEL 5
REMARK VINA RESULT:     -12.1      3.427     10.225
REMARK  Name = 5326868
REMARK  6 active torsions:
REMARK  status: ('A' for Active; 'I' for Inactive)
REMARK    1  A    between atoms: C_2  and  C_28
REMARK    2  A    between atoms: C_7  and  N_12
REMARK    3  A    between atoms: C_13  and  C_18
REMARK    4  A    between atoms: C_16  and  N_23
REMARK    5  A    between atoms: C_28  and  C_29
REMARK    6  A    between atoms: C_29  and  C_31
REMARK                            x       y       z     vdW  Elec       q    Type
REMARK                         _______ _______ _______ _____ _____    ______ ____
ROOT
ATOM      1  N   UNL     1      35.958 -23.023 -16.023  0.00  0.00    -0.312 N 
ATOM      2  C   UNL     1      33.890 -23.136 -16.823  0.00  0.00    -0.006 C 
ATOM      3  C   UNL     1      34.683 -22.394 -17.742  0.00  0.00    +0.012 C 
ATOM      4  C   UNL     1      35.975 -22.337 -17.216  0.00  0.00    +0.048 C 
ATOM      5  C   UNL     1      34.702 -23.510 -15.776  0.00  0.00    +0.058 C 
ATOM      6  C   UNL     1      34.424 -21.761 -18.974  0.00  0.00    +0.016 C 
ATOM      7  C   UNL     1      35.466 -21.098 -19.633  0.00  0.00    +0.051 C 
ATOM      8  C   UNL     1      37.027 -21.678 -17.864  0.00  0.00    +0.016 C 
ATOM      9  C   UNL     1      36.746 -21.059 -19.086  0.00  0.00    +0.016 C 
ATOM     10  H   UNL     1      36.735 -23.146 -15.432  0.00  0.00    +0.152 HD
ENDROOT
BRANCH   7  12
ATOM     11  O   UNL     1      35.744 -18.218 -20.419  0.00  0.00    -0.270 OA
ATOM     12  N   UNL     1      35.217 -20.468 -20.855  0.00  0.00    -0.280 N 
ATOM     13  C   UNL     1      35.364 -19.112 -21.169  0.00  0.00    +0.250 C 
ATOM     14  H   UNL     1      34.899 -21.049 -21.583  0.00  0.00    +0.155 HD
BRANCH  13  18
ATOM     15  F   UNL     1      34.690 -20.277 -25.814  0.00  0.00    -0.204 F 
ATOM     16  C   UNL     1      34.271 -17.082 -24.123  0.00  0.00    +0.050 C 
ATOM     17  C   UNL     1      34.623 -17.433 -22.820  0.00  0.00    +0.019 C 
ATOM     18  C   UNL     1      34.991 -18.736 -22.559  0.00  0.00    +0.057 C 
ATOM     19  C   UNL     1      34.294 -18.043 -25.135  0.00  0.00    +0.044 C 
ATOM     20  C   UNL     1      35.021 -19.705 -23.540  0.00  0.00    +0.034 C 
ATOM     21  C   UNL     1      34.669 -19.355 -24.843  0.00  0.00    +0.142 C 
BRANCH  16  23
ATOM     22  O   UNL     1      33.403 -13.075 -25.056  0.00  0.00    -0.350 OA
ATOM     23  N   UNL     1      33.894 -15.768 -24.416  0.00  0.00    -0.303 N 
ATOM     24  C   UNL     1      33.648 -15.370 -25.807  0.00  0.00    +0.123 C 
ATOM     25  C   UNL     1      34.375 -14.695 -23.535  0.00  0.00    +0.123 C 
ATOM     26  C   UNL     1      32.798 -14.104 -25.838  0.00  0.00    +0.164 C 
ATOM     27  C   UNL     1      33.484 -13.467 -23.685  0.00  0.00    +0.164 C 
ENDBRANCH  16  23
ENDBRANCH  13  18
ENDBRANCH   7  12
BRANCH   2  28
ATOM     28  C   UNL     1      32.454 -23.455 -16.958  0.00  0.00    +0.032 C 
BRANCH  28  29
ATOM     29  C   UNL     1      31.663 -23.422 -15.632  0.00  0.00    +0.031 C 
BRANCH  29  31
ATOM     30  N   UNL     1      27.430 -23.065 -16.196  0.00  0.00    -0.242 NA
ATOM     31  C   UNL     1      30.173 -23.296 -15.831  0.00  0.00    -0.019 C 
ATOM     32  C   UNL     1      29.524 -24.173 -16.678  0.00  0.00    +0.016 C 
ATOM     33  C   UNL     1      29.479 -22.306 -15.163  0.00  0.00    +0.016 C 
ATOM     34  C   UNL     1      28.155 -24.016 -16.826  0.00  0.00    +0.099 C 
ATOM     35  C   UNL     1      28.112 -22.232 -15.379  0.00  0.00    +0.099 C 
ENDBRANCH  29  31
ENDBRANCH  28  29
ENDBRANCH   2  28
TORSDOF 6
ENDMDL
MODEL 6
REMARK VINA RESULT:     -11.4      3.955      7.529
REMARK  Name = 5326868
REMARK  6 active torsions:
REMARK  status: ('A' for Active; 'I' for Inactive)
REMARK    1  A    between atoms: C_2  and  C_28
REMARK    2  A    between atoms: C_7  and  N_12
REMARK    3  A    between atoms: C_13  and  C_18
REMARK    4  A    between atoms: C_16  and  N_23
REMARK    5  A    between atoms: C_28  and  C_29
REMARK    6  A    between atoms: C_29  and  C_31
REMARK                            x       y       z     vdW  Elec       q    Type
REMARK                         _______ _______ _______ _____ _____    ______ ____
ROOT
ATOM      1  N   UNL     1      31.471  -9.074 -21.270  0.00  0.00    -0.312 N 
ATOM      2  C   UNL     1      32.957  -9.292 -22.905  0.00  0.00    -0.006 C 
ATOM      3  C   UNL     1      32.661 -10.588 -22.396  0.00  0.00    +0.012 C 
ATOM      4  C   UNL     1      31.727 -10.422 -21.371  0.00  0.00    +0.048 C 
ATOM      5  C   UNL     1      32.210  -8.382 -22.193  0.00  0.00    +0.058 C 
ATOM      6  C   UNL     1      33.102 -11.890 -22.709  0.00  0.00    +0.016 C 
ATOM      7  C   UNL     1      32.591 -12.974 -21.988  0.00  0.00    +0.051 C 
ATOM      8  C   UNL     1      31.208 -11.498 -20.641  0.00  0.00    +0.016 C 
ATOM      9  C   UNL     1      31.658 -12.780 -20.971  0.00  0.00    +0.016 C 
ATOM     10  H   UNL     1      30.848  -8.666 -20.627  0.00  0.00    +0.152 HD
ENDROOT
BRANCH   7  12
ATOM     11  O   UNL     1      34.853 -14.579 -20.849  0.00  0.00    -0.270 OA
ATOM     12  N   UNL     1      33.022 -14.268 -22.292  0.00  0.00    -0.280 N 
ATOM     13  C   UNL     1      34.091 -14.974 -21.727  0.00  0.00    +0.250 C 
ATOM     14  H   UNL     1      32.513 -14.740 -22.989  0.00  0.00    +0.155 HD
BRANCH  13  18
ATOM     15  F   UNL     1      34.855 -17.914 -25.489  0.00  0.00    -0.204 F 
ATOM     16  C   UNL     1      34.590 -18.681 -21.942  0.00  0.00    +0.050 C 
ATOM     17  C   UNL     1      34.373 -17.406 -21.419  0.00  0.00    +0.019 C 
ATOM     18  C   UNL     1      34.321 -16.333 -22.283  0.00  0.00    +0.057 C 
ATOM     19  C   UNL     1      34.753 -18.852 -23.317  0.00  0.00    +0.044 C 
ATOM     20  C   UNL     1      34.480 -16.475 -23.646  0.00  0.00    +0.034 C 
ATOM     21  C   UNL     1      34.697 -17.749 -24.169  0.00  0.00    +0.142 C 
BRANCH  16  23
ATOM     22  O   UNL     1      34.816 -21.832 -19.166  0.00  0.00    -0.350 OA
ATOM     23  N   UNL     1      34.647 -19.787 -21.088  0.00  0.00    -0.303 N 
ATOM     24  C   UNL     1      33.463 -20.175 -20.314  0.00  0.00    +0.123 C 
ATOM     25  C   UNL     1      35.937 -20.118 -20.466  0.00  0.00    +0.123 C 
ATOM     26  C   UNL     1      33.592 -21.629 -19.870  0.00  0.00    +0.164 C 
ATOM     27  C   UNL     1      35.934 -21.575 -20.018  0.00  0.00    +0.164 C 
ENDBRANCH  16  23
ENDBRANCH  13  18
ENDBRANCH   7  12
BRANCH   2  28
ATOM     28  C   UNL     1      33.895  -8.971 -24.000  0.00  0.00    +0.032 C 
BRANCH  28  29
ATOM     29  C   UNL     1      34.606  -7.608 -23.854  0.00  0.00    +0.031 C 
BRANCH  29  31
ATOM     30  N   UNL     1      33.037  -4.595 -26.467  0.00  0.00    -0.242 NA
ATOM     31  C   UNL     1      34.054  -6.547 -24.774  0.00  0.00    -0.019 C 
ATOM     32  C   UNL     1      34.804  -6.127 -25.855  0.00  0.00    +0.016 C 
ATOM     33  C   UNL     1      32.806  -6.010 -24.521  0.00  0.00    +0.016 C 
ATOM     34  C   UNL     1      34.252  -5.151 -26.670  0.00  0.00    +0.099 C 
ATOM     35  C   UNL     1      32.343  -5.040 -25.395  0.00  0.00    +0.099 C 
ENDBRANCH  29  31
ENDBRANCH  28  29
ENDBRANCH   2  28
TORSDOF 6
ENDMDL
MODEL 7
REMARK VINA RESULT:     -11.1      6.180     11.061
REMARK  Name = 5326868
REMARK  6 active torsions:
REMARK  status: ('A' for Active; 'I' for Inactive)
REMARK    1  A    between atoms: C_2  and  C_28
REMARK    2  A    between atoms: C_7  and  N_12
REMARK    3  A    between atoms: C_13  and  C_18
REMARK    4  A    between atoms: C_16  and  N_23
REMARK    5  A    between atoms: C_28  and  C_29
REMARK    6  A    between atoms: C_29  and  C_31
REMARK                            x       y       z     vdW  Elec       q    Type
REMARK                         _______ _______ _______ _____ _____    ______ ____
ROOT
ATOM      1  N   UNL     1      31.537  -5.530 -21.163  0.00  0.00    -0.312 N 
ATOM      2  C   UNL     1      31.243  -5.737 -23.354  0.00  0.00    -0.006 C 
ATOM      3  C   UNL     1      31.653  -6.998 -22.839  0.00  0.00    +0.012 C 
ATOM      4  C   UNL     1      31.831  -6.841 -21.463  0.00  0.00    +0.048 C 
ATOM      5  C   UNL     1      31.181  -4.855 -22.300  0.00  0.00    +0.058 C 
ATOM      6  C   UNL     1      31.893  -8.262 -23.414  0.00  0.00    +0.016 C 
ATOM      7  C   UNL     1      32.299  -9.320 -22.593  0.00  0.00    +0.051 C 
ATOM      8  C   UNL     1      32.237  -7.889 -20.629  0.00  0.00    +0.016 C 
ATOM      9  C   UNL     1      32.467  -9.135 -21.222  0.00  0.00    +0.016 C 
ATOM     10  H   UNL     1      31.577  -5.135 -20.263  0.00  0.00    +0.152 HD
ENDROOT
BRANCH   7  12
ATOM     11  O   UNL     1      34.695 -10.356 -24.067  0.00  0.00    -0.270 OA
ATOM     12  N   UNL     1      32.538 -10.576 -23.154  0.00  0.00    -0.280 N 
ATOM     13  C   UNL     1      33.682 -11.010 -23.837  0.00  0.00    +0.250 C 
ATOM     14  H   UNL     1      31.815 -11.236 -23.060  0.00  0.00    +0.155 HD
BRANCH  13  18
ATOM     15  F   UNL     1      32.778 -14.168 -27.385  0.00  0.00    -0.204 F 
ATOM     16  C   UNL     1      33.939 -14.745 -23.986  0.00  0.00    +0.050 C 
ATOM     17  C   UNL     1      33.989 -13.436 -23.505  0.00  0.00    +0.019 C 
ATOM     18  C   UNL     1      33.627 -12.405 -24.347  0.00  0.00    +0.057 C 
ATOM     19  C   UNL     1      33.530 -14.992 -25.296  0.00  0.00    +0.044 C 
ATOM     20  C   UNL     1      33.220 -12.622 -25.647  0.00  0.00    +0.034 C 
ATOM     21  C   UNL     1      33.170 -13.930 -26.127  0.00  0.00    +0.142 C 
BRANCH  16  23
ATOM     22  O   UNL     1      35.292 -17.881 -21.533  0.00  0.00    -0.350 OA
ATOM     23  N   UNL     1      34.301 -15.810 -23.154  0.00  0.00    -0.303 N 
ATOM     24  C   UNL     1      34.606 -15.562 -21.740  0.00  0.00    +0.123 C 
ATOM     25  C   UNL     1      35.004 -16.951 -23.755  0.00  0.00    +0.123 C 
ATOM     26  C   UNL     1      34.480 -16.862 -20.952  0.00  0.00    +0.164 C 
ATOM     27  C   UNL     1      34.855 -18.177 -22.860  0.00  0.00    +0.164 C 
ENDBRANCH  16  23
ENDBRANCH  13  18
ENDBRANCH   7  12
BRANCH   2  28
ATOM     28  C   UNL     1      30.937  -5.420 -24.764  0.00  0.00    +0.032 C 
BRANCH  28  29
ATOM     29  C   UNL     1      31.291  -3.978 -25.188  0.00  0.00    +0.031 C 
BRANCH  29  31
ATOM     30  N   UNL     1      34.842  -3.740 -27.578  0.00  0.00    -0.242 NA
ATOM     31  C   UNL     1      32.541  -3.894 -26.030  0.00  0.00    -0.019 C 
ATOM     32  C   UNL     1      32.950  -2.669 -26.518  0.00  0.00    +0.016 C 
ATOM     33  C   UNL     1      33.257  -5.044 -26.299  0.00  0.00    +0.016 C 
ATOM     34  C   UNL     1      34.104  -2.645 -27.285  0.00  0.00    +0.099 C 
ATOM     35  C   UNL     1      34.398  -4.915 -27.076  0.00  0.00    +0.099 C 
ENDBRANCH  29  31
ENDBRANCH  28  29
ENDBRANCH   2  28
TORSDOF 6
ENDMDL
MODEL 8
REMARK VINA RESULT:     -11.1      1.386      1.929
REMARK  Name = 5326868
REMARK  6 active torsions:
REMARK  status: ('A' for Active; 'I' for Inactive)
REMARK    1  A    between atoms: C_2  and  C_28
REMARK    2  A    between atoms: C_7  and  N_12
REMARK    3  A    between atoms: C_13  and  C_18
REMARK    4  A    between atoms: C_16  and  N_23
REMARK    5  A    between atoms: C_28  and  C_29
REMARK    6  A    between atoms: C_29  and  C_31
REMARK                            x       y       z     vdW  Elec       q    Type
REMARK                         _______ _______ _______ _____ _____    ______ ____
ROOT
ATOM      1  N   UNL     1      33.811 -14.730 -24.950  0.00  0.00    -0.312 N 
ATOM      2  C   UNL     1      33.104 -14.320 -22.886  0.00  0.00    -0.006 C 
ATOM      3  C   UNL     1      33.667 -15.626 -22.912  0.00  0.00    +0.012 C 
ATOM      4  C   UNL     1      34.102 -15.859 -24.218  0.00  0.00    +0.048 C 
ATOM      5  C   UNL     1      33.207 -13.794 -24.153  0.00  0.00    +0.058 C 
ATOM      6  C   UNL     1      33.847 -16.638 -21.947  0.00  0.00    +0.016 C 
ATOM      7  C   UNL     1      34.456 -17.840 -22.323  0.00  0.00    +0.051 C 
ATOM      8  C   UNL     1      34.713 -17.057 -24.609  0.00  0.00    +0.016 C 
ATOM      9  C   UNL     1      34.882 -18.044 -23.634  0.00  0.00    +0.016 C 
ATOM     10  H   UNL     1      34.008 -14.613 -25.907  0.00  0.00    +0.152 HD
ENDROOT
BRANCH   7  12
ATOM     11  O   UNL     1      32.581 -19.986 -21.392  0.00  0.00    -0.270 OA
ATOM     12  N   UNL     1      34.638 -18.847 -21.373  0.00  0.00    -0.280 N 
ATOM     13  C   UNL     1      33.724 -19.829 -20.974  0.00  0.00    +0.250 C 
ATOM     14  H   UNL     1      35.516 -18.868 -20.929  0.00  0.00    +0.155 HD
BRANCH  13  18
ATOM     15  F   UNL     1      37.321 -22.082 -18.658  0.00  0.00    -0.204 F 
ATOM     16  C   UNL     1      33.731 -22.209 -18.080  0.00  0.00    +0.050 C 
ATOM     17  C   UNL     1      33.279 -21.345 -19.078  0.00  0.00    +0.019 C 
ATOM     18  C   UNL     1      34.204 -20.752 -19.911  0.00  0.00    +0.057 C 
ATOM     19  C   UNL     1      35.096 -22.458 -17.938  0.00  0.00    +0.044 C 
ATOM     20  C   UNL     1      35.559 -20.980 -19.792  0.00  0.00    +0.034 C 
ATOM     21  C   UNL     1      36.010 -21.844 -18.795  0.00  0.00    +0.142 C 
BRANCH  16  23
ATOM     22  O   UNL     1      31.006 -23.842 -15.325  0.00  0.00    -0.350 OA
ATOM     23  N   UNL     1      32.815 -22.825 -17.220  0.00  0.00    -0.303 N 
ATOM     24  C   UNL     1      31.395 -22.464 -17.284  0.00  0.00    +0.123 C 
ATOM     25  C   UNL     1      33.290 -23.264 -15.900  0.00  0.00    +0.123 C 
ATOM     26  C   UNL     1      30.554 -23.567 -16.650  0.00  0.00    +0.164 C 
ATOM     27  C   UNL     1      32.349 -24.326 -15.342  0.00  0.00    +0.164 C 
ENDBRANCH  16  23
ENDBRANCH  13  18
ENDBRANCH   7  12
BRANCH   2  28
ATOM     28  C   UNL     1      32.513 -13.641 -21.715  0.00  0.00    +0.032 C 
BRANCH  28  29
ATOM     29  C   UNL     1      31.592 -12.450 -22.062  0.00  0.00    +0.031 C 
BRANCH  29  31
ATOM     30  N   UNL     1      32.011  -9.149 -19.361  0.00  0.00    -0.242 NA
ATOM     31  C   UNL     1      31.739 -11.288 -21.112  0.00  0.00    -0.019 C 
ATOM     32  C   UNL     1      31.616 -11.502 -19.753  0.00  0.00    +0.016 C 
ATOM     33  C   UNL     1      31.995 -10.027 -21.614  0.00  0.00    +0.016 C 
ATOM     34  C   UNL     1      31.760 -10.403 -18.921  0.00  0.00    +0.099 C 
ATOM     35  C   UNL     1      32.122  -8.993 -20.699  0.00  0.00    +0.099 C 
ENDBRANCH  29  31
ENDBRANCH  28  29
ENDBRANCH   2  28
TORSDOF 6
ENDMDL
MODEL 9
REMARK VINA RESULT:     -10.7      5.215     11.107
REMARK  Name = 5326868
REMARK  6 active torsions:
REMARK  status: ('A' for Active; 'I' for Inactive)
REMARK    1  A    between atoms: C_2  and  C_28
REMARK    2  A    between atoms: C_7  and  N_12
REMARK    3  A    between atoms: C_13  and  C_18
REMARK    4  A    between atoms: C_16  and  N_23
REMARK    5  A    between atoms: C_28  and  C_29
REMARK    6  A    between atoms: C_29  and  C_31
REMARK                            x       y       z     vdW  Elec       q    Type
REMARK                         _______ _______ _______ _____ _____    ______ ____
ROOT
ATOM      1  N   UNL     1      34.530 -19.005 -24.802  0.00  0.00    -0.312 N 
ATOM      2  C   UNL     1      35.145 -18.302 -22.788  0.00  0.00    -0.006 C 
ATOM      3  C   UNL     1      34.698 -17.176 -23.535  0.00  0.00    +0.012 C 
ATOM      4  C   UNL     1      34.319 -17.644 -24.795  0.00  0.00    +0.048 C 
ATOM      5  C   UNL     1      35.030 -19.411 -23.593  0.00  0.00    +0.058 C 
ATOM      6  C   UNL     1      34.582 -15.798 -23.260  0.00  0.00    +0.016 C 
ATOM      7  C   UNL     1      34.090 -14.944 -24.252  0.00  0.00    +0.051 C 
ATOM      8  C   UNL     1      33.826 -16.801 -25.797  0.00  0.00    +0.016 C 
ATOM      9  C   UNL     1      33.718 -15.439 -25.501  0.00  0.00    +0.016 C 
ATOM     10  H   UNL     1      34.349 -19.599 -25.565  0.00  0.00    +0.152 HD
ENDROOT
BRANCH   7  12
ATOM     11  O   UNL     1      33.696 -12.636 -26.125  0.00  0.00    -0.270 OA
ATOM     12  N   UNL     1      33.971 -13.578 -23.988  0.00  0.00    -0.280 N 
ATOM     13  C   UNL     1      33.788 -12.536 -24.906  0.00  0.00    +0.250 C 
ATOM     14  H   UNL     1      34.024 -13.315 -23.041  0.00  0.00    +0.155 HD
BRANCH  13  18
ATOM     15  F   UNL     1      34.840  -7.819 -25.076  0.00  0.00    -0.204 F 
ATOM     16  C   UNL     1      33.010  -9.714 -22.567  0.00  0.00    +0.050 C 
ATOM     17  C   UNL     1      33.069 -10.995 -23.118  0.00  0.00    +0.019 C 
ATOM     18  C   UNL     1      33.726 -11.172 -24.317  0.00  0.00    +0.057 C 
ATOM     19  C   UNL     1      33.608  -8.642 -23.228  0.00  0.00    +0.044 C 
ATOM     20  C   UNL     1      34.325 -10.129 -24.992  0.00  0.00    +0.034 C 
ATOM     21  C   UNL     1      34.267  -8.849 -24.441  0.00  0.00    +0.142 C 
BRANCH  16  23
ATOM     22  O   UNL     1      30.818  -8.969 -19.056  0.00  0.00    -0.350 OA
ATOM     23  N   UNL     1      32.350  -9.505 -21.351  0.00  0.00    -0.303 N 
ATOM     24  C   UNL     1      31.346 -10.470 -20.889  0.00  0.00    +0.123 C 
ATOM     25  C   UNL     1      32.138  -8.121 -20.906  0.00  0.00    +0.123 C 
ATOM     26  C   UNL     1      31.142 -10.319 -19.385  0.00  0.00    +0.164 C 
ATOM     27  C   UNL     1      31.894  -8.096 -19.401  0.00  0.00    +0.164 C 
ENDBRANCH  16  23
ENDBRANCH  13  18
ENDBRANCH   7  12
BRANCH   2  28
ATOM     28  C   UNL     1      35.644 -18.292 -21.398  0.00  0.00    +0.032 C 
BRANCH  28  29
ATOM     29  C   UNL     1      36.139 -19.663 -20.885  0.00  0.00    +0.031 C 
BRANCH  29  31
ATOM     30  N   UNL     1      33.048 -22.002 -19.057  0.00  0.00    -0.242 NA
ATOM     31  C   UNL     1      35.051 -20.486 -20.242  0.00  0.00    -0.019 C 
ATOM     32  C   UNL     1      35.389 -21.620 -19.529  0.00  0.00    +0.016 C 
ATOM     33  C   UNL     1      33.733 -20.095 -20.376  0.00  0.00    +0.016 C 
ATOM     34  C   UNL     1      34.353 -22.341 -18.957  0.00  0.00    +0.099 C 
ATOM     35  C   UNL     1      32.771 -20.885 -19.766  0.00  0.00    +0.099 C 
ENDBRANCH  29  31
ENDBRANCH  28  29
ENDBRANCH   2  28
TORSDOF 6
ENDMDL
