MODEL 1
REMARK VINA RESULT:      -8.4      0.000      0.000
REMARK  Name = 735838
REMARK  2 active torsions:
REMARK  status: ('A' for Active; 'I' for Inactive)
REMARK    1  A    between atoms: N_2  and  C_9
REMARK    2  A    between atoms: C_5  and  C_16
REMARK                            x       y       z     vdW  Elec       q    Type
REMARK                         _______ _______ _______ _____ _____    ______ ____
ROOT
ATOM      1  S   UNL     1      36.544 -19.479 -20.974  0.00  0.00    -0.053 S 
ATOM      2  N   UNL     1      35.723 -17.521 -22.575  0.00  0.00    -0.283 N 
ATOM      3  N   UNL     1      34.093 -18.897 -21.553  0.00  0.00    -0.388 NA
ATOM      4  C   UNL     1      34.073 -19.976 -20.692  0.00  0.00    +0.106 C 
ATOM      5  C   UNL     1      35.305 -20.433 -20.270  0.00  0.00    +0.160 C 
ATOM      6  C   UNL     1      35.328 -18.587 -21.743  0.00  0.00    +0.211 C 
ATOM      7  C   UNL     1      32.760 -20.533 -20.307  0.00  0.00    +0.063 C 
ATOM      8  H   UNL     1      36.698 -17.400 -22.628  0.00  0.00    +0.155 HD
ENDROOT
BRANCH   2   9
ATOM      9  C   UNL     1      34.994 -16.593 -23.348  0.00  0.00    +0.050 C 
ATOM     10  C   UNL     1      34.616 -16.915 -24.651  0.00  0.00    +0.015 C 
ATOM     11  C   UNL     1      34.653 -15.353 -22.809  0.00  0.00    +0.015 C 
ATOM     12  C   UNL     1      33.896 -15.997 -25.416  0.00  0.00    +0.001 C 
ATOM     13  C   UNL     1      33.933 -14.435 -23.574  0.00  0.00    +0.001 C 
ATOM     14  C   UNL     1      33.555 -14.757 -24.878  0.00  0.00    +0.000 C 
ENDBRANCH   2   9
BRANCH   5  16
ATOM     15  O   UNL     1      35.104 -22.644 -19.418  0.00  0.00    -0.295 OA
ATOM     16  C   UNL     1      35.643 -21.508 -19.397  0.00  0.00    +0.168 C 
ATOM     17  C   UNL     1      36.735 -21.319 -18.337  0.00  0.00    +0.074 C 
ENDBRANCH   5  16
TORSDOF 2
ENDMDL
MODEL 2
REMARK VINA RESULT:      -8.4      3.051      6.598
REMARK  Name = 735838
REMARK  2 active torsions:
REMARK  status: ('A' for Active; 'I' for Inactive)
REMARK    1  A    between atoms: N_2  and  C_9
REMARK    2  A    between atoms: C_5  and  C_16
REMARK                            x       y       z     vdW  Elec       q    Type
REMARK                         _______ _______ _______ _____ _____    ______ ____
ROOT
ATOM      1  S   UNL     1      34.838 -16.725 -23.618  0.00  0.00    -0.053 S 
ATOM      2  N   UNL     1      35.054 -18.875 -22.067  0.00  0.00    -0.283 N 
ATOM      3  N   UNL     1      33.837 -17.018 -21.252  0.00  0.00    -0.388 NA
ATOM      4  C   UNL     1      33.489 -15.759 -21.700  0.00  0.00    +0.106 C 
ATOM      5  C   UNL     1      33.941 -15.420 -22.959  0.00  0.00    +0.160 C 
ATOM      6  C   UNL     1      34.530 -17.573 -22.185  0.00  0.00    +0.211 C 
ATOM      7  C   UNL     1      32.680 -14.905 -20.807  0.00  0.00    +0.063 C 
ATOM      8  H   UNL     1      35.564 -19.169 -22.856  0.00  0.00    +0.155 HD
ENDROOT
BRANCH   2   9
ATOM      9  C   UNL     1      34.992 -19.840 -21.041  0.00  0.00    +0.050 C 
ATOM     10  C   UNL     1      36.164 -20.286 -20.430  0.00  0.00    +0.015 C 
ATOM     11  C   UNL     1      33.758 -20.349 -20.637  0.00  0.00    +0.015 C 
ATOM     12  C   UNL     1      36.102 -21.241 -19.415  0.00  0.00    +0.001 C 
ATOM     13  C   UNL     1      33.696 -21.304 -19.622  0.00  0.00    +0.001 C 
ATOM     14  C   UNL     1      34.868 -21.751 -19.011  0.00  0.00    +0.000 C 
ENDBRANCH   2   9
BRANCH   5  16
ATOM     15  O   UNL     1      34.125 -13.079 -23.330  0.00  0.00    -0.295 OA
ATOM     16  C   UNL     1      33.768 -14.223 -23.712  0.00  0.00    +0.168 C 
ATOM     17  C   UNL     1      33.105 -14.277 -25.094  0.00  0.00    +0.074 C 
ENDBRANCH   5  16
TORSDOF 2
ENDMDL
MODEL 3
REMARK VINA RESULT:      -7.9      3.445      6.680
REMARK  Name = 735838
REMARK  2 active torsions:
REMARK  status: ('A' for Active; 'I' for Inactive)
REMARK    1  A    between atoms: N_2  and  C_9
REMARK    2  A    between atoms: C_5  and  C_16
REMARK                            x       y       z     vdW  Elec       q    Type
REMARK                         _______ _______ _______ _____ _____    ______ ____
ROOT
ATOM      1  S   UNL     1      34.200 -15.626 -23.588  0.00  0.00    -0.053 S 
ATOM      2  N   UNL     1      34.871 -17.892 -22.368  0.00  0.00    -0.283 N 
ATOM      3  N   UNL     1      33.744 -16.231 -21.117  0.00  0.00    -0.388 NA
ATOM      4  C   UNL     1      33.233 -14.968 -21.338  0.00  0.00    +0.106 C 
ATOM      5  C   UNL     1      33.385 -14.472 -22.617  0.00  0.00    +0.160 C 
ATOM      6  C   UNL     1      34.256 -16.632 -22.228  0.00  0.00    +0.211 C 
ATOM      7  C   UNL     1      32.580 -14.275 -20.208  0.00  0.00    +0.063 C 
ATOM      8  H   UNL     1      35.219 -18.063 -23.272  0.00  0.00    +0.155 HD
ENDROOT
BRANCH   2   9
ATOM      9  C   UNL     1      35.088 -18.954 -21.465  0.00  0.00    +0.050 C 
ATOM     10  C   UNL     1      36.378 -19.236 -21.016  0.00  0.00    +0.015 C 
ATOM     11  C   UNL     1      34.012 -19.723 -21.024  0.00  0.00    +0.015 C 
ATOM     12  C   UNL     1      36.592 -20.287 -20.125  0.00  0.00    +0.001 C 
ATOM     13  C   UNL     1      34.226 -20.774 -20.132  0.00  0.00    +0.001 C 
ATOM     14  C   UNL     1      35.516 -21.057 -19.683  0.00  0.00    +0.000 C 
ENDBRANCH   2   9
BRANCH   5  16
ATOM     15  O   UNL     1      31.972 -12.570 -22.816  0.00  0.00    -0.295 OA
ATOM     16  C   UNL     1      32.982 -13.225 -23.179  0.00  0.00    +0.168 C 
ATOM     17  C   UNL     1      33.804 -12.594 -24.310  0.00  0.00    +0.074 C 
ENDBRANCH   5  16
TORSDOF 2
ENDMDL
MODEL 4
REMARK VINA RESULT:      -7.9      5.270      7.384
REMARK  Name = 735838
REMARK  2 active torsions:
REMARK  status: ('A' for Active; 'I' for Inactive)
REMARK    1  A    between atoms: N_2  and  C_9
REMARK    2  A    between atoms: C_5  and  C_16
REMARK                            x       y       z     vdW  Elec       q    Type
REMARK                         _______ _______ _______ _____ _____    ______ ____
ROOT
ATOM      1  S   UNL     1      30.815 -23.269 -16.553  0.00  0.00    -0.053 S 
ATOM      2  N   UNL     1      32.423 -22.144 -18.348  0.00  0.00    -0.283 N 
ATOM      3  N   UNL     1      33.391 -23.102 -16.415  0.00  0.00    -0.388 NA
ATOM      4  C   UNL     1      32.955 -23.759 -15.281  0.00  0.00    +0.106 C 
ATOM      5  C   UNL     1      31.591 -23.942 -15.179  0.00  0.00    +0.160 C 
ATOM      6  C   UNL     1      32.348 -22.820 -17.115  0.00  0.00    +0.211 C 
ATOM      7  C   UNL     1      33.968 -24.198 -14.300  0.00  0.00    +0.063 C 
ATOM      8  H   UNL     1      31.547 -21.995 -18.771  0.00  0.00    +0.155 HD
ENDROOT
BRANCH   2   9
ATOM      9  C   UNL     1      33.506 -21.638 -19.095  0.00  0.00    +0.050 C 
ATOM     10  C   UNL     1      34.786 -22.161 -18.910  0.00  0.00    +0.015 C 
ATOM     11  C   UNL     1      33.299 -20.613 -20.018  0.00  0.00    +0.015 C 
ATOM     12  C   UNL     1      35.859 -21.660 -19.648  0.00  0.00    +0.001 C 
ATOM     13  C   UNL     1      34.372 -20.112 -20.756  0.00  0.00    +0.001 C 
ATOM     14  C   UNL     1      35.652 -20.635 -20.571  0.00  0.00    +0.000 C 
ENDBRANCH   2   9
BRANCH   5  16
ATOM     15  O   UNL     1      31.000 -24.414 -12.925  0.00  0.00    -0.295 OA
ATOM     16  C   UNL     1      30.816 -24.568 -14.160  0.00  0.00    +0.168 C 
ATOM     17  C   UNL     1      29.664 -25.506 -14.540  0.00  0.00    +0.074 C 
ENDBRANCH   5  16
TORSDOF 2
ENDMDL
MODEL 5
REMARK VINA RESULT:      -7.8      2.237      3.315
REMARK  Name = 735838
REMARK  2 active torsions:
REMARK  status: ('A' for Active; 'I' for Inactive)
REMARK    1  A    between atoms: N_2  and  C_9
REMARK    2  A    between atoms: C_5  and  C_16
REMARK                            x       y       z     vdW  Elec       q    Type
REMARK                         _______ _______ _______ _____ _____    ______ ____
ROOT
ATOM      1  S   UNL     1      34.299 -16.520 -21.286  0.00  0.00    -0.053 S 
ATOM      2  N   UNL     1      33.854 -14.671 -23.145  0.00  0.00    -0.283 N 
ATOM      3  N   UNL     1      34.434 -16.855 -23.846  0.00  0.00    -0.388 NA
ATOM      4  C   UNL     1      34.736 -18.064 -23.250  0.00  0.00    +0.106 C 
ATOM      5  C   UNL     1      34.714 -18.078 -21.871  0.00  0.00    +0.160 C 
ATOM      6  C   UNL     1      34.198 -16.015 -22.898  0.00  0.00    +0.211 C 
ATOM      7  C   UNL     1      35.048 -19.210 -24.128  0.00  0.00    +0.063 C 
ATOM      8  H   UNL     1      33.704 -14.145 -22.328  0.00  0.00    +0.155 HD
ENDROOT
BRANCH   2   9
ATOM      9  C   UNL     1      33.684 -13.933 -24.335  0.00  0.00    +0.050 C 
ATOM     10  C   UNL     1      33.248 -14.571 -25.496  0.00  0.00    +0.015 C 
ATOM     11  C   UNL     1      33.953 -12.564 -24.350  0.00  0.00    +0.015 C 
ATOM     12  C   UNL     1      33.080 -13.840 -26.673  0.00  0.00    +0.001 C 
ATOM     13  C   UNL     1      33.785 -11.834 -25.527  0.00  0.00    +0.001 C 
ATOM     14  C   UNL     1      33.350 -12.472 -26.688  0.00  0.00    +0.000 C 
ENDBRANCH   2   9
BRANCH   5  16
ATOM     15  O   UNL     1      36.079 -19.349 -20.397  0.00  0.00    -0.295 OA
ATOM     16  C   UNL     1      34.971 -19.138 -20.953  0.00  0.00    +0.168 C 
ATOM     17  C   UNL     1      33.852 -20.119 -20.581  0.00  0.00    +0.074 C 
ENDBRANCH   5  16
TORSDOF 2
ENDMDL
MODEL 6
REMARK VINA RESULT:      -7.6      4.646      6.422
REMARK  Name = 735838
REMARK  2 active torsions:
REMARK  status: ('A' for Active; 'I' for Inactive)
REMARK    1  A    between atoms: N_2  and  C_9
REMARK    2  A    between atoms: C_5  and  C_16
REMARK                            x       y       z     vdW  Elec       q    Type
REMARK                         _______ _______ _______ _____ _____    ______ ____
ROOT
ATOM      1  S   UNL     1      33.147 -14.502 -24.692  0.00  0.00    -0.053 S 
ATOM      2  N   UNL     1      32.332 -12.565 -23.062  0.00  0.00    -0.283 N 
ATOM      3  N   UNL     1      33.606 -14.338 -22.153  0.00  0.00    -0.388 NA
ATOM      4  C   UNL     1      34.206 -15.494 -22.612  0.00  0.00    +0.106 C 
ATOM      5  C   UNL     1      34.066 -15.752 -23.960  0.00  0.00    +0.160 C 
ATOM      6  C   UNL     1      33.043 -13.777 -23.166  0.00  0.00    +0.211 C 
ATOM      7  C   UNL     1      34.932 -16.333 -21.636  0.00  0.00    +0.063 C 
ATOM      8  H   UNL     1      31.954 -12.255 -23.916  0.00  0.00    +0.155 HD
ENDROOT
BRANCH   2   9
ATOM      9  C   UNL     1      32.054 -11.711 -21.975  0.00  0.00    +0.050 C 
ATOM     10  C   UNL     1      31.759 -12.250 -20.722  0.00  0.00    +0.015 C 
ATOM     11  C   UNL     1      32.074 -10.328 -22.152  0.00  0.00    +0.015 C 
ATOM     12  C   UNL     1      31.484 -11.405 -19.647  0.00  0.00    +0.001 C 
ATOM     13  C   UNL     1      31.798  -9.484 -21.076  0.00  0.00    +0.001 C 
ATOM     14  C   UNL     1      31.503 -10.022 -19.824  0.00  0.00    +0.000 C 
ENDBRANCH   2   9
BRANCH   5  16
ATOM     15  O   UNL     1      34.954 -16.731 -25.936  0.00  0.00    -0.295 OA
ATOM     16  C   UNL     1      34.550 -16.836 -24.750  0.00  0.00    +0.168 C 
ATOM     17  C   UNL     1      34.602 -18.250 -24.160  0.00  0.00    +0.074 C 
ENDBRANCH   5  16
TORSDOF 2
ENDMDL
MODEL 7
REMARK VINA RESULT:      -7.6      5.811      8.797
REMARK  Name = 735838
REMARK  2 active torsions:
REMARK  status: ('A' for Active; 'I' for Inactive)
REMARK    1  A    between atoms: N_2  and  C_9
REMARK    2  A    between atoms: C_5  and  C_16
REMARK                            x       y       z     vdW  Elec       q    Type
REMARK                         _______ _______ _______ _____ _____    ______ ____
ROOT
ATOM      1  S   UNL     1      31.942 -11.324 -22.509  0.00  0.00    -0.053 S 
ATOM      2  N   UNL     1      32.857 -13.764 -23.041  0.00  0.00    -0.283 N 
ATOM      3  N   UNL     1      33.996 -11.909 -23.965  0.00  0.00    -0.388 NA
ATOM      4  C   UNL     1      33.873 -10.533 -23.950  0.00  0.00    +0.106 C 
ATOM      5  C   UNL     1      32.820 -10.031 -23.214  0.00  0.00    +0.160 C 
ATOM      6  C   UNL     1      33.038 -12.382 -23.246  0.00  0.00    +0.211 C 
ATOM      7  C   UNL     1      34.863  -9.740 -24.707  0.00  0.00    +0.063 C 
ATOM      8  H   UNL     1      32.084 -13.981 -22.471  0.00  0.00    +0.155 HD
ENDROOT
BRANCH   2   9
ATOM      9  C   UNL     1      33.565 -14.897 -23.491  0.00  0.00    +0.050 C 
ATOM     10  C   UNL     1      33.499 -15.273 -24.833  0.00  0.00    +0.015 C 
ATOM     11  C   UNL     1      34.331 -15.643 -22.595  0.00  0.00    +0.015 C 
ATOM     12  C   UNL     1      34.198 -16.395 -25.279  0.00  0.00    +0.001 C 
ATOM     13  C   UNL     1      35.030 -16.764 -23.041  0.00  0.00    +0.001 C 
ATOM     14  C   UNL     1      34.964 -17.141 -24.383  0.00  0.00    +0.000 C 
ENDBRANCH   2   9
BRANCH   5  16
ATOM     15  O   UNL     1      31.454  -8.120 -23.580  0.00  0.00    -0.295 OA
ATOM     16  C   UNL     1      32.409  -8.684 -22.988  0.00  0.00    +0.168 C 
ATOM     17  C   UNL     1      33.150  -7.819 -21.961  0.00  0.00    +0.074 C 
ENDBRANCH   5  16
TORSDOF 2
ENDMDL
MODEL 8
REMARK VINA RESULT:      -7.6      9.402     10.760
REMARK  Name = 735838
REMARK  2 active torsions:
REMARK  status: ('A' for Active; 'I' for Inactive)
REMARK    1  A    between atoms: N_2  and  C_9
REMARK    2  A    between atoms: C_5  and  C_16
REMARK                            x       y       z     vdW  Elec       q    Type
REMARK                         _______ _______ _______ _____ _____    ______ ____
ROOT
ATOM      1  S   UNL     1      36.209 -23.946 -14.474  0.00  0.00    -0.053 S 
ATOM      2  N   UNL     1      33.589 -23.938 -14.934  0.00  0.00    -0.283 N 
ATOM      3  N   UNL     1      34.339 -24.178 -12.704  0.00  0.00    -0.388 NA
ATOM      4  C   UNL     1      35.550 -24.232 -12.041  0.00  0.00    +0.106 C 
ATOM      5  C   UNL     1      36.674 -24.123 -12.833  0.00  0.00    +0.160 C 
ATOM      6  C   UNL     1      34.599 -24.032 -13.956  0.00  0.00    +0.211 C 
ATOM      7  C   UNL     1      35.530 -24.396 -10.573  0.00  0.00    +0.063 C 
ATOM      8  H   UNL     1      33.934 -23.830 -15.849  0.00  0.00    +0.155 HD
ENDROOT
BRANCH   2   9
ATOM      9  C   UNL     1      32.181 -23.969 -14.858  0.00  0.00    +0.050 C 
ATOM     10  C   UNL     1      31.534 -25.107 -14.377  0.00  0.00    +0.015 C 
ATOM     11  C   UNL     1      31.436 -22.863 -15.266  0.00  0.00    +0.015 C 
ATOM     12  C   UNL     1      30.141 -25.139 -14.303  0.00  0.00    +0.001 C 
ATOM     13  C   UNL     1      30.044 -22.894 -15.191  0.00  0.00    +0.001 C 
ATOM     14  C   UNL     1      29.396 -24.032 -14.711  0.00  0.00    +0.000 C 
ENDBRANCH   2   9
BRANCH   5  16
ATOM     15  O   UNL     1      38.602 -23.332 -11.688  0.00  0.00    -0.295 OA
ATOM     16  C   UNL     1      38.056 -24.139 -12.483  0.00  0.00    +0.168 C 
ATOM     17  C   UNL     1      38.988 -25.195 -13.091  0.00  0.00    +0.074 C 
ENDBRANCH   5  16
TORSDOF 2
ENDMDL
MODEL 9
REMARK VINA RESULT:      -7.6      3.613      6.939
REMARK  Name = 735838
REMARK  2 active torsions:
REMARK  status: ('A' for Active; 'I' for Inactive)
REMARK    1  A    between atoms: N_2  and  C_9
REMARK    2  A    between atoms: C_5  and  C_16
REMARK                            x       y       z     vdW  Elec       q    Type
REMARK                         _______ _______ _______ _____ _____    ______ ____
ROOT
ATOM      1  S   UNL     1      34.223 -14.145 -22.322  0.00  0.00    -0.053 S 
ATOM      2  N   UNL     1      34.617 -16.571 -21.306  0.00  0.00    -0.283 N 
ATOM      3  N   UNL     1      34.082 -16.387 -23.602  0.00  0.00    -0.388 NA
ATOM      4  C   UNL     1      33.811 -15.374 -24.502  0.00  0.00    +0.106 C 
ATOM      5  C   UNL     1      33.840 -14.092 -23.993  0.00  0.00    +0.160 C 
ATOM      6  C   UNL     1      34.304 -15.830 -22.462  0.00  0.00    +0.211 C 
ATOM      7  C   UNL     1      33.520 -15.749 -25.901  0.00  0.00    +0.063 C 
ATOM      8  H   UNL     1      34.759 -16.015 -20.507  0.00  0.00    +0.155 HD
ENDROOT
BRANCH   2   9
ATOM      9  C   UNL     1      34.764 -17.954 -21.069  0.00  0.00    +0.050 C 
ATOM     10  C   UNL     1      33.636 -18.757 -20.902  0.00  0.00    +0.015 C 
ATOM     11  C   UNL     1      36.038 -18.517 -20.999  0.00  0.00    +0.015 C 
ATOM     12  C   UNL     1      33.782 -20.124 -20.667  0.00  0.00    +0.001 C 
ATOM     13  C   UNL     1      36.184 -19.884 -20.763  0.00  0.00    +0.001 C 
ATOM     14  C   UNL     1      35.056 -20.688 -20.597  0.00  0.00    +0.000 C 
ENDBRANCH   2   9
BRANCH   5  16
ATOM     15  O   UNL     1      33.512 -12.677 -25.874  0.00  0.00    -0.295 OA
ATOM     16  C   UNL     1      33.611 -12.838 -24.631  0.00  0.00    +0.168 C 
ATOM     17  C   UNL     1      33.470 -11.564 -23.789  0.00  0.00    +0.074 C 
ENDBRANCH   5  16
TORSDOF 2
ENDMDL
