MODEL 1
REMARK VINA RESULT:      -7.3      0.000      0.000
REMARK  Name = 446144
REMARK  5 active torsions:
REMARK  status: ('A' for Active; 'I' for Inactive)
REMARK    1  A    between atoms: C_2  and  O_7
REMARK    2  A    between atoms: C_3  and  O_9
REMARK    3  A    between atoms: C_4  and  O_11
REMARK    4  A    between atoms: C_6  and  C_14
REMARK    5  A    between atoms: C_14  and  O_15
REMARK                            x       y       z     vdW  Elec       q    Type
REMARK                         _______ _______ _______ _____ _____    ______ ____
ROOT
ATOM      1  O   UNL     1      38.050 -26.384 -14.926  0.00  0.00    -0.444 OA
ATOM      2  C   UNL     1      36.641 -25.445 -13.146  0.00  0.00    +0.212 C 
ATOM      3  C   UNL     1      37.767 -24.508 -12.706  0.00  0.00    +0.169 C 
ATOM      4  C   UNL     1      36.793 -25.754 -14.638  0.00  0.00    +0.315 C 
ATOM      5  C   UNL     1      39.081 -24.942 -13.286  0.00  0.00    +0.049 C 
ATOM      6  C   UNL     1      39.139 -25.820 -14.300  0.00  0.00    +0.214 C 
ENDROOT
BRANCH   2   7
ATOM      7  O   UNL     1      36.716 -26.666 -12.403  0.00  0.00    -0.376 OA
ATOM      8  H   UNL     1      37.637 -26.837 -12.154  0.00  0.00    +0.211 HD
ENDBRANCH   2   7
BRANCH   3   9
ATOM      9  O   UNL     1      37.830 -24.468 -11.286  0.00  0.00    -0.377 OA
ATOM     10  H   UNL     1      38.094 -23.580 -10.999  0.00  0.00    +0.211 HD
ENDBRANCH   3   9
BRANCH   4  11
ATOM     11  O   UNL     1      35.715 -26.598 -15.034  0.00  0.00    -0.348 OA
ATOM     12  H   UNL     1      35.682 -26.648 -16.002  0.00  0.00    +0.214 HD
ENDBRANCH   4  11
BRANCH   6  14
ATOM     13  O   UNL     1      41.338 -26.696 -14.075  0.00  0.00    -0.242 OA
ATOM     14  C   UNL     1      40.463 -26.223 -14.779  0.00  0.00    +0.372 C 
BRANCH  14  15
ATOM     15  O   UNL     1      40.557 -25.989 -16.105  0.00  0.00    -0.475 OA
ATOM     16  H   UNL     1      41.350 -26.192 -16.561  0.00  0.00    +0.296 HD
ENDBRANCH  14  15
ENDBRANCH   6  14
TORSDOF 5
ENDMDL
MODEL 2
REMARK VINA RESULT:      -7.2      1.545      2.866
REMARK  Name = 446144
REMARK  5 active torsions:
REMARK  status: ('A' for Active; 'I' for Inactive)
REMARK    1  A    between atoms: C_2  and  O_7
REMARK    2  A    between atoms: C_3  and  O_9
REMARK    3  A    between atoms: C_4  and  O_11
REMARK    4  A    between atoms: C_6  and  C_14
REMARK    5  A    between atoms: C_14  and  O_15
REMARK                            x       y       z     vdW  Elec       q    Type
REMARK                         _______ _______ _______ _____ _____    ______ ____
ROOT
ATOM      1  O   UNL     1      39.395 -24.614 -13.142  0.00  0.00    -0.444 OA
ATOM      2  C   UNL     1      37.064 -23.913 -13.474  0.00  0.00    +0.212 C 
ATOM      3  C   UNL     1      36.785 -25.141 -14.342  0.00  0.00    +0.169 C 
ATOM      4  C   UNL     1      38.179 -24.240 -12.477  0.00  0.00    +0.315 C 
ATOM      5  C   UNL     1      38.066 -25.786 -14.783  0.00  0.00    +0.049 C 
ATOM      6  C   UNL     1      39.235 -25.487 -14.195  0.00  0.00    +0.214 C 
ENDROOT
BRANCH   2   7
ATOM      7  O   UNL     1      37.480 -22.824 -14.304  0.00  0.00    -0.376 OA
ATOM      8  H   UNL     1      38.231 -23.101 -14.851  0.00  0.00    +0.211 HD
ENDBRANCH   2   7
BRANCH   3   9
ATOM      9  O   UNL     1      35.995 -24.766 -15.463  0.00  0.00    -0.377 OA
ATOM     10  H   UNL     1      35.061 -24.942 -15.274  0.00  0.00    +0.211 HD
ENDBRANCH   3   9
BRANCH   4  11
ATOM     11  O   UNL     1      38.397 -23.096 -11.655  0.00  0.00    -0.348 OA
ATOM     12  H   UNL     1      38.573 -23.380 -10.745  0.00  0.00    +0.214 HD
ENDBRANCH   4  11
BRANCH   6  14
ATOM     13  O   UNL     1      41.272 -26.703 -14.027  0.00  0.00    -0.242 OA
ATOM     14  C   UNL     1      40.444 -26.129 -14.714  0.00  0.00    +0.372 C 
BRANCH  14  15
ATOM     15  O   UNL     1      40.494 -25.987 -16.056  0.00  0.00    -0.475 OA
ATOM     16  H   UNL     1      40.498 -26.744 -16.607  0.00  0.00    +0.296 HD
ENDBRANCH  14  15
ENDBRANCH   6  14
TORSDOF 5
ENDMDL
MODEL 3
REMARK VINA RESULT:      -6.9      1.249      1.518
REMARK  Name = 446144
REMARK  5 active torsions:
REMARK  status: ('A' for Active; 'I' for Inactive)
REMARK    1  A    between atoms: C_2  and  O_7
REMARK    2  A    between atoms: C_3  and  O_9
REMARK    3  A    between atoms: C_4  and  O_11
REMARK    4  A    between atoms: C_6  and  C_14
REMARK    5  A    between atoms: C_14  and  O_15
REMARK                            x       y       z     vdW  Elec       q    Type
REMARK                         _______ _______ _______ _____ _____    ______ ____
ROOT
ATOM      1  O   UNL     1      38.309 -24.829 -15.321  0.00  0.00    -0.444 OA
ATOM      2  C   UNL     1      36.386 -24.901 -13.794  0.00  0.00    +0.212 C 
ATOM      3  C   UNL     1      37.293 -25.274 -12.619  0.00  0.00    +0.169 C 
ATOM      4  C   UNL     1      37.188 -24.089 -14.814  0.00  0.00    +0.315 C 
ATOM      5  C   UNL     1      38.635 -25.735 -13.106  0.00  0.00    +0.049 C 
ATOM      6  C   UNL     1      39.035 -25.508 -14.367  0.00  0.00    +0.214 C 
ENDROOT
BRANCH   2   7
ATOM      7  O   UNL     1      35.897 -26.092 -14.419  0.00  0.00    -0.376 OA
ATOM      8  H   UNL     1      35.872 -26.812 -13.769  0.00  0.00    +0.211 HD
ENDBRANCH   2   7
BRANCH   3   9
ATOM      9  O   UNL     1      36.667 -26.281 -11.832  0.00  0.00    -0.377 OA
ATOM     10  H   UNL     1      36.704 -27.128 -12.302  0.00  0.00    +0.211 HD
ENDBRANCH   3   9
BRANCH   4  11
ATOM     11  O   UNL     1      36.316 -23.722 -15.881  0.00  0.00    -0.348 OA
ATOM     12  H   UNL     1      36.835 -23.339 -16.605  0.00  0.00    +0.214 HD
ENDBRANCH   4  11
BRANCH   6  14
ATOM     13  O   UNL     1      41.176 -26.476 -14.006  0.00  0.00    -0.242 OA
ATOM     14  C   UNL     1      40.342 -26.028 -14.773  0.00  0.00    +0.372 C 
BRANCH  14  15
ATOM     15  O   UNL     1      40.473 -25.933 -16.113  0.00  0.00    -0.475 OA
ATOM     16  H   UNL     1      41.112 -25.355 -16.482  0.00  0.00    +0.296 HD
ENDBRANCH  14  15
ENDBRANCH   6  14
TORSDOF 5
ENDMDL
MODEL 4
REMARK VINA RESULT:      -6.6      2.150      2.943
REMARK  Name = 446144
REMARK  5 active torsions:
REMARK  status: ('A' for Active; 'I' for Inactive)
REMARK    1  A    between atoms: C_2  and  O_7
REMARK    2  A    between atoms: C_3  and  O_9
REMARK    3  A    between atoms: C_4  and  O_11
REMARK    4  A    between atoms: C_6  and  C_14
REMARK    5  A    between atoms: C_14  and  O_15
REMARK                            x       y       z     vdW  Elec       q    Type
REMARK                         _______ _______ _______ _____ _____    ______ ____
ROOT
ATOM      1  O   UNL     1      35.981 -24.648 -14.820  0.00  0.00    -0.444 OA
ATOM      2  C   UNL     1      34.983 -23.905 -12.702  0.00  0.00    +0.212 C 
ATOM      3  C   UNL     1      36.053 -24.648 -11.900  0.00  0.00    +0.169 C 
ATOM      4  C   UNL     1      35.557 -23.505 -14.063  0.00  0.00    +0.315 C 
ATOM      5  C   UNL     1      36.779 -25.636 -12.765  0.00  0.00    +0.049 C 
ATOM      6  C   UNL     1      36.691 -25.586 -14.104  0.00  0.00    +0.214 C 
ENDROOT
BRANCH   2   7
ATOM      7  O   UNL     1      33.853 -24.760 -12.900  0.00  0.00    -0.376 OA
ATOM      8  H   UNL     1      33.455 -24.576 -13.764  0.00  0.00    +0.211 HD
ENDBRANCH   2   7
BRANCH   3   9
ATOM      9  O   UNL     1      35.453 -25.296 -10.786  0.00  0.00    -0.377 OA
ATOM     10  H   UNL     1      35.326 -26.236 -10.988  0.00  0.00    +0.211 HD
ENDBRANCH   3   9
BRANCH   4  11
ATOM     11  O   UNL     1      34.557 -22.783 -14.778  0.00  0.00    -0.348 OA
ATOM     12  H   UNL     1      34.875 -22.588 -15.673  0.00  0.00    +0.214 HD
ENDBRANCH   4  11
BRANCH   6  14
ATOM     13  O   UNL     1      38.457 -27.117 -14.544  0.00  0.00    -0.242 OA
ATOM     14  C   UNL     1      37.396 -26.614 -14.873  0.00  0.00    +0.372 C 
BRANCH  14  15
ATOM     15  O   UNL     1      36.694 -26.910 -15.987  0.00  0.00    -0.475 OA
ATOM     16  H   UNL     1      36.633 -27.798 -16.280  0.00  0.00    +0.296 HD
ENDBRANCH  14  15
ENDBRANCH   6  14
TORSDOF 5
ENDMDL
MODEL 5
REMARK VINA RESULT:      -6.5      1.802      3.166
REMARK  Name = 446144
REMARK  5 active torsions:
REMARK  status: ('A' for Active; 'I' for Inactive)
REMARK    1  A    between atoms: C_2  and  O_7
REMARK    2  A    between atoms: C_3  and  O_9
REMARK    3  A    between atoms: C_4  and  O_11
REMARK    4  A    between atoms: C_6  and  C_14
REMARK    5  A    between atoms: C_14  and  O_15
REMARK                            x       y       z     vdW  Elec       q    Type
REMARK                         _______ _______ _______ _____ _____    ______ ____
ROOT
ATOM      1  O   UNL     1      38.469 -24.084 -13.177  0.00  0.00    -0.444 OA
ATOM      2  C   UNL     1      36.480 -23.545 -11.840  0.00  0.00    +0.212 C 
ATOM      3  C   UNL     1      36.021 -25.004 -11.876  0.00  0.00    +0.169 C 
ATOM      4  C   UNL     1      38.006 -23.491 -11.955  0.00  0.00    +0.315 C 
ATOM      5  C   UNL     1      36.754 -25.768 -12.939  0.00  0.00    +0.049 C 
ATOM      6  C   UNL     1      37.869 -25.280 -13.506  0.00  0.00    +0.214 C 
ENDROOT
BRANCH   2   7
ATOM      7  O   UNL     1      35.899 -22.833 -12.937  0.00  0.00    -0.376 OA
ATOM      8  H   UNL     1      34.956 -23.047 -12.998  0.00  0.00    +0.211 HD
ENDBRANCH   2   7
BRANCH   3   9
ATOM      9  O   UNL     1      34.616 -25.059 -12.091  0.00  0.00    -0.377 OA
ATOM     10  H   UNL     1      34.312 -24.217 -12.461  0.00  0.00    +0.211 HD
ENDBRANCH   3   9
BRANCH   4  11
ATOM     11  O   UNL     1      38.414 -22.127 -11.882  0.00  0.00    -0.348 OA
ATOM     12  H   UNL     1      39.367 -22.084 -11.709  0.00  0.00    +0.214 HD
ENDBRANCH   4  11
BRANCH   6  14
ATOM     13  O   UNL     1      39.605 -26.575 -14.486  0.00  0.00    -0.242 OA
ATOM     14  C   UNL     1      38.499 -26.070 -14.566  0.00  0.00    +0.372 C 
BRANCH  14  15
ATOM     15  O   UNL     1      37.670 -26.148 -15.628  0.00  0.00    -0.475 OA
ATOM     16  H   UNL     1      36.742 -26.146 -15.499  0.00  0.00    +0.296 HD
ENDBRANCH  14  15
ENDBRANCH   6  14
TORSDOF 5
ENDMDL
MODEL 6
REMARK VINA RESULT:      -6.5      1.515      3.872
REMARK  Name = 446144
REMARK  5 active torsions:
REMARK  status: ('A' for Active; 'I' for Inactive)
REMARK    1  A    between atoms: C_2  and  O_7
REMARK    2  A    between atoms: C_3  and  O_9
REMARK    3  A    between atoms: C_4  and  O_11
REMARK    4  A    between atoms: C_6  and  C_14
REMARK    5  A    between atoms: C_14  and  O_15
REMARK                            x       y       z     vdW  Elec       q    Type
REMARK                         _______ _______ _______ _____ _____    ______ ____
ROOT
ATOM      1  O   UNL     1      36.358 -25.751 -13.666  0.00  0.00    -0.444 OA
ATOM      2  C   UNL     1      38.496 -25.862 -14.871  0.00  0.00    +0.212 C 
ATOM      3  C   UNL     1      39.275 -25.646 -13.572  0.00  0.00    +0.169 C 
ATOM      4  C   UNL     1      37.162 -26.542 -14.554  0.00  0.00    +0.315 C 
ATOM      5  C   UNL     1      38.374 -25.135 -12.487  0.00  0.00    +0.049 C 
ATOM      6  C   UNL     1      37.038 -25.202 -12.601  0.00  0.00    +0.214 C 
ENDROOT
BRANCH   2   7
ATOM      7  O   UNL     1      38.244 -24.598 -15.494  0.00  0.00    -0.376 OA
ATOM      8  H   UNL     1      37.288 -24.471 -15.592  0.00  0.00    +0.211 HD
ENDBRANCH   2   7
BRANCH   3   9
ATOM      9  O   UNL     1      40.350 -24.744 -13.803  0.00  0.00    -0.377 OA
ATOM     10  H   UNL     1      40.778 -24.528 -12.960  0.00  0.00    +0.211 HD
ENDBRANCH   3   9
BRANCH   4  11
ATOM     11  O   UNL     1      36.469 -26.767 -15.779  0.00  0.00    -0.348 OA
ATOM     12  H   UNL     1      35.972 -25.970 -16.020  0.00  0.00    +0.214 HD
ENDBRANCH   4  11
BRANCH   6  14
ATOM     13  O   UNL     1      36.674 -23.967 -10.602  0.00  0.00    -0.242 OA
ATOM     14  C   UNL     1      36.231 -24.642 -11.516  0.00  0.00    +0.372 C 
BRANCH  14  15
ATOM     15  O   UNL     1      34.937 -24.988 -11.686  0.00  0.00    -0.475 OA
ATOM     16  H   UNL     1      34.401 -25.178 -10.941  0.00  0.00    +0.296 HD
ENDBRANCH  14  15
ENDBRANCH   6  14
TORSDOF 5
ENDMDL
MODEL 7
REMARK VINA RESULT:      -6.3      1.305      3.831
REMARK  Name = 446144
REMARK  5 active torsions:
REMARK  status: ('A' for Active; 'I' for Inactive)
REMARK    1  A    between atoms: C_2  and  O_7
REMARK    2  A    between atoms: C_3  and  O_9
REMARK    3  A    between atoms: C_4  and  O_11
REMARK    4  A    between atoms: C_6  and  C_14
REMARK    5  A    between atoms: C_14  and  O_15
REMARK                            x       y       z     vdW  Elec       q    Type
REMARK                         _______ _______ _______ _____ _____    ______ ____
ROOT
ATOM      1  O   UNL     1      38.948 -25.116 -13.274  0.00  0.00    -0.444 OA
ATOM      2  C   UNL     1      37.654 -26.313 -14.984  0.00  0.00    +0.212 C 
ATOM      3  C   UNL     1      36.554 -25.251 -14.942  0.00  0.00    +0.169 C 
ATOM      4  C   UNL     1      38.990 -25.676 -14.595  0.00  0.00    +0.315 C 
ATOM      5  C   UNL     1      36.686 -24.395 -13.717  0.00  0.00    +0.049 C 
ATOM      6  C   UNL     1      37.812 -24.391 -12.987  0.00  0.00    +0.214 C 
ENDROOT
BRANCH   2   7
ATOM      7  O   UNL     1      37.344 -27.360 -14.059  0.00  0.00    -0.376 OA
ATOM      8  H   UNL     1      37.439 -28.220 -14.498  0.00  0.00    +0.211 HD
ENDBRANCH   2   7
BRANCH   3   9
ATOM      9  O   UNL     1      35.279 -25.879 -14.986  0.00  0.00    -0.377 OA
ATOM     10  H   UNL     1      35.356 -26.790 -14.663  0.00  0.00    +0.211 HD
ENDBRANCH   3   9
BRANCH   4  11
ATOM     11  O   UNL     1      40.005 -26.673 -14.676  0.00  0.00    -0.348 OA
ATOM     12  H   UNL     1      40.395 -26.666 -15.564  0.00  0.00    +0.214 HD
ENDBRANCH   4  11
BRANCH   6  14
ATOM     13  O   UNL     1      38.465 -22.515 -11.678  0.00  0.00    -0.242 OA
ATOM     14  C   UNL     1      37.843 -23.559 -11.782  0.00  0.00    +0.372 C 
BRANCH  14  15
ATOM     15  O   UNL     1      37.083 -24.124 -10.821  0.00  0.00    -0.475 OA
ATOM     16  H   UNL     1      37.488 -24.590 -10.117  0.00  0.00    +0.296 HD
ENDBRANCH  14  15
ENDBRANCH   6  14
TORSDOF 5
ENDMDL
MODEL 8
REMARK VINA RESULT:      -6.2      7.054      9.355
REMARK  Name = 446144
REMARK  5 active torsions:
REMARK  status: ('A' for Active; 'I' for Inactive)
REMARK    1  A    between atoms: C_2  and  O_7
REMARK    2  A    between atoms: C_3  and  O_9
REMARK    3  A    between atoms: C_4  and  O_11
REMARK    4  A    between atoms: C_6  and  C_14
REMARK    5  A    between atoms: C_14  and  O_15
REMARK                            x       y       z     vdW  Elec       q    Type
REMARK                         _______ _______ _______ _____ _____    ______ ____
ROOT
ATOM      1  O   UNL     1      30.733 -22.905 -16.744  0.00  0.00    -0.444 OA
ATOM      2  C   UNL     1      31.902 -23.828 -14.791  0.00  0.00    +0.212 C 
ATOM      3  C   UNL     1      30.663 -24.631 -14.389  0.00  0.00    +0.169 C 
ATOM      4  C   UNL     1      31.899 -23.618 -16.307  0.00  0.00    +0.315 C 
ATOM      5  C   UNL     1      29.445 -24.130 -15.108  0.00  0.00    +0.049 C 
ATOM      6  C   UNL     1      29.549 -23.327 -16.179  0.00  0.00    +0.214 C 
ENDROOT
BRANCH   2   7
ATOM      7  O   UNL     1      31.879 -22.554 -14.138  0.00  0.00    -0.376 OA
ATOM      8  H   UNL     1      31.103 -22.053 -14.433  0.00  0.00    +0.211 HD
ENDBRANCH   2   7
BRANCH   3   9
ATOM      9  O   UNL     1      30.483 -24.561 -12.980  0.00  0.00    -0.377 OA
ATOM     10  H   UNL     1      30.322 -23.641 -12.719  0.00  0.00    +0.211 HD
ENDBRANCH   3   9
BRANCH   4  11
ATOM     11  O   UNL     1      33.079 -22.900 -16.663  0.00  0.00    -0.348 OA
ATOM     12  H   UNL     1      33.459 -23.284 -17.468  0.00  0.00    +0.214 HD
ENDBRANCH   4  11
BRANCH   6  14
ATOM     13  O   UNL     1      27.870 -21.718 -16.675  0.00  0.00    -0.242 OA
ATOM     14  C   UNL     1      28.311 -22.849 -16.796  0.00  0.00    +0.372 C 
BRANCH  14  15
ATOM     15  O   UNL     1      27.745 -23.844 -17.510  0.00  0.00    -0.475 OA
ATOM     16  H   UNL     1      27.225 -23.644 -18.263  0.00  0.00    +0.296 HD
ENDBRANCH  14  15
ENDBRANCH   6  14
TORSDOF 5
ENDMDL
MODEL 9
REMARK VINA RESULT:      -6.2      7.136      8.920
REMARK  Name = 446144
REMARK  5 active torsions:
REMARK  status: ('A' for Active; 'I' for Inactive)
REMARK    1  A    between atoms: C_2  and  O_7
REMARK    2  A    between atoms: C_3  and  O_9
REMARK    3  A    between atoms: C_4  and  O_11
REMARK    4  A    between atoms: C_6  and  C_14
REMARK    5  A    between atoms: C_14  and  O_15
REMARK                            x       y       z     vdW  Elec       q    Type
REMARK                         _______ _______ _______ _____ _____    ______ ____
ROOT
ATOM      1  O   UNL     1      30.150 -22.399 -17.038  0.00  0.00    -0.444 OA
ATOM      2  C   UNL     1      28.558 -23.722 -15.715  0.00  0.00    +0.212 C 
ATOM      3  C   UNL     1      29.688 -24.257 -14.833  0.00  0.00    +0.169 C 
ATOM      4  C   UNL     1      28.948 -22.344 -16.256  0.00  0.00    +0.315 C 
ATOM      5  C   UNL     1      31.024 -24.015 -15.470  0.00  0.00    +0.049 C 
ATOM      6  C   UNL     1      31.163 -23.155 -16.491  0.00  0.00    +0.214 C 
ENDROOT
BRANCH   2   7
ATOM      7  O   UNL     1      28.344 -24.615 -16.812  0.00  0.00    -0.376 OA
ATOM      8  H   UNL     1      27.611 -24.289 -17.357  0.00  0.00    +0.211 HD
ENDBRANCH   2   7
BRANCH   3   9
ATOM      9  O   UNL     1      29.488 -25.643 -14.587  0.00  0.00    -0.377 OA
ATOM     10  H   UNL     1      28.569 -25.878 -14.787  0.00  0.00    +0.211 HD
ENDBRANCH   3   9
BRANCH   4  11
ATOM     11  O   UNL     1      27.868 -21.849 -17.044  0.00  0.00    -0.348 OA
ATOM     12  H   UNL     1      27.732 -20.908 -16.852  0.00  0.00    +0.214 HD
ENDBRANCH   4  11
BRANCH   6  14
ATOM     13  O   UNL     1      33.529 -23.383 -16.560  0.00  0.00    -0.242 OA
ATOM     14  C   UNL     1      32.494 -23.009 -17.084  0.00  0.00    +0.372 C 
BRANCH  14  15
ATOM     15  O   UNL     1      32.393 -22.403 -18.286  0.00  0.00    -0.475 OA
ATOM     16  H   UNL     1      33.048 -22.547 -18.940  0.00  0.00    +0.296 HD
ENDBRANCH  14  15
ENDBRANCH   6  14
TORSDOF 5
ENDMDL
