MODEL 1
REMARK VINA RESULT:     -11.7      0.000      0.000
REMARK  Name = 4369498
REMARK  8 active torsions:
REMARK  status: ('A' for Active; 'I' for Inactive)
REMARK    1  A    between atoms: N_2  and  C_11
REMARK    2  A    between atoms: C_5  and  C_25
REMARK    3  A    between atoms: C_8  and  S_14
REMARK    4  A    between atoms: C_13  and  O_23
REMARK    5  A    between atoms: S_14  and  N_17
REMARK    6  A    between atoms: N_17  and  C_19
REMARK    7  A    between atoms: C_19  and  C_20
REMARK    8  A    between atoms: C_26  and  C_32
REMARK                            x       y       z     vdW  Elec       q    Type
REMARK                         _______ _______ _______ _____ _____    ______ ____
ROOT
ATOM      1  O   UNL     1      32.725 -10.930 -22.930  0.00  0.00    -0.424 OA
ATOM      2  N   UNL     1      32.978 -13.197 -23.204  0.00  0.00    -0.265 N 
ATOM      3  N   UNL     1      34.372 -11.592 -24.331  0.00  0.00    -0.193 NA
ATOM      4  C   UNL     1      33.399 -11.952 -23.524  0.00  0.00    +0.293 C 
ATOM      5  C   UNL     1      33.340  -9.816 -23.416  0.00  0.00    +0.168 C 
ATOM      6  C   UNL     1      34.338 -10.223 -24.266  0.00  0.00    +0.141 C 
ATOM      7  H   UNL     1      32.224 -13.229 -22.572  0.00  0.00    +0.157 HD
ENDROOT
BRANCH   2  11
ATOM      8  C   UNL     1      34.540 -16.564 -23.132  0.00  0.00    +0.123 C 
ATOM      9  C   UNL     1      34.069 -15.316 -22.720  0.00  0.00    +0.038 C 
ATOM     10  C   UNL     1      34.390 -16.962 -24.461  0.00  0.00    +0.023 C 
ATOM     11  C   UNL     1      33.450 -14.468 -23.638  0.00  0.00    +0.087 C 
ATOM     12  C   UNL     1      33.771 -16.112 -25.378  0.00  0.00    +0.040 C 
ATOM     13  C   UNL     1      33.301 -14.866 -24.966  0.00  0.00    +0.152 C 
BRANCH   8  14
ATOM     14  S   UNL     1      35.318 -17.627 -21.985  0.00  0.00    +0.060 S 
ATOM     15  O   UNL     1      36.568 -18.106 -22.563  0.00  0.00    -0.153 OA
ATOM     16  O   UNL     1      35.342 -16.948 -20.697  0.00  0.00    -0.153 OA
BRANCH  14  17
ATOM     17  N   UNL     1      34.222 -18.935 -21.893  0.00  0.00    -0.179 NA
ATOM     18  H   UNL     1      34.439 -19.558 -22.670  0.00  0.00    +0.149 HD
BRANCH  17  19
ATOM     19  C   UNL     1      34.176 -19.766 -20.681  0.00  0.00    +0.091 C 
BRANCH  19  20
ATOM     20  C   UNL     1      35.265 -20.787 -20.699  0.00  0.00    +0.017 C 
ATOM     21  C   UNL     1      36.464 -20.597 -19.816  0.00  0.00    +0.001 C 
ATOM     22  C   UNL     1      35.463 -21.669 -19.501  0.00  0.00    +0.001 C 
ENDBRANCH  19  20
ENDBRANCH  17  19
ENDBRANCH  14  17
ENDBRANCH   8  14
BRANCH  13  23
ATOM     23  O   UNL     1      32.700 -14.050 -25.878  0.00  0.00    -0.470 OA
ATOM     24  C   UNL     1      33.411 -13.799 -27.089  0.00  0.00    +0.253 C 
ENDBRANCH  13  23
ENDBRANCH   2  11
BRANCH   5  25
ATOM     25  C   UNL     1      32.831  -8.549 -22.955  0.00  0.00    +0.036 C 
ATOM     26  C   UNL     1      32.122  -6.285 -23.412  0.00  0.00    +0.002 C 
ATOM     27  C   UNL     1      32.616  -7.509 -23.859  0.00  0.00    +0.003 C 
ATOM     28  C   UNL     1      32.550  -8.362 -21.600  0.00  0.00    +0.003 C 
ATOM     29  C   UNL     1      31.843  -6.099 -22.058  0.00  0.00    +0.000 C 
ATOM     30  C   UNL     1      32.056  -7.138 -21.152  0.00  0.00    +0.000 C 
BRANCH  26  32
ATOM     31  N   UNL     1      30.668  -3.217 -24.958  0.00  0.00    -0.242 NA
ATOM     32  C   UNL     1      31.901  -5.207 -24.351  0.00  0.00    +0.019 C 
ATOM     33  C   UNL     1      32.659  -5.098 -25.511  0.00  0.00    +0.003 C 
ATOM     34  C   UNL     1      30.926  -4.248 -24.123  0.00  0.00    +0.099 C 
ATOM     35  C   UNL     1      32.423  -4.051 -26.394  0.00  0.00    +0.021 C 
ATOM     36  C   UNL     1      31.425  -3.145 -26.074  0.00  0.00    +0.099 C 
ENDBRANCH  26  32
ENDBRANCH   5  25
TORSDOF 8
ENDMDL
MODEL 2
REMARK VINA RESULT:     -11.3      5.623     10.475
REMARK  Name = 4369498
REMARK  8 active torsions:
REMARK  status: ('A' for Active; 'I' for Inactive)
REMARK    1  A    between atoms: N_2  and  C_11
REMARK    2  A    between atoms: C_5  and  C_25
REMARK    3  A    between atoms: C_8  and  S_14
REMARK    4  A    between atoms: C_13  and  O_23
REMARK    5  A    between atoms: S_14  and  N_17
REMARK    6  A    between atoms: N_17  and  C_19
REMARK    7  A    between atoms: C_19  and  C_20
REMARK    8  A    between atoms: C_26  and  C_32
REMARK                            x       y       z     vdW  Elec       q    Type
REMARK                         _______ _______ _______ _____ _____    ______ ____
ROOT
ATOM      1  O   UNL     1      34.087 -20.457 -20.880  0.00  0.00    -0.424 OA
ATOM      2  N   UNL     1      33.727 -21.740 -19.009  0.00  0.00    -0.265 N 
ATOM      3  N   UNL     1      35.823 -20.642 -19.443  0.00  0.00    -0.193 NA
ATOM      4  C   UNL     1      34.581 -20.968 -19.719  0.00  0.00    +0.293 C 
ATOM      5  C   UNL     1      35.130 -19.738 -21.381  0.00  0.00    +0.168 C 
ATOM      6  C   UNL     1      36.181 -19.853 -20.506  0.00  0.00    +0.141 C 
ATOM      7  H   UNL     1      32.835 -21.850 -19.411  0.00  0.00    +0.157 HD
ENDROOT
BRANCH   2  11
ATOM      8  C   UNL     1      35.399 -23.224 -16.044  0.00  0.00    +0.123 C 
ATOM      9  C   UNL     1      35.201 -22.557 -17.254  0.00  0.00    +0.038 C 
ATOM     10  C   UNL     1      34.309 -23.754 -15.354  0.00  0.00    +0.023 C 
ATOM     11  C   UNL     1      33.914 -22.421 -17.772  0.00  0.00    +0.087 C 
ATOM     12  C   UNL     1      33.021 -23.618 -15.873  0.00  0.00    +0.040 C 
ATOM     13  C   UNL     1      32.823 -22.951 -17.082  0.00  0.00    +0.152 C 
BRANCH   8  14
ATOM     14  S   UNL     1      37.011 -23.398 -15.396  0.00  0.00    +0.060 S 
ATOM     15  O   UNL     1      37.950 -22.729 -16.287  0.00  0.00    -0.153 OA
ATOM     16  O   UNL     1      36.967 -23.020 -13.990  0.00  0.00    -0.153 OA
BRANCH  14  17
ATOM     17  N   UNL     1      37.268 -25.085 -15.497  0.00  0.00    -0.179 NA
ATOM     18  H   UNL     1      37.855 -25.245 -16.316  0.00  0.00    +0.149 HD
BRANCH  17  19
ATOM     19  C   UNL     1      37.898 -25.798 -14.377  0.00  0.00    +0.091 C 
BRANCH  19  20
ATOM     20  C   UNL     1      39.267 -25.267 -14.114  0.00  0.00    +0.017 C 
ATOM     21  C   UNL     1      40.425 -26.221 -14.051  0.00  0.00    +0.001 C 
ATOM     22  C   UNL     1      40.285 -25.286 -15.217  0.00  0.00    +0.001 C 
ENDBRANCH  19  20
ENDBRANCH  17  19
ENDBRANCH  14  17
ENDBRANCH   8  14
BRANCH  13  23
ATOM     23  O   UNL     1      31.558 -22.829 -17.573  0.00  0.00    -0.470 OA
ATOM     24  C   UNL     1      30.492 -22.844 -16.625  0.00  0.00    +0.253 C 
ENDBRANCH  13  23
ENDBRANCH   2  11
BRANCH   5  25
ATOM     25  C   UNL     1      34.901 -19.065 -22.636  0.00  0.00    +0.036 C 
ATOM     26  C   UNL     1      34.385 -17.053 -23.869  0.00  0.00    +0.002 C 
ATOM     27  C   UNL     1      34.606 -17.702 -22.656  0.00  0.00    +0.003 C 
ATOM     28  C   UNL     1      34.975 -19.779 -23.833  0.00  0.00    +0.003 C 
ATOM     29  C   UNL     1      34.459 -17.767 -25.065  0.00  0.00    +0.000 C 
ATOM     30  C   UNL     1      34.754 -19.130 -25.047  0.00  0.00    +0.000 C 
BRANCH  26  32
ATOM     31  N   UNL     1      33.195 -13.734 -25.088  0.00  0.00    -0.242 NA
ATOM     32  C   UNL     1      34.079 -15.639 -23.889  0.00  0.00    +0.019 C 
ATOM     33  C   UNL     1      34.349 -14.831 -22.791  0.00  0.00    +0.003 C 
ATOM     34  C   UNL     1      33.506 -15.047 -25.004  0.00  0.00    +0.099 C 
ATOM     35  C   UNL     1      34.043 -13.476 -22.839  0.00  0.00    +0.021 C 
ATOM     36  C   UNL     1      33.472 -12.981 -24.001  0.00  0.00    +0.099 C 
ENDBRANCH  26  32
ENDBRANCH   5  25
TORSDOF 8
ENDMDL
MODEL 3
REMARK VINA RESULT:     -11.3      5.765     10.816
REMARK  Name = 4369498
REMARK  8 active torsions:
REMARK  status: ('A' for Active; 'I' for Inactive)
REMARK    1  A    between atoms: N_2  and  C_11
REMARK    2  A    between atoms: C_5  and  C_25
REMARK    3  A    between atoms: C_8  and  S_14
REMARK    4  A    between atoms: C_13  and  O_23
REMARK    5  A    between atoms: S_14  and  N_17
REMARK    6  A    between atoms: N_17  and  C_19
REMARK    7  A    between atoms: C_19  and  C_20
REMARK    8  A    between atoms: C_26  and  C_32
REMARK                            x       y       z     vdW  Elec       q    Type
REMARK                         _______ _______ _______ _____ _____    ______ ____
ROOT
ATOM      1  O   UNL     1      33.539 -20.476 -20.327  0.00  0.00    -0.424 OA
ATOM      2  N   UNL     1      32.849 -21.798 -18.580  0.00  0.00    -0.265 N 
ATOM      3  N   UNL     1      35.171 -21.383 -19.051  0.00  0.00    -0.193 NA
ATOM      4  C   UNL     1      33.881 -21.258 -19.266  0.00  0.00    +0.293 C 
ATOM      5  C   UNL     1      34.741 -20.071 -20.826  0.00  0.00    +0.168 C 
ATOM      6  C   UNL     1      35.728 -20.624 -20.048  0.00  0.00    +0.141 C 
ATOM      7  H   UNL     1      31.956 -21.565 -18.923  0.00  0.00    +0.157 HD
ENDROOT
BRANCH   2  11
ATOM      8  C   UNL     1      34.063 -24.043 -15.884  0.00  0.00    +0.123 C 
ATOM      9  C   UNL     1      34.050 -23.204 -16.999  0.00  0.00    +0.038 C 
ATOM     10  C   UNL     1      32.875 -24.326 -15.210  0.00  0.00    +0.023 C 
ATOM     11  C   UNL     1      32.848 -22.649 -17.439  0.00  0.00    +0.087 C 
ATOM     12  C   UNL     1      31.673 -23.771 -15.651  0.00  0.00    +0.040 C 
ATOM     13  C   UNL     1      31.660 -22.932 -16.765  0.00  0.00    +0.152 C 
BRANCH   8  14
ATOM     14  S   UNL     1      35.566 -24.742 -15.333  0.00  0.00    +0.060 S 
ATOM     15  O   UNL     1      35.624 -26.132 -15.767  0.00  0.00    -0.153 OA
ATOM     16  O   UNL     1      36.641 -23.833 -15.707  0.00  0.00    -0.153 OA
BRANCH  14  17
ATOM     17  N   UNL     1      35.388 -24.706 -13.634  0.00  0.00    -0.179 NA
ATOM     18  H   UNL     1      34.477 -25.112 -13.424  0.00  0.00    +0.149 HD
BRANCH  17  19
ATOM     19  C   UNL     1      36.368 -25.394 -12.781  0.00  0.00    +0.091 C 
BRANCH  19  20
ATOM     20  C   UNL     1      36.932 -24.460 -11.763  0.00  0.00    +0.017 C 
ATOM     21  C   UNL     1      38.314 -23.909 -11.959  0.00  0.00    +0.001 C 
ATOM     22  C   UNL     1      37.121 -23.015 -12.118  0.00  0.00    +0.001 C 
ENDBRANCH  19  20
ENDBRANCH  17  19
ENDBRANCH  14  17
ENDBRANCH   8  14
BRANCH  13  23
ATOM     23  O   UNL     1      30.476 -22.401 -17.180  0.00  0.00    -0.470 OA
ATOM     24  C   UNL     1      29.309 -22.771 -16.449  0.00  0.00    +0.253 C 
ENDBRANCH  13  23
ENDBRANCH   2  11
BRANCH   5  25
ATOM     25  C   UNL     1      34.698 -19.211 -21.982  0.00  0.00    +0.036 C 
ATOM     26  C   UNL     1      34.249 -17.053 -22.971  0.00  0.00    +0.002 C 
ATOM     27  C   UNL     1      34.290 -17.884 -21.852  0.00  0.00    +0.003 C 
ATOM     28  C   UNL     1      35.067 -19.707 -23.234  0.00  0.00    +0.003 C 
ATOM     29  C   UNL     1      34.617 -17.550 -24.222  0.00  0.00    +0.000 C 
ATOM     30  C   UNL     1      35.026 -18.876 -24.353  0.00  0.00    +0.000 C 
BRANCH  26  32
ATOM     31  N   UNL     1      33.803 -13.426 -23.719  0.00  0.00    -0.242 NA
ATOM     32  C   UNL     1      33.824 -15.677 -22.836  0.00  0.00    +0.019 C 
ATOM     33  C   UNL     1      33.060 -15.265 -21.750  0.00  0.00    +0.003 C 
ATOM     34  C   UNL     1      34.166 -14.726 -23.785  0.00  0.00    +0.099 C 
ATOM     35  C   UNL     1      32.667 -13.935 -21.647  0.00  0.00    +0.021 C 
ATOM     36  C   UNL     1      33.061 -13.063 -22.649  0.00  0.00    +0.099 C 
ENDBRANCH  26  32
ENDBRANCH   5  25
TORSDOF 8
ENDMDL
MODEL 4
REMARK VINA RESULT:     -11.2      5.913     10.868
REMARK  Name = 4369498
REMARK  8 active torsions:
REMARK  status: ('A' for Active; 'I' for Inactive)
REMARK    1  A    between atoms: N_2  and  C_11
REMARK    2  A    between atoms: C_5  and  C_25
REMARK    3  A    between atoms: C_8  and  S_14
REMARK    4  A    between atoms: C_13  and  O_23
REMARK    5  A    between atoms: S_14  and  N_17
REMARK    6  A    between atoms: N_17  and  C_19
REMARK    7  A    between atoms: C_19  and  C_20
REMARK    8  A    between atoms: C_26  and  C_32
REMARK                            x       y       z     vdW  Elec       q    Type
REMARK                         _______ _______ _______ _____ _____    ______ ____
ROOT
ATOM      1  O   UNL     1      33.547 -20.588 -20.134  0.00  0.00    -0.424 OA
ATOM      2  N   UNL     1      32.817 -21.903 -18.397  0.00  0.00    -0.265 N 
ATOM      3  N   UNL     1      35.150 -21.591 -18.893  0.00  0.00    -0.193 NA
ATOM      4  C   UNL     1      33.865 -21.402 -19.089  0.00  0.00    +0.293 C 
ATOM      5  C   UNL     1      34.761 -20.233 -20.642  0.00  0.00    +0.168 C 
ATOM      6  C   UNL     1      35.730 -20.844 -19.886  0.00  0.00    +0.141 C 
ATOM      7  H   UNL     1      31.932 -21.623 -18.726  0.00  0.00    +0.157 HD
ENDROOT
BRANCH   2  11
ATOM      8  C   UNL     1      33.972 -24.165 -15.689  0.00  0.00    +0.123 C 
ATOM      9  C   UNL     1      33.984 -23.309 -16.792  0.00  0.00    +0.038 C 
ATOM     10  C   UNL     1      32.765 -24.481 -15.066  0.00  0.00    +0.023 C 
ATOM     11  C   UNL     1      32.789 -22.772 -17.270  0.00  0.00    +0.087 C 
ATOM     12  C   UNL     1      31.570 -23.943 -15.545  0.00  0.00    +0.040 C 
ATOM     13  C   UNL     1      31.582 -23.088 -16.647  0.00  0.00    +0.152 C 
BRANCH   8  14
ATOM     14  S   UNL     1      35.466 -24.841 -15.091  0.00  0.00    +0.060 S 
ATOM     15  O   UNL     1      35.518 -24.659 -13.646  0.00  0.00    -0.153 OA
ATOM     16  O   UNL     1      35.602 -26.181 -15.647  0.00  0.00    -0.153 OA
BRANCH  14  17
ATOM     17  N   UNL     1      36.642 -23.831 -15.811  0.00  0.00    -0.179 NA
ATOM     18  H   UNL     1      36.252 -22.889 -15.828  0.00  0.00    +0.149 HD
BRANCH  17  19
ATOM     19  C   UNL     1      37.981 -23.726 -15.214  0.00  0.00    +0.091 C 
BRANCH  19  20
ATOM     20  C   UNL     1      38.555 -25.080 -14.960  0.00  0.00    +0.017 C 
ATOM     21  C   UNL     1      40.033 -25.220 -14.736  0.00  0.00    +0.001 C 
ATOM     22  C   UNL     1      39.079 -25.409 -13.593  0.00  0.00    +0.001 C 
ENDBRANCH  19  20
ENDBRANCH  17  19
ENDBRANCH  14  17
ENDBRANCH   8  14
BRANCH  13  23
ATOM     23  O   UNL     1      30.404 -22.575 -17.100  0.00  0.00    -0.470 OA
ATOM     24  C   UNL     1      29.257 -22.760 -16.273  0.00  0.00    +0.253 C 
ENDBRANCH  13  23
ENDBRANCH   2  11
BRANCH   5  25
ATOM     25  C   UNL     1      34.744 -19.354 -21.784  0.00  0.00    +0.036 C 
ATOM     26  C   UNL     1      34.302 -17.184 -22.751  0.00  0.00    +0.002 C 
ATOM     27  C   UNL     1      34.317 -18.034 -21.645  0.00  0.00    +0.003 C 
ATOM     28  C   UNL     1      35.158 -19.824 -23.032  0.00  0.00    +0.003 C 
ATOM     29  C   UNL     1      34.715 -17.655 -23.997  0.00  0.00    +0.000 C 
ATOM     30  C   UNL     1      35.144 -18.975 -24.138  0.00  0.00    +0.000 C 
BRANCH  26  32
ATOM     31  N   UNL     1      33.850 -13.546 -23.442  0.00  0.00    -0.242 NA
ATOM     32  C   UNL     1      33.857 -15.815 -22.606  0.00  0.00    +0.019 C 
ATOM     33  C   UNL     1      33.042 -15.434 -21.546  0.00  0.00    +0.003 C 
ATOM     34  C   UNL     1      34.230 -14.841 -23.519  0.00  0.00    +0.099 C 
ATOM     35  C   UNL     1      32.631 -14.111 -21.433  0.00  0.00    +0.021 C 
ATOM     36  C   UNL     1      33.059 -13.214 -22.399  0.00  0.00    +0.099 C 
ENDBRANCH  26  32
ENDBRANCH   5  25
TORSDOF 8
ENDMDL
MODEL 5
REMARK VINA RESULT:     -11.1      3.262     11.332
REMARK  Name = 4369498
REMARK  8 active torsions:
REMARK  status: ('A' for Active; 'I' for Inactive)
REMARK    1  A    between atoms: N_2  and  C_11
REMARK    2  A    between atoms: C_5  and  C_25
REMARK    3  A    between atoms: C_8  and  S_14
REMARK    4  A    between atoms: C_13  and  O_23
REMARK    5  A    between atoms: S_14  and  N_17
REMARK    6  A    between atoms: N_17  and  C_19
REMARK    7  A    between atoms: C_19  and  C_20
REMARK    8  A    between atoms: C_26  and  C_32
REMARK                            x       y       z     vdW  Elec       q    Type
REMARK                         _______ _______ _______ _____ _____    ______ ____
ROOT
ATOM      1  O   UNL     1      32.691 -11.943 -23.318  0.00  0.00    -0.424 OA
ATOM      2  N   UNL     1      32.057  -9.983 -22.301  0.00  0.00    -0.265 N 
ATOM      3  N   UNL     1      33.746 -10.067 -24.012  0.00  0.00    -0.193 NA
ATOM      4  C   UNL     1      32.847 -10.595 -23.213  0.00  0.00    +0.293 C 
ATOM      5  C   UNL     1      33.586 -12.293 -24.284  0.00  0.00    +0.168 C 
ATOM      6  C   UNL     1      34.224 -11.152 -24.702  0.00  0.00    +0.141 C 
ATOM      7  H   UNL     1      31.450 -10.583 -21.810  0.00  0.00    +0.157 HD
ENDROOT
BRANCH   2  11
ATOM      8  C   UNL     1      31.485  -6.324 -22.558  0.00  0.00    +0.123 C 
ATOM      9  C   UNL     1      31.577  -7.674 -22.898  0.00  0.00    +0.038 C 
ATOM     10  C   UNL     1      31.778  -5.911 -21.258  0.00  0.00    +0.023 C 
ATOM     11  C   UNL     1      31.964  -8.609 -21.939  0.00  0.00    +0.087 C 
ATOM     12  C   UNL     1      32.165  -6.847 -20.299  0.00  0.00    +0.040 C 
ATOM     13  C   UNL     1      32.257  -8.197 -20.639  0.00  0.00    +0.152 C 
BRANCH   8  14
ATOM     14  S   UNL     1      31.005  -5.150 -23.759  0.00  0.00    +0.060 S 
ATOM     15  O   UNL     1      30.264  -5.833 -24.812  0.00  0.00    -0.153 OA
ATOM     16  O   UNL     1      30.387  -4.030 -23.063  0.00  0.00    -0.153 OA
BRANCH  14  17
ATOM     17  N   UNL     1      32.507  -4.636 -24.392  0.00  0.00    -0.179 NA
ATOM     18  H   UNL     1      33.154  -5.418 -24.290  0.00  0.00    +0.149 HD
BRANCH  17  19
ATOM     19  C   UNL     1      32.597  -4.190 -25.790  0.00  0.00    +0.091 C 
BRANCH  19  20
ATOM     20  C   UNL     1      33.370  -5.170 -26.609  0.00  0.00    +0.017 C 
ATOM     21  C   UNL     1      34.775  -4.837 -27.018  0.00  0.00    +0.001 C 
ATOM     22  C   UNL     1      34.526  -5.896 -25.986  0.00  0.00    +0.001 C 
ENDBRANCH  19  20
ENDBRANCH  17  19
ENDBRANCH  14  17
ENDBRANCH   8  14
BRANCH  13  23
ATOM     23  O   UNL     1      32.638  -9.095 -19.688  0.00  0.00    -0.470 OA
ATOM     24  C   UNL     1      31.619  -9.933 -19.146  0.00  0.00    +0.253 C 
ENDBRANCH  13  23
ENDBRANCH   2  11
BRANCH   5  25
ATOM     25  C   UNL     1      33.650 -13.694 -24.620  0.00  0.00    +0.036 C 
ATOM     26  C   UNL     1      34.192 -15.970 -24.015  0.00  0.00    +0.002 C 
ATOM     27  C   UNL     1      34.130 -14.615 -23.690  0.00  0.00    +0.003 C 
ATOM     28  C   UNL     1      33.231 -14.129 -25.878  0.00  0.00    +0.003 C 
ATOM     29  C   UNL     1      33.773 -16.403 -25.273  0.00  0.00    +0.000 C 
ATOM     30  C   UNL     1      33.293 -15.483 -26.205  0.00  0.00    +0.000 C 
BRANCH  26  32
ATOM     31  N   UNL     1      35.321 -17.416 -20.768  0.00  0.00    -0.242 NA
ATOM     32  C   UNL     1      34.690 -16.924 -23.050  0.00  0.00    +0.019 C 
ATOM     33  C   UNL     1      35.014 -18.223 -23.426  0.00  0.00    +0.003 C 
ATOM     34  C   UNL     1      34.860 -16.574 -21.719  0.00  0.00    +0.099 C 
ATOM     35  C   UNL     1      35.491 -19.118 -22.475  0.00  0.00    +0.021 C 
ATOM     36  C   UNL     1      35.625 -18.669 -21.171  0.00  0.00    +0.099 C 
ENDBRANCH  26  32
ENDBRANCH   5  25
TORSDOF 8
ENDMDL
MODEL 6
REMARK VINA RESULT:     -11.0      2.712     11.722
REMARK  Name = 4369498
REMARK  8 active torsions:
REMARK  status: ('A' for Active; 'I' for Inactive)
REMARK    1  A    between atoms: N_2  and  C_11
REMARK    2  A    between atoms: C_5  and  C_25
REMARK    3  A    between atoms: C_8  and  S_14
REMARK    4  A    between atoms: C_13  and  O_23
REMARK    5  A    between atoms: S_14  and  N_17
REMARK    6  A    between atoms: N_17  and  C_19
REMARK    7  A    between atoms: C_19  and  C_20
REMARK    8  A    between atoms: C_26  and  C_32
REMARK                            x       y       z     vdW  Elec       q    Type
REMARK                         _______ _______ _______ _____ _____    ______ ____
ROOT
ATOM      1  O   UNL     1      34.328 -14.462 -24.012  0.00  0.00    -0.424 OA
ATOM      2  N   UNL     1      34.192 -12.199 -24.384  0.00  0.00    -0.265 N 
ATOM      3  N   UNL     1      34.114 -13.155 -22.178  0.00  0.00    -0.193 NA
ATOM      4  C   UNL     1      34.204 -13.211 -23.487  0.00  0.00    +0.293 C 
ATOM      5  C   UNL     1      34.313 -15.270 -22.915  0.00  0.00    +0.168 C 
ATOM      6  C   UNL     1      34.183 -14.473 -21.805  0.00  0.00    +0.141 C 
ATOM      7  H   UNL     1      34.274 -12.477 -25.325  0.00  0.00    +0.157 HD
ENDROOT
BRANCH   2  11
ATOM      8  C   UNL     1      32.902  -8.921 -23.210  0.00  0.00    +0.123 C 
ATOM      9  C   UNL     1      33.028 -10.296 -23.412  0.00  0.00    +0.038 C 
ATOM     10  C   UNL     1      33.827  -8.045 -23.780  0.00  0.00    +0.023 C 
ATOM     11  C   UNL     1      34.077 -10.794 -24.184  0.00  0.00    +0.087 C 
ATOM     12  C   UNL     1      34.876  -8.544 -24.552  0.00  0.00    +0.040 C 
ATOM     13  C   UNL     1      35.002  -9.918 -24.753  0.00  0.00    +0.152 C 
BRANCH   8  14
ATOM     14  S   UNL     1      31.586  -8.296 -22.248  0.00  0.00    +0.060 S 
ATOM     15  O   UNL     1      30.404  -8.173 -23.092  0.00  0.00    -0.153 OA
ATOM     16  O   UNL     1      31.513  -9.088 -21.028  0.00  0.00    -0.153 OA
BRANCH  14  17
ATOM     17  N   UNL     1      32.136  -6.728 -21.846  0.00  0.00    -0.179 NA
ATOM     18  H   UNL     1      33.052  -6.616 -22.281  0.00  0.00    +0.149 HD
BRANCH  17  19
ATOM     19  C   UNL     1      31.339  -5.553 -22.227  0.00  0.00    +0.091 C 
BRANCH  19  20
ATOM     20  C   UNL     1      31.851  -4.954 -23.494  0.00  0.00    +0.017 C 
ATOM     21  C   UNL     1      31.055  -5.114 -24.756  0.00  0.00    +0.001 C 
ATOM     22  C   UNL     1      31.139  -3.774 -24.088  0.00  0.00    +0.001 C 
ENDBRANCH  19  20
ENDBRANCH  17  19
ENDBRANCH  14  17
ENDBRANCH   8  14
BRANCH  13  23
ATOM     23  O   UNL     1      36.034 -10.385 -25.512  0.00  0.00    -0.470 OA
ATOM     24  C   UNL     1      35.785 -10.561 -26.905  0.00  0.00    +0.253 C 
ENDBRANCH  13  23
ENDBRANCH   2  11
BRANCH   5  25
ATOM     25  C   UNL     1      34.429 -16.686 -23.161  0.00  0.00    +0.036 C 
ATOM     26  C   UNL     1      34.526 -18.954 -22.333  0.00  0.00    +0.002 C 
ATOM     27  C   UNL     1      34.414 -17.585 -22.094  0.00  0.00    +0.003 C 
ATOM     28  C   UNL     1      34.556 -17.158 -24.468  0.00  0.00    +0.003 C 
ATOM     29  C   UNL     1      34.653 -19.425 -23.640  0.00  0.00    +0.000 C 
ATOM     30  C   UNL     1      34.668 -18.527 -24.708  0.00  0.00    +0.000 C 
BRANCH  26  32
ATOM     31  N   UNL     1      35.749 -21.255 -19.664  0.00  0.00    -0.242 NA
ATOM     32  C   UNL     1      34.512 -19.885 -21.227  0.00  0.00    +0.019 C 
ATOM     33  C   UNL     1      33.315 -20.310 -20.661  0.00  0.00    +0.003 C 
ATOM     34  C   UNL     1      35.692 -20.384 -20.696  0.00  0.00    +0.099 C 
ATOM     35  C   UNL     1      33.333 -21.206 -19.599  0.00  0.00    +0.021 C 
ATOM     36  C   UNL     1      34.565 -21.644 -19.141  0.00  0.00    +0.099 C 
ENDBRANCH  26  32
ENDBRANCH   5  25
TORSDOF 8
ENDMDL
MODEL 7
REMARK VINA RESULT:     -10.3      6.209     11.461
REMARK  Name = 4369498
REMARK  8 active torsions:
REMARK  status: ('A' for Active; 'I' for Inactive)
REMARK    1  A    between atoms: N_2  and  C_11
REMARK    2  A    between atoms: C_5  and  C_25
REMARK    3  A    between atoms: C_8  and  S_14
REMARK    4  A    between atoms: C_13  and  O_23
REMARK    5  A    between atoms: S_14  and  N_17
REMARK    6  A    between atoms: N_17  and  C_19
REMARK    7  A    between atoms: C_19  and  C_20
REMARK    8  A    between atoms: C_26  and  C_32
REMARK                            x       y       z     vdW  Elec       q    Type
REMARK                         _______ _______ _______ _____ _____    ______ ____
ROOT
ATOM      1  O   UNL     1      35.323 -20.735 -19.308  0.00  0.00    -0.424 OA
ATOM      2  N   UNL     1      35.563 -22.003 -17.408  0.00  0.00    -0.265 N 
ATOM      3  N   UNL     1      33.529 -21.967 -18.693  0.00  0.00    -0.193 NA
ATOM      4  C   UNL     1      34.767 -21.614 -18.430  0.00  0.00    +0.293 C 
ATOM      5  C   UNL     1      34.328 -20.517 -20.213  0.00  0.00    +0.168 C 
ATOM      6  C   UNL     1      33.242 -21.267 -19.836  0.00  0.00    +0.141 C 
ATOM      7  H   UNL     1      36.464 -21.606 -17.410  0.00  0.00    +0.157 HD
ENDROOT
BRANCH   2  11
ATOM      8  C   UNL     1      33.727 -23.941 -14.827  0.00  0.00    +0.123 C 
ATOM      9  C   UNL     1      33.994 -23.071 -15.886  0.00  0.00    +0.038 C 
ATOM     10  C   UNL     1      34.771 -24.633 -14.213  0.00  0.00    +0.023 C 
ATOM     11  C   UNL     1      35.305 -22.895 -16.329  0.00  0.00    +0.087 C 
ATOM     12  C   UNL     1      36.082 -24.456 -14.657  0.00  0.00    +0.040 C 
ATOM     13  C   UNL     1      36.349 -23.587 -15.715  0.00  0.00    +0.152 C 
BRANCH   8  14
ATOM     14  S   UNL     1      32.087 -24.160 -14.269  0.00  0.00    +0.060 S 
ATOM     15  O   UNL     1      31.807 -25.588 -14.187  0.00  0.00    -0.153 OA
ATOM     16  O   UNL     1      31.905 -23.328 -13.087  0.00  0.00    -0.153 OA
BRANCH  14  17
ATOM     17  N   UNL     1      31.171 -23.495 -15.549  0.00  0.00    -0.179 NA
ATOM     18  H   UNL     1      31.621 -23.787 -16.417  0.00  0.00    +0.149 HD
BRANCH  17  19
ATOM     19  C   UNL     1      29.745 -23.829 -15.678  0.00  0.00    +0.091 C 
BRANCH  19  20
ATOM     20  C   UNL     1      28.997 -22.714 -16.329  0.00  0.00    +0.017 C 
ATOM     21  C   UNL     1      27.838 -23.034 -17.228  0.00  0.00    +0.001 C 
ATOM     22  C   UNL     1      27.596 -22.412 -15.884  0.00  0.00    +0.001 C 
ENDBRANCH  19  20
ENDBRANCH  17  19
ENDBRANCH  14  17
ENDBRANCH   8  14
BRANCH  13  23
ATOM     23  O   UNL     1      37.636 -23.427 -16.132  0.00  0.00    -0.470 OA
ATOM     24  C   UNL     1      38.645 -24.117 -15.397  0.00  0.00    +0.253 C 
ENDBRANCH  13  23
ENDBRANCH   2  11
BRANCH   5  25
ATOM     25  C   UNL     1      34.629 -19.606 -21.290  0.00  0.00    +0.036 C 
ATOM     26  C   UNL     1      34.469 -17.407 -22.278  0.00  0.00    +0.002 C 
ATOM     27  C   UNL     1      34.176 -18.287 -21.237  0.00  0.00    +0.003 C 
ATOM     28  C   UNL     1      35.376 -20.042 -22.384  0.00  0.00    +0.003 C 
ATOM     29  C   UNL     1      35.215 -17.845 -23.373  0.00  0.00    +0.000 C 
ATOM     30  C   UNL     1      35.669 -19.162 -23.426  0.00  0.00    +0.000 C 
BRANCH  26  32
ATOM     31  N   UNL     1      33.979 -13.822 -23.187  0.00  0.00    -0.242 NA
ATOM     32  C   UNL     1      33.998 -16.040 -22.224  0.00  0.00    +0.019 C 
ATOM     33  C   UNL     1      33.145 -15.614 -21.211  0.00  0.00    +0.003 C 
ATOM     34  C   UNL     1      34.382 -15.112 -23.180  0.00  0.00    +0.099 C 
ATOM     35  C   UNL     1      32.710 -14.294 -21.185  0.00  0.00    +0.021 C 
ATOM     36  C   UNL     1      33.152 -13.446 -22.188  0.00  0.00    +0.099 C 
ENDBRANCH  26  32
ENDBRANCH   5  25
TORSDOF 8
ENDMDL
MODEL 8
REMARK VINA RESULT:     -10.2      4.316     13.212
REMARK  Name = 4369498
REMARK  8 active torsions:
REMARK  status: ('A' for Active; 'I' for Inactive)
REMARK    1  A    between atoms: N_2  and  C_11
REMARK    2  A    between atoms: C_5  and  C_25
REMARK    3  A    between atoms: C_8  and  S_14
REMARK    4  A    between atoms: C_13  and  O_23
REMARK    5  A    between atoms: S_14  and  N_17
REMARK    6  A    between atoms: N_17  and  C_19
REMARK    7  A    between atoms: C_19  and  C_20
REMARK    8  A    between atoms: C_26  and  C_32
REMARK                            x       y       z     vdW  Elec       q    Type
REMARK                         _______ _______ _______ _____ _____    ______ ____
ROOT
ATOM      1  O   UNL     1      34.911 -20.133 -19.901  0.00  0.00    -0.424 OA
ATOM      2  N   UNL     1      35.037 -18.582 -21.592  0.00  0.00    -0.265 N 
ATOM      3  N   UNL     1      33.154 -20.055 -21.322  0.00  0.00    -0.193 NA
ATOM      4  C   UNL     1      34.329 -19.567 -20.994  0.00  0.00    +0.293 C 
ATOM      5  C   UNL     1      34.005 -21.071 -19.506  0.00  0.00    +0.168 C 
ATOM      6  C   UNL     1      32.941 -21.020 -20.372  0.00  0.00    +0.141 C 
ATOM      7  H   UNL     1      35.903 -18.380 -21.169  0.00  0.00    +0.157 HD
ENDROOT
BRANCH   2  11
ATOM      8  C   UNL     1      33.896 -15.730 -23.676  0.00  0.00    +0.123 C 
ATOM      9  C   UNL     1      34.204 -16.513 -22.563  0.00  0.00    +0.038 C 
ATOM     10  C   UNL     1      34.115 -16.227 -24.961  0.00  0.00    +0.023 C 
ATOM     11  C   UNL     1      34.730 -17.793 -22.736  0.00  0.00    +0.087 C 
ATOM     12  C   UNL     1      34.642 -17.507 -25.133  0.00  0.00    +0.040 C 
ATOM     13  C   UNL     1      34.950 -18.290 -24.021  0.00  0.00    +0.152 C 
BRANCH   8  14
ATOM     14  S   UNL     1      33.233 -14.129 -23.461  0.00  0.00    +0.060 S 
ATOM     15  O   UNL     1      34.324 -13.202 -23.190  0.00  0.00    -0.153 OA
ATOM     16  O   UNL     1      32.334 -13.866 -24.577  0.00  0.00    -0.153 OA
BRANCH  14  17
ATOM     17  N   UNL     1      32.299 -14.304 -22.040  0.00  0.00    -0.179 NA
ATOM     18  H   UNL     1      32.571 -15.191 -21.616  0.00  0.00    +0.149 HD
BRANCH  17  19
ATOM     19  C   UNL     1      32.378 -13.286 -20.982  0.00  0.00    +0.091 C 
BRANCH  19  20
ATOM     20  C   UNL     1      31.368 -12.211 -21.206  0.00  0.00    +0.017 C 
ATOM     21  C   UNL     1      31.380 -10.997 -20.323  0.00  0.00    +0.001 C 
ATOM     22  C   UNL     1      31.815 -10.888 -21.755  0.00  0.00    +0.001 C 
ENDBRANCH  19  20
ENDBRANCH  17  19
ENDBRANCH  14  17
ENDBRANCH   8  14
BRANCH  13  23
ATOM     23  O   UNL     1      35.462 -19.538 -24.211  0.00  0.00    -0.470 OA
ATOM     24  C   UNL     1      34.796 -20.375 -25.155  0.00  0.00    +0.253 C 
ENDBRANCH  13  23
ENDBRANCH   2  11
BRANCH   5  25
ATOM     25  C   UNL     1      34.355 -21.850 -18.345  0.00  0.00    +0.036 C 
ATOM     26  C   UNL     1      33.693 -23.176 -16.436  0.00  0.00    +0.002 C 
ATOM     27  C   UNL     1      33.355 -22.422 -17.559  0.00  0.00    +0.003 C 
ATOM     28  C   UNL     1      35.697 -22.034 -18.007  0.00  0.00    +0.003 C 
ATOM     29  C   UNL     1      35.035 -23.358 -16.098  0.00  0.00    +0.000 C 
ATOM     30  C   UNL     1      36.036 -22.788 -16.884  0.00  0.00    +0.000 C 
BRANCH  26  32
ATOM     31  N   UNL     1      32.029 -24.915 -13.586  0.00  0.00    -0.242 NA
ATOM     32  C   UNL     1      32.655 -23.767 -15.621  0.00  0.00    +0.019 C 
ATOM     33  C   UNL     1      31.330 -23.773 -16.040  0.00  0.00    +0.003 C 
ATOM     34  C   UNL     1      32.950 -24.346 -14.396  0.00  0.00    +0.099 C 
ATOM     35  C   UNL     1      30.354 -24.349 -15.234  0.00  0.00    +0.021 C 
ATOM     36  C   UNL     1      30.753 -24.902 -14.027  0.00  0.00    +0.099 C 
ENDBRANCH  26  32
ENDBRANCH   5  25
TORSDOF 8
ENDMDL
MODEL 9
REMARK VINA RESULT:     -10.1      1.651      2.598
REMARK  Name = 4369498
REMARK  8 active torsions:
REMARK  status: ('A' for Active; 'I' for Inactive)
REMARK    1  A    between atoms: N_2  and  C_11
REMARK    2  A    between atoms: C_5  and  C_25
REMARK    3  A    between atoms: C_8  and  S_14
REMARK    4  A    between atoms: C_13  and  O_23
REMARK    5  A    between atoms: S_14  and  N_17
REMARK    6  A    between atoms: N_17  and  C_19
REMARK    7  A    between atoms: C_19  and  C_20
REMARK    8  A    between atoms: C_26  and  C_32
REMARK                            x       y       z     vdW  Elec       q    Type
REMARK                         _______ _______ _______ _____ _____    ______ ____
ROOT
ATOM      1  O   UNL     1      34.392 -12.060 -23.990  0.00  0.00    -0.424 OA
ATOM      2  N   UNL     1      34.709 -14.330 -24.135  0.00  0.00    -0.265 N 
ATOM      3  N   UNL     1      32.675 -13.358 -23.295  0.00  0.00    -0.193 NA
ATOM      4  C   UNL     1      33.890 -13.310 -23.793  0.00  0.00    +0.293 C 
ATOM      5  C   UNL     1      33.384 -11.243 -23.571  0.00  0.00    +0.168 C 
ATOM      6  C   UNL     1      32.346 -12.035 -23.150  0.00  0.00    +0.141 C 
ATOM      7  H   UNL     1      35.585 -14.056 -24.493  0.00  0.00    +0.157 HD
ENDROOT
BRANCH   2  11
ATOM      8  C   UNL     1      34.473 -17.767 -22.750  0.00  0.00    +0.123 C 
ATOM      9  C   UNL     1      34.666 -16.387 -22.837  0.00  0.00    +0.038 C 
ATOM     10  C   UNL     1      34.120 -18.495 -23.887  0.00  0.00    +0.023 C 
ATOM     11  C   UNL     1      34.506 -15.738 -24.061  0.00  0.00    +0.087 C 
ATOM     12  C   UNL     1      33.961 -17.844 -25.111  0.00  0.00    +0.040 C 
ATOM     13  C   UNL     1      34.154 -16.465 -25.197  0.00  0.00    +0.152 C 
BRANCH   8  14
ATOM     14  S   UNL     1      34.676 -18.583 -21.220  0.00  0.00    +0.060 S 
ATOM     15  O   UNL     1      35.636 -17.838 -20.415  0.00  0.00    -0.153 OA
ATOM     16  O   UNL     1      33.350 -18.854 -20.681  0.00  0.00    -0.153 OA
BRANCH  14  17
ATOM     17  N   UNL     1      35.388 -20.066 -21.685  0.00  0.00    -0.179 NA
ATOM     18  H   UNL     1      36.142 -19.841 -22.333  0.00  0.00    +0.149 HD
BRANCH  17  19
ATOM     19  C   UNL     1      35.957 -20.957 -20.664  0.00  0.00    +0.091 C 
BRANCH  19  20
ATOM     20  C   UNL     1      35.004 -21.139 -19.530  0.00  0.00    +0.017 C 
ATOM     21  C   UNL     1      34.334 -22.469 -19.340  0.00  0.00    +0.001 C 
ATOM     22  C   UNL     1      35.393 -22.018 -18.378  0.00  0.00    +0.001 C 
ENDBRANCH  19  20
ENDBRANCH  17  19
ENDBRANCH  14  17
ENDBRANCH   8  14
BRANCH  13  23
ATOM     23  O   UNL     1      33.994 -15.848 -26.402  0.00  0.00    -0.470 OA
ATOM     24  C   UNL     1      32.745 -15.203 -26.638  0.00  0.00    +0.253 C 
ENDBRANCH  13  23
ENDBRANCH   2  11
BRANCH   5  25
ATOM     25  C   UNL     1      33.630  -9.825 -23.661  0.00  0.00    +0.036 C 
ATOM     26  C   UNL     1      32.941  -7.549 -23.234  0.00  0.00    +0.002 C 
ATOM     27  C   UNL     1      32.702  -8.920 -23.147  0.00  0.00    +0.003 C 
ATOM     28  C   UNL     1      34.799  -9.357 -24.263  0.00  0.00    +0.003 C 
ATOM     29  C   UNL     1      34.110  -7.082 -23.837  0.00  0.00    +0.000 C 
ATOM     30  C   UNL     1      35.039  -7.986 -24.351  0.00  0.00    +0.000 C 
BRANCH  26  32
ATOM     31  N   UNL     1      30.422  -4.801 -23.093  0.00  0.00    -0.242 NA
ATOM     32  C   UNL     1      31.977  -6.611 -22.701  0.00  0.00    +0.019 C 
ATOM     33  C   UNL     1      31.669  -6.591 -21.346  0.00  0.00    +0.003 C 
ATOM     34  C   UNL     1      31.331  -5.703 -23.526  0.00  0.00    +0.099 C 
ATOM     35  C   UNL     1      30.739  -5.677 -20.863  0.00  0.00    +0.021 C 
ATOM     36  C   UNL     1      30.149  -4.812 -21.770  0.00  0.00    +0.099 C 
ENDBRANCH  26  32
ENDBRANCH   5  25
TORSDOF 8
ENDMDL
