MODEL 1
REMARK VINA RESULT:     -10.3      0.000      0.000
REMARK  Name = 19527
REMARK  6 active torsions:
REMARK  status: ('A' for Active; 'I' for Inactive)
REMARK    1  A    between atoms: C_1  and  N_4
REMARK    2  A    between atoms: C_1  and  C_15
REMARK    3  A    between atoms: C_15  and  N_16
REMARK    4  A    between atoms: N_16  and  C_19
REMARK    5  A    between atoms: C_19  and  C_21
REMARK    6  A    between atoms: C_21  and  C_22
REMARK                            x       y       z     vdW  Elec       q    Type
REMARK                         _______ _______ _______ _____ _____    ______ ____
ROOT
ATOM      1  C   UNL     1      35.910 -22.021 -18.295  0.00  0.00    +0.051 C 
ENDROOT
BRANCH   1   4
ATOM      2  O   UNL     1      37.272 -22.424 -15.602  0.00  0.00    -0.272 OA
ATOM      3  O   UNL     1      34.487 -24.386 -12.376  0.00  0.00    -0.252 OA
ATOM      4  N   UNL     1      34.919 -22.626 -17.439  0.00  0.00    -0.242 NA
ATOM      5  N   UNL     1      33.609 -24.005 -14.498  0.00  0.00    -0.228 N 
ATOM      6  N   UNL     1      35.896 -23.406 -13.970  0.00  0.00    -0.211 N 
ATOM      7  N   UNL     1      32.959 -23.483 -16.813  0.00  0.00    -0.240 NA
ATOM      8  C   UNL     1      35.063 -22.994 -16.133  0.00  0.00    +0.192 C 
ATOM      9  C   UNL     1      33.850 -23.516 -15.774  0.00  0.00    +0.136 C 
ATOM     10  C   UNL     1      33.636 -22.941 -17.804  0.00  0.00    +0.203 C 
ATOM     11  C   UNL     1      36.190 -22.895 -15.262  0.00  0.00    +0.254 C 
ATOM     12  C   UNL     1      34.644 -23.967 -13.529  0.00  0.00    +0.318 C 
ATOM     13  C   UNL     1      32.303 -24.553 -14.155  0.00  0.00    +0.123 C 
ATOM     14  C   UNL     1      36.974 -23.359 -12.988  0.00  0.00    +0.124 C 
ENDBRANCH   1   4
BRANCH   1  15
ATOM     15  C   UNL     1      35.328 -21.619 -19.647  0.00  0.00    -0.064 C 
BRANCH  15  16
ATOM     16  N   UNL     1      35.642 -20.225 -19.935  0.00  0.00    +0.386 N 
ATOM     17  H   UNL     1      35.707 -19.709 -19.058  0.00  0.00    -0.084 HD
ATOM     18  H   UNL     1      36.529 -20.188 -20.438  0.00  0.00    -0.084 HD
BRANCH  16  19
ATOM     19  C   UNL     1      34.610 -19.620 -20.767  0.00  0.00    -0.058 C 
ATOM     20  C   UNL     1      33.265 -20.240 -20.391  0.00  0.00    -0.023 C 
BRANCH  19  21
ATOM     21  C   UNL     1      34.960 -19.827 -22.252  0.00  0.00    +0.005 C 
BRANCH  21  22
ATOM     22  C   UNL     1      34.868 -18.565 -23.076  0.00  0.00    -0.024 C 
ATOM     23  C   UNL     1      34.585 -18.658 -24.430  0.00  0.00    -0.004 C 
ATOM     24  C   UNL     1      35.068 -17.338 -22.465  0.00  0.00    -0.004 C 
ATOM     25  C   UNL     1      34.500 -17.493 -25.192  0.00  0.00    -0.000 C 
ATOM     26  C   UNL     1      34.983 -16.173 -23.227  0.00  0.00    -0.000 C 
ATOM     27  C   UNL     1      34.699 -16.251 -24.591  0.00  0.00    -0.000 C 
ENDBRANCH  21  22
ENDBRANCH  19  21
ENDBRANCH  16  19
ENDBRANCH  15  16
ENDBRANCH   1  15
TORSDOF 6
ENDMDL
MODEL 2
REMARK VINA RESULT:     -10.3      6.962     11.058
REMARK  Name = 19527
REMARK  6 active torsions:
REMARK  status: ('A' for Active; 'I' for Inactive)
REMARK    1  A    between atoms: C_1  and  N_4
REMARK    2  A    between atoms: C_1  and  C_15
REMARK    3  A    between atoms: C_15  and  N_16
REMARK    4  A    between atoms: N_16  and  C_19
REMARK    5  A    between atoms: C_19  and  C_21
REMARK    6  A    between atoms: C_21  and  C_22
REMARK                            x       y       z     vdW  Elec       q    Type
REMARK                         _______ _______ _______ _____ _____    ______ ____
ROOT
ATOM      1  C   UNL     1      34.208 -14.687 -24.144  0.00  0.00    +0.051 C 
ENDROOT
BRANCH   1   4
ATOM      2  O   UNL     1      34.284 -11.725 -24.842  0.00  0.00    -0.272 OA
ATOM      3  O   UNL     1      31.693  -9.063 -21.975  0.00  0.00    -0.252 OA
ATOM      4  N   UNL     1      33.367 -14.031 -23.172  0.00  0.00    -0.242 NA
ATOM      5  N   UNL     1      31.752 -11.357 -21.588  0.00  0.00    -0.228 N 
ATOM      6  N   UNL     1      32.993 -10.371 -23.419  0.00  0.00    -0.211 N 
ATOM      7  N   UNL     1      32.002 -13.800 -21.425  0.00  0.00    -0.240 NA
ATOM      8  C   UNL     1      33.090 -12.698 -23.078  0.00  0.00    +0.192 C 
ATOM      9  C   UNL     1      32.253 -12.584 -22.001  0.00  0.00    +0.136 C 
ATOM     10  C   UNL     1      32.690 -14.653 -22.155  0.00  0.00    +0.203 C 
ATOM     11  C   UNL     1      33.532 -11.602 -23.879  0.00  0.00    +0.254 C 
ATOM     12  C   UNL     1      32.110 -10.182 -22.296  0.00  0.00    +0.318 C 
ATOM     13  C   UNL     1      30.864 -11.277 -20.435  0.00  0.00    +0.123 C 
ATOM     14  C   UNL     1      33.374  -9.174 -24.161  0.00  0.00    +0.124 C 
ENDBRANCH   1   4
BRANCH   1  15
ATOM     15  C   UNL     1      34.159 -16.206 -24.008  0.00  0.00    -0.064 C 
BRANCH  15  16
ATOM     16  N   UNL     1      35.477 -16.722 -23.661  0.00  0.00    +0.386 N 
ATOM     17  H   UNL     1      36.051 -16.765 -24.502  0.00  0.00    -0.084 HD
ATOM     18  H   UNL     1      35.899 -16.099 -22.972  0.00  0.00    -0.084 HD
BRANCH  16  19
ATOM     19  C   UNL     1      35.378 -18.055 -23.082  0.00  0.00    -0.058 C 
ATOM     20  C   UNL     1      34.822 -19.001 -24.146  0.00  0.00    -0.023 C 
BRANCH  19  21
ATOM     21  C   UNL     1      34.498 -18.005 -21.820  0.00  0.00    +0.005 C 
BRANCH  21  22
ATOM     22  C   UNL     1      34.525 -19.281 -21.013  0.00  0.00    -0.024 C 
ATOM     23  C   UNL     1      33.329 -19.866 -20.627  0.00  0.00    -0.004 C 
ATOM     24  C   UNL     1      35.745 -19.844 -20.673  0.00  0.00    -0.004 C 
ATOM     25  C   UNL     1      33.353 -21.044 -19.882  0.00  0.00    -0.000 C 
ATOM     26  C   UNL     1      35.769 -21.023 -19.928  0.00  0.00    -0.000 C 
ATOM     27  C   UNL     1      34.573 -21.623 -19.531  0.00  0.00    -0.000 C 
ENDBRANCH  21  22
ENDBRANCH  19  21
ENDBRANCH  16  19
ENDBRANCH  15  16
ENDBRANCH   1  15
TORSDOF 6
ENDMDL
MODEL 3
REMARK VINA RESULT:     -10.1      6.742     11.596
REMARK  Name = 19527
REMARK  6 active torsions:
REMARK  status: ('A' for Active; 'I' for Inactive)
REMARK    1  A    between atoms: C_1  and  N_4
REMARK    2  A    between atoms: C_1  and  C_15
REMARK    3  A    between atoms: C_15  and  N_16
REMARK    4  A    between atoms: N_16  and  C_19
REMARK    5  A    between atoms: C_19  and  C_21
REMARK    6  A    between atoms: C_21  and  C_22
REMARK                            x       y       z     vdW  Elec       q    Type
REMARK                         _______ _______ _______ _____ _____    ______ ____
ROOT
ATOM      1  C   UNL     1      33.471 -14.297 -24.132  0.00  0.00    +0.051 C 
ENDROOT
BRANCH   1   4
ATOM      2  O   UNL     1      31.881 -13.359 -21.711  0.00  0.00    -0.272 OA
ATOM      3  O   UNL     1      31.717  -8.689 -21.281  0.00  0.00    -0.252 OA
ATOM      4  N   UNL     1      33.527 -12.855 -24.159  0.00  0.00    -0.242 NA
ATOM      5  N   UNL     1      32.891  -9.584 -23.079  0.00  0.00    -0.228 N 
ATOM      6  N   UNL     1      31.784 -11.023 -21.475  0.00  0.00    -0.211 N 
ATOM      7  N   UNL     1      34.053 -10.810 -24.869  0.00  0.00    -0.240 NA
ATOM      8  C   UNL     1      32.959 -11.986 -23.273  0.00  0.00    +0.192 C 
ATOM      9  C   UNL     1      33.297 -10.741 -23.731  0.00  0.00    +0.136 C 
ATOM     10  C   UNL     1      34.174 -12.100 -25.102  0.00  0.00    +0.203 C 
ATOM     11  C   UNL     1      32.174 -12.234 -22.106  0.00  0.00    +0.254 C 
ATOM     12  C   UNL     1      32.105  -9.685 -21.904  0.00  0.00    +0.318 C 
ATOM     13  C   UNL     1      33.271  -8.277 -23.599  0.00  0.00    +0.123 C 
ATOM     14  C   UNL     1      30.975 -11.147 -20.267  0.00  0.00    +0.124 C 
ENDBRANCH   1   4
BRANCH   1  15
ATOM     15  C   UNL     1      34.545 -14.893 -23.228  0.00  0.00    -0.064 C 
BRANCH  15  16
ATOM     16  N   UNL     1      34.535 -16.347 -23.326  0.00  0.00    +0.386 N 
ATOM     17  H   UNL     1      33.748 -16.637 -23.905  0.00  0.00    -0.084 HD
ATOM     18  H   UNL     1      35.415 -16.653 -23.741  0.00  0.00    -0.084 HD
BRANCH  16  19
ATOM     19  C   UNL     1      34.406 -16.956 -22.008  0.00  0.00    -0.058 C 
ATOM     20  C   UNL     1      34.665 -15.881 -20.954  0.00  0.00    -0.023 C 
BRANCH  19  21
ATOM     21  C   UNL     1      35.381 -18.142 -21.892  0.00  0.00    +0.005 C 
BRANCH  21  22
ATOM     22  C   UNL     1      34.836 -19.297 -21.086  0.00  0.00    -0.024 C 
ATOM     23  C   UNL     1      33.468 -19.403 -20.893  0.00  0.00    -0.004 C 
ATOM     24  C   UNL     1      35.713 -20.228 -20.555  0.00  0.00    -0.004 C 
ATOM     25  C   UNL     1      32.963 -20.470 -20.149  0.00  0.00    -0.000 C 
ATOM     26  C   UNL     1      35.209 -21.295 -19.811  0.00  0.00    -0.000 C 
ATOM     27  C   UNL     1      33.834 -21.416 -19.607  0.00  0.00    -0.000 C 
ENDBRANCH  21  22
ENDBRANCH  19  21
ENDBRANCH  16  19
ENDBRANCH  15  16
ENDBRANCH   1  15
TORSDOF 6
ENDMDL
MODEL 4
REMARK VINA RESULT:     -10.1      1.355      2.538
REMARK  Name = 19527
REMARK  6 active torsions:
REMARK  status: ('A' for Active; 'I' for Inactive)
REMARK    1  A    between atoms: C_1  and  N_4
REMARK    2  A    between atoms: C_1  and  C_15
REMARK    3  A    between atoms: C_15  and  N_16
REMARK    4  A    between atoms: N_16  and  C_19
REMARK    5  A    between atoms: C_19  and  C_21
REMARK    6  A    between atoms: C_21  and  C_22
REMARK                            x       y       z     vdW  Elec       q    Type
REMARK                         _______ _______ _______ _____ _____    ______ ____
ROOT
ATOM      1  C   UNL     1      35.274 -22.229 -18.276  0.00  0.00    +0.051 C 
ENDROOT
BRANCH   1   4
ATOM      2  O   UNL     1      33.137 -23.492 -16.513  0.00  0.00    -0.272 OA
ATOM      3  O   UNL     1      34.643 -24.502 -12.186  0.00  0.00    -0.252 OA
ATOM      4  N   UNL     1      35.906 -22.469 -17.001  0.00  0.00    -0.242 NA
ATOM      5  N   UNL     1      36.147 -23.529 -13.671  0.00  0.00    -0.228 N 
ATOM      6  N   UNL     1      33.868 -24.007 -14.340  0.00  0.00    -0.211 N 
ATOM      7  N   UNL     1      37.505 -22.502 -15.448  0.00  0.00    -0.240 NA
ATOM      8  C   UNL     1      35.345 -23.023 -15.887  0.00  0.00    +0.192 C 
ATOM      9  C   UNL     1      36.344 -23.032 -14.952  0.00  0.00    +0.136 C 
ATOM     10  C   UNL     1      37.207 -22.172 -16.688  0.00  0.00    +0.203 C 
ATOM     11  C   UNL     1      34.021 -23.510 -15.661  0.00  0.00    +0.254 C 
ATOM     12  C   UNL     1      34.877 -24.045 -13.311  0.00  0.00    +0.318 C 
ATOM     13  C   UNL     1      37.236 -23.520 -12.704  0.00  0.00    +0.123 C 
ATOM     14  C   UNL     1      32.554 -24.534 -13.988  0.00  0.00    +0.124 C 
ENDBRANCH   1   4
BRANCH   1  15
ATOM     15  C   UNL     1      36.076 -21.258 -19.137  0.00  0.00    -0.064 C 
BRANCH  15  16
ATOM     16  N   UNL     1      35.506 -21.185 -20.476  0.00  0.00    +0.386 N 
ATOM     17  H   UNL     1      36.256 -21.258 -21.163  0.00  0.00    -0.084 HD
ATOM     18  H   UNL     1      34.842 -21.951 -20.590  0.00  0.00    -0.084 HD
BRANCH  16  19
ATOM     19  C   UNL     1      34.801 -19.926 -20.673  0.00  0.00    -0.058 C 
ATOM     20  C   UNL     1      33.299 -20.202 -20.611  0.00  0.00    -0.023 C 
BRANCH  19  21
ATOM     21  C   UNL     1      35.230 -19.299 -22.012  0.00  0.00    +0.005 C 
BRANCH  21  22
ATOM     22  C   UNL     1      34.977 -17.813 -22.093  0.00  0.00    -0.024 C 
ATOM     23  C   UNL     1      34.812 -17.219 -23.335  0.00  0.00    -0.004 C 
ATOM     24  C   UNL     1      34.913 -17.070 -20.925  0.00  0.00    -0.004 C 
ATOM     25  C   UNL     1      34.578 -15.846 -23.410  0.00  0.00    -0.000 C 
ATOM     26  C   UNL     1      34.678 -15.697 -21.001  0.00  0.00    -0.000 C 
ATOM     27  C   UNL     1      34.512 -15.084 -22.243  0.00  0.00    -0.000 C 
ENDBRANCH  21  22
ENDBRANCH  19  21
ENDBRANCH  16  19
ENDBRANCH  15  16
ENDBRANCH   1  15
TORSDOF 6
ENDMDL
MODEL 5
REMARK VINA RESULT:      -9.8      7.302     10.936
REMARK  Name = 19527
REMARK  6 active torsions:
REMARK  status: ('A' for Active; 'I' for Inactive)
REMARK    1  A    between atoms: C_1  and  N_4
REMARK    2  A    between atoms: C_1  and  C_15
REMARK    3  A    between atoms: C_15  and  N_16
REMARK    4  A    between atoms: N_16  and  C_19
REMARK    5  A    between atoms: C_19  and  C_21
REMARK    6  A    between atoms: C_21  and  C_22
REMARK                            x       y       z     vdW  Elec       q    Type
REMARK                         _______ _______ _______ _____ _____    ______ ____
ROOT
ATOM      1  C   UNL     1      32.791 -13.329 -25.078  0.00  0.00    +0.051 C 
ENDROOT
BRANCH   1   4
ATOM      2  O   UNL     1      33.550 -13.704 -22.154  0.00  0.00    -0.272 OA
ATOM      3  O   UNL     1      35.453 -17.895 -21.241  0.00  0.00    -0.252 OA
ATOM      4  N   UNL     1      33.353 -14.655 -24.984  0.00  0.00    -0.242 NA
ATOM      5  N   UNL     1      34.813 -17.434 -23.430  0.00  0.00    -0.228 N 
ATOM      6  N   UNL     1      34.506 -15.796 -21.672  0.00  0.00    -0.211 N 
ATOM      7  N   UNL     1      34.042 -16.670 -25.639  0.00  0.00    -0.240 NA
ATOM      8  C   UNL     1      33.837 -15.274 -23.868  0.00  0.00    +0.192 C 
ATOM      9  C   UNL     1      34.252 -16.506 -24.297  0.00  0.00    +0.136 C 
ATOM     10  C   UNL     1      33.498 -15.535 -26.024  0.00  0.00    +0.203 C 
ATOM     11  C   UNL     1      33.928 -14.814 -22.519  0.00  0.00    +0.254 C 
ATOM     12  C   UNL     1      34.963 -17.107 -22.059  0.00  0.00    +0.318 C 
ATOM     13  C   UNL     1      35.244 -18.735 -23.926  0.00  0.00    +0.123 C 
ATOM     14  C   UNL     1      34.652 -15.441 -20.265  0.00  0.00    +0.124 C 
ENDBRANCH   1   4
BRANCH   1  15
ATOM     15  C   UNL     1      33.856 -12.278 -25.375  0.00  0.00    -0.064 C 
BRANCH  15  16
ATOM     16  N   UNL     1      34.223 -11.575 -24.153  0.00  0.00    +0.386 N 
ATOM     17  H   UNL     1      33.887 -12.104 -23.349  0.00  0.00    -0.084 HD
ATOM     18  H   UNL     1      35.239 -11.484 -24.121  0.00  0.00    -0.084 HD
BRANCH  16  19
ATOM     19  C   UNL     1      33.636 -10.241 -24.124  0.00  0.00    -0.058 C 
ATOM     20  C   UNL     1      34.771  -9.217 -24.130  0.00  0.00    -0.023 C 
BRANCH  19  21
ATOM     21  C   UNL     1      32.727 -10.105 -22.889  0.00  0.00    +0.005 C 
BRANCH  21  22
ATOM     22  C   UNL     1      32.230  -8.699 -22.655  0.00  0.00    -0.024 C 
ATOM     23  C   UNL     1      32.602  -8.032 -21.499  0.00  0.00    -0.004 C 
ATOM     24  C   UNL     1      31.413  -8.101 -23.601  0.00  0.00    -0.004 C 
ATOM     25  C   UNL     1      32.144  -6.732 -21.282  0.00  0.00    -0.000 C 
ATOM     26  C   UNL     1      30.956  -6.801 -23.384  0.00  0.00    -0.000 C 
ATOM     27  C   UNL     1      31.321  -6.117 -22.225  0.00  0.00    -0.000 C 
ENDBRANCH  21  22
ENDBRANCH  19  21
ENDBRANCH  16  19
ENDBRANCH  15  16
ENDBRANCH   1  15
TORSDOF 6
ENDMDL
MODEL 6
REMARK VINA RESULT:      -9.8      7.580     10.598
REMARK  Name = 19527
REMARK  6 active torsions:
REMARK  status: ('A' for Active; 'I' for Inactive)
REMARK    1  A    between atoms: C_1  and  N_4
REMARK    2  A    between atoms: C_1  and  C_15
REMARK    3  A    between atoms: C_15  and  N_16
REMARK    4  A    between atoms: N_16  and  C_19
REMARK    5  A    between atoms: C_19  and  C_21
REMARK    6  A    between atoms: C_21  and  C_22
REMARK                            x       y       z     vdW  Elec       q    Type
REMARK                         _______ _______ _______ _____ _____    ______ ____
ROOT
ATOM      1  C   UNL     1      33.608 -13.515 -20.930  0.00  0.00    +0.051 C 
ENDROOT
BRANCH   1   4
ATOM      2  O   UNL     1      33.079 -13.648 -23.926  0.00  0.00    -0.272 OA
ATOM      3  O   UNL     1      34.502 -17.661 -25.897  0.00  0.00    -0.252 OA
ATOM      4  N   UNL     1      34.103 -14.800 -21.361  0.00  0.00    -0.242 NA
ATOM      5  N   UNL     1      34.827 -17.387 -23.609  0.00  0.00    -0.228 N 
ATOM      6  N   UNL     1      33.783 -15.649 -24.935  0.00  0.00    -0.211 N 
ATOM      7  N   UNL     1      35.039 -16.818 -21.224  0.00  0.00    -0.240 NA
ATOM      8  C   UNL     1      34.087 -15.315 -22.625  0.00  0.00    +0.192 C 
ATOM      9  C   UNL     1      34.666 -16.550 -22.513  0.00  0.00    +0.136 C 
ATOM     10  C   UNL     1      34.686 -15.741 -20.553  0.00  0.00    +0.203 C 
ATOM     11  C   UNL     1      33.596 -14.759 -23.845  0.00  0.00    +0.254 C 
ATOM     12  C   UNL     1      34.383 -16.959 -24.886  0.00  0.00    +0.318 C 
ATOM     13  C   UNL     1      35.447 -18.696 -23.448  0.00  0.00    +0.123 C 
ATOM     14  C   UNL     1      33.319 -15.191 -26.241  0.00  0.00    +0.124 C 
ENDBRANCH   1   4
BRANCH   1  15
ATOM     15  C   UNL     1      32.095 -13.523 -20.733  0.00  0.00    -0.064 C 
BRANCH  15  16
ATOM     16  N   UNL     1      31.465 -12.573 -21.641  0.00  0.00    +0.386 N 
ATOM     17  H   UNL     1      31.801 -12.743 -22.588  0.00  0.00    -0.084 HD
ATOM     18  H   UNL     1      30.453 -12.699 -21.593  0.00  0.00    -0.084 HD
BRANCH  16  19
ATOM     19  C   UNL     1      31.780 -11.203 -21.262  0.00  0.00    -0.058 C 
ATOM     20  C   UNL     1      30.974 -10.852 -20.012  0.00  0.00    -0.023 C 
BRANCH  19  21
ATOM     21  C   UNL     1      31.480 -10.260 -22.441  0.00  0.00    +0.005 C 
BRANCH  21  22
ATOM     22  C   UNL     1      32.669  -9.438 -22.877  0.00  0.00    -0.024 C 
ATOM     23  C   UNL     1      33.582  -9.985 -23.765  0.00  0.00    -0.004 C 
ATOM     24  C   UNL     1      32.826  -8.153 -22.383  0.00  0.00    -0.004 C 
ATOM     25  C   UNL     1      34.681  -9.227 -24.169  0.00  0.00    -0.000 C 
ATOM     26  C   UNL     1      33.924  -7.395 -22.788  0.00  0.00    -0.000 C 
ATOM     27  C   UNL     1      34.853  -7.932 -23.680  0.00  0.00    -0.000 C 
ENDBRANCH  21  22
ENDBRANCH  19  21
ENDBRANCH  16  19
ENDBRANCH  15  16
ENDBRANCH   1  15
TORSDOF 6
ENDMDL
MODEL 7
REMARK VINA RESULT:      -9.5      6.291     10.029
REMARK  Name = 19527
REMARK  6 active torsions:
REMARK  status: ('A' for Active; 'I' for Inactive)
REMARK    1  A    between atoms: C_1  and  N_4
REMARK    2  A    between atoms: C_1  and  C_15
REMARK    3  A    between atoms: C_15  and  N_16
REMARK    4  A    between atoms: N_16  and  C_19
REMARK    5  A    between atoms: C_19  and  C_21
REMARK    6  A    between atoms: C_21  and  C_22
REMARK                            x       y       z     vdW  Elec       q    Type
REMARK                         _______ _______ _______ _____ _____    ______ ____
ROOT
ATOM      1  C   UNL     1      33.799 -13.293 -22.698  0.00  0.00    +0.051 C 
ENDROOT
BRANCH   1   4
ATOM      2  O   UNL     1      33.851 -15.353 -24.940  0.00  0.00    -0.272 OA
ATOM      3  O   UNL     1      35.161 -19.628 -23.517  0.00  0.00    -0.252 OA
ATOM      4  N   UNL     1      34.218 -14.531 -22.086  0.00  0.00    -0.242 NA
ATOM      5  N   UNL     1      35.064 -17.927 -21.933  0.00  0.00    -0.228 N 
ATOM      6  N   UNL     1      34.504 -17.503 -24.251  0.00  0.00    -0.211 N 
ATOM      7  N   UNL     1      34.872 -15.943 -20.490  0.00  0.00    -0.240 NA
ATOM      8  C   UNL     1      34.389 -15.742 -22.693  0.00  0.00    +0.192 C 
ATOM      9  C   UNL     1      34.790 -16.587 -21.695  0.00  0.00    +0.136 C 
ATOM     10  C   UNL     1      34.520 -14.703 -20.760  0.00  0.00    +0.203 C 
ATOM     11  C   UNL     1      34.212 -16.127 -24.057  0.00  0.00    +0.254 C 
ATOM     12  C   UNL     1      34.929 -18.444 -23.246  0.00  0.00    +0.318 C 
ATOM     13  C   UNL     1      35.487 -18.795 -20.842  0.00  0.00    +0.123 C 
ATOM     14  C   UNL     1      34.358 -18.016 -25.609  0.00  0.00    +0.124 C 
ENDBRANCH   1   4
BRANCH   1  15
ATOM     15  C   UNL     1      32.296 -13.265 -22.958  0.00  0.00    -0.064 C 
BRANCH  15  16
ATOM     16  N   UNL     1      31.593 -12.761 -21.785  0.00  0.00    +0.386 N 
ATOM     17  H   UNL     1      30.594 -12.722 -21.985  0.00  0.00    -0.084 HD
ATOM     18  H   UNL     1      31.775 -13.389 -21.001  0.00  0.00    -0.084 HD
BRANCH  16  19
ATOM     19  C   UNL     1      32.060 -11.428 -21.431  0.00  0.00    -0.058 C 
ATOM     20  C   UNL     1      31.501 -11.071 -20.054  0.00  0.00    -0.023 C 
BRANCH  19  21
ATOM     21  C   UNL     1      31.631 -10.426 -22.519  0.00  0.00    +0.005 C 
BRANCH  21  22
ATOM     22  C   UNL     1      32.722  -9.462 -22.917  0.00  0.00    -0.024 C 
ATOM     23  C   UNL     1      32.691  -8.164 -22.432  0.00  0.00    -0.004 C 
ATOM     24  C   UNL     1      33.734  -9.892 -23.760  0.00  0.00    -0.004 C 
ATOM     25  C   UNL     1      33.699  -7.272 -22.799  0.00  0.00    -0.000 C 
ATOM     26  C   UNL     1      34.743  -9.000 -24.127  0.00  0.00    -0.000 C 
ATOM     27  C   UNL     1      34.725  -7.690 -23.647  0.00  0.00    -0.000 C 
ENDBRANCH  21  22
ENDBRANCH  19  21
ENDBRANCH  16  19
ENDBRANCH  15  16
ENDBRANCH   1  15
TORSDOF 6
ENDMDL
MODEL 8
REMARK VINA RESULT:      -9.4      1.925      3.074
REMARK  Name = 19527
REMARK  6 active torsions:
REMARK  status: ('A' for Active; 'I' for Inactive)
REMARK    1  A    between atoms: C_1  and  N_4
REMARK    2  A    between atoms: C_1  and  C_15
REMARK    3  A    between atoms: C_15  and  N_16
REMARK    4  A    between atoms: N_16  and  C_19
REMARK    5  A    between atoms: C_19  and  C_21
REMARK    6  A    between atoms: C_21  and  C_22
REMARK                            x       y       z     vdW  Elec       q    Type
REMARK                         _______ _______ _______ _____ _____    ______ ____
ROOT
ATOM      1  C   UNL     1      34.780 -22.021 -19.709  0.00  0.00    +0.051 C 
ENDROOT
BRANCH   1   4
ATOM      2  O   UNL     1      32.454 -23.054 -18.038  0.00  0.00    -0.272 OA
ATOM      3  O   UNL     1      33.606 -23.927 -13.574  0.00  0.00    -0.252 OA
ATOM      4  N   UNL     1      35.310 -22.232 -18.384  0.00  0.00    -0.242 NA
ATOM      5  N   UNL     1      35.264 -23.129 -14.998  0.00  0.00    -0.228 N 
ATOM      6  N   UNL     1      33.007 -23.498 -15.798  0.00  0.00    -0.211 N 
ATOM      7  N   UNL     1      36.799 -22.284 -16.726  0.00  0.00    -0.240 NA
ATOM      8  C   UNL     1      34.643 -22.691 -17.285  0.00  0.00    +0.192 C 
ATOM      9  C   UNL     1      35.576 -22.713 -16.285  0.00  0.00    +0.136 C 
ATOM     10  C   UNL     1      36.605 -22.001 -17.997  0.00  0.00    +0.203 C 
ATOM     11  C   UNL     1      33.278 -23.082 -17.128  0.00  0.00    +0.254 C 
ATOM     12  C   UNL     1      33.942 -23.545 -14.701  0.00  0.00    +0.318 C 
ATOM     13  C   UNL     1      36.286 -23.137 -13.961  0.00  0.00    +0.123 C 
ATOM     14  C   UNL     1      31.641 -23.923 -15.511  0.00  0.00    +0.124 C 
ENDBRANCH   1   4
BRANCH   1  15
ATOM     15  C   UNL     1      34.219 -20.613 -19.882  0.00  0.00    -0.064 C 
BRANCH  15  16
ATOM     16  N   UNL     1      35.231 -19.737 -20.459  0.00  0.00    +0.386 N 
ATOM     17  H   UNL     1      35.691 -19.219 -19.711  0.00  0.00    -0.084 HD
ATOM     18  H   UNL     1      35.907 -20.309 -20.965  0.00  0.00    -0.084 HD
BRANCH  16  19
ATOM     19  C   UNL     1      34.630 -18.792 -21.392  0.00  0.00    -0.058 C 
ATOM     20  C   UNL     1      34.817 -19.332 -22.810  0.00  0.00    -0.023 C 
BRANCH  19  21
ATOM     21  C   UNL     1      35.267 -17.404 -21.201  0.00  0.00    +0.005 C 
BRANCH  21  22
ATOM     22  C   UNL     1      34.354 -16.262 -21.578  0.00  0.00    -0.024 C 
ATOM     23  C   UNL     1      34.343 -15.806 -22.887  0.00  0.00    -0.004 C 
ATOM     24  C   UNL     1      33.543 -15.693 -20.610  0.00  0.00    -0.004 C 
ATOM     25  C   UNL     1      33.500 -14.752 -23.237  0.00  0.00    -0.000 C 
ATOM     26  C   UNL     1      32.698 -14.639 -20.960  0.00  0.00    -0.000 C 
ATOM     27  C   UNL     1      32.677 -14.168 -22.273  0.00  0.00    -0.000 C 
ENDBRANCH  21  22
ENDBRANCH  19  21
ENDBRANCH  16  19
ENDBRANCH  15  16
ENDBRANCH   1  15
TORSDOF 6
ENDMDL
MODEL 9
REMARK VINA RESULT:      -9.4      7.243     12.000
REMARK  Name = 19527
REMARK  6 active torsions:
REMARK  status: ('A' for Active; 'I' for Inactive)
REMARK    1  A    between atoms: C_1  and  N_4
REMARK    2  A    between atoms: C_1  and  C_15
REMARK    3  A    between atoms: C_15  and  N_16
REMARK    4  A    between atoms: N_16  and  C_19
REMARK    5  A    between atoms: C_19  and  C_21
REMARK    6  A    between atoms: C_21  and  C_22
REMARK                            x       y       z     vdW  Elec       q    Type
REMARK                         _______ _______ _______ _____ _____    ______ ____
ROOT
ATOM      1  C   UNL     1      33.016 -13.838 -23.727  0.00  0.00    +0.051 C 
ENDROOT
BRANCH   1   4
ATOM      2  O   UNL     1      34.425 -11.446 -24.977  0.00  0.00    -0.272 OA
ATOM      3  O   UNL     1      33.514  -7.393 -22.796  0.00  0.00    -0.252 OA
ATOM      4  N   UNL     1      32.625 -12.694 -22.939  0.00  0.00    -0.242 NA
ATOM      5  N   UNL     1      32.519  -9.329 -21.973  0.00  0.00    -0.228 N 
ATOM      6  N   UNL     1      33.984  -9.404 -23.901  0.00  0.00    -0.211 N 
ATOM      7  N   UNL     1      31.613 -11.526 -21.333  0.00  0.00    -0.240 NA
ATOM      8  C   UNL     1      33.005 -11.395 -23.115  0.00  0.00    +0.192 C 
ATOM      9  C   UNL     1      32.372 -10.702 -22.120  0.00  0.00    +0.136 C 
ATOM     10  C   UNL     1      31.788 -12.722 -21.854  0.00  0.00    +0.203 C 
ATOM     11  C   UNL     1      33.865 -10.806 -24.091  0.00  0.00    +0.254 C 
ATOM     12  C   UNL     1      33.347  -8.615 -22.877  0.00  0.00    +0.318 C 
ATOM     13  C   UNL     1      31.829  -8.627 -20.899  0.00  0.00    +0.123 C 
ATOM     14  C   UNL     1      34.841  -8.688 -24.840  0.00  0.00    +0.124 C 
ENDBRANCH   1   4
BRANCH   1  15
ATOM     15  C   UNL     1      34.210 -14.568 -23.121  0.00  0.00    -0.064 C 
BRANCH  15  16
ATOM     16  N   UNL     1      34.006 -16.009 -23.190  0.00  0.00    +0.386 N 
ATOM     17  H   UNL     1      33.064 -16.197 -23.531  0.00  0.00    -0.084 HD
ATOM     18  H   UNL     1      34.701 -16.408 -23.821  0.00  0.00    -0.084 HD
BRANCH  16  19
ATOM     19  C   UNL     1      34.167 -16.621 -21.877  0.00  0.00    -0.058 C 
ATOM     20  C   UNL     1      34.613 -15.539 -20.894  0.00  0.00    -0.023 C 
BRANCH  19  21
ATOM     21  C   UNL     1      35.171 -17.784 -21.970  0.00  0.00    +0.005 C 
BRANCH  21  22
ATOM     22  C   UNL     1      34.758 -19.005 -21.185  0.00  0.00    -0.024 C 
ATOM     23  C   UNL     1      33.411 -19.253 -20.975  0.00  0.00    -0.004 C 
ATOM     24  C   UNL     1      35.733 -19.856 -20.689  0.00  0.00    -0.004 C 
ATOM     25  C   UNL     1      33.028 -20.381 -20.250  0.00  0.00    -0.000 C 
ATOM     26  C   UNL     1      35.350 -20.985 -19.965  0.00  0.00    -0.000 C 
ATOM     27  C   UNL     1      33.997 -21.247 -19.745  0.00  0.00    -0.000 C 
ENDBRANCH  21  22
ENDBRANCH  19  21
ENDBRANCH  16  19
ENDBRANCH  15  16
ENDBRANCH   1  15
TORSDOF 6
ENDMDL
