MODEL 1
REMARK VINA RESULT:     -10.8      0.000      0.000
REMARK  Name = 9949641
REMARK  3 active torsions:
REMARK  status: ('A' for Active; 'I' for Inactive)
REMARK    1  A    between atoms: C_5  and  C_16
REMARK    2  A    between atoms: CB_10  and  CG_24
REMARK    3  A    between atoms: C_15  and  C_20
REMARK                            x       y       z     vdW  Elec       q    Type
REMARK                         _______ _______ _______ _____ _____    ______ ____
ROOT
ATOM      1  O   UNK A   1      30.938 -11.482 -22.004  0.00  0.00    -0.266 OA
ATOM      2  O   PHE A   2      35.297 -10.336 -24.914  0.00  0.00    -0.266 OA
ATOM      3  N   UNK A   1      33.908 -11.900 -23.987  0.00  0.00    -0.316 N 
ATOM      4  N   PHE A   2      32.327  -9.918 -22.932  0.00  0.00    -0.316 N 
ATOM      5  C   UNK A   1      32.505 -13.556 -23.049  0.00  0.00    +0.037 C 
ATOM      6  C   UNK A   1      32.809 -12.267 -23.254  0.00  0.00    +0.117 A 
ATOM      7  C   UNK A   1      31.934 -11.212 -22.670  0.00  0.00    +0.273 A 
ATOM      8  CA  PHE A   2      33.424  -9.550 -23.666  0.00  0.00    +0.116 A 
ATOM      9  C   PHE A   2      34.299 -10.605 -24.248  0.00  0.00    +0.273 A 
ATOM     10  CB  PHE A   2      33.729  -8.261 -23.870  0.00  0.00    +0.022 C 
ATOM     11  H   UNK A   1      34.464 -12.622 -24.357  0.00  0.00    +0.169 HD
ATOM     12  H   PHE A   2      31.771  -9.194 -22.562  0.00  0.00    +0.169 HD
ENDROOT
BRANCH   5  16
ATOM     13  N   UNK A   1      34.448 -16.441 -23.764  0.00  0.00    -0.319 N 
ATOM     14  N   UNK A   1      33.460 -14.804 -24.894  0.00  0.00    -0.316 N 
ATOM     15  C   UNK A   1      33.855 -15.644 -22.827  0.00  0.00    +0.035 C 
ATOM     16  C   UNK A   1      33.264 -14.658 -23.556  0.00  0.00    +0.057 C 
ATOM     17  C   UNK A   1      34.185 -15.896 -24.991  0.00  0.00    +0.181 C 
ATOM     18  H   UNK A   1      34.971 -17.257 -23.591  0.00  0.00    +0.148 HD
ATOM     19  H   UNK A   1      33.136 -14.224 -25.621  0.00  0.00    +0.148 HD
BRANCH  15  20
ATOM     20  C   UNK A   1      33.936 -15.935 -21.386  0.00  0.00    +0.032 C 
ATOM     21  C   UNK A   1      34.683 -14.810 -20.585  0.00  0.00    +0.006 C 
ATOM     22  C   UNK A   1      34.696 -17.277 -21.086  0.00  0.00    +0.006 C 
ATOM     23  C   UNK A   1      32.558 -16.095 -20.639  0.00  0.00    +0.006 C 
ENDBRANCH  15  20
ENDBRANCH   5  16
BRANCH  10  24
ATOM     24  CG  PHE A   2      32.970  -7.160 -23.364  0.00  0.00    +0.002 C 
ATOM     25  CD1 PHE A   2      32.360  -6.242 -24.238  0.00  0.00    +0.000 C 
ATOM     26  CD2 PHE A   2      32.813  -6.967 -21.979  0.00  0.00    +0.000 C 
ATOM     27  CE1 PHE A   2      31.621  -5.167 -23.744  0.00  0.00    +0.000 C 
ATOM     28  CE2 PHE A   2      32.073  -5.892 -21.485  0.00  0.00    +0.000 C 
ATOM     29  CZ  PHE A   2      31.477  -4.993 -22.368  0.00  0.00    +0.000 C 
ENDBRANCH  10  24
TORSDOF 3
ENDMDL
MODEL 2
REMARK VINA RESULT:     -10.4      2.606      8.841
REMARK  Name = 9949641
REMARK  3 active torsions:
REMARK  status: ('A' for Active; 'I' for Inactive)
REMARK    1  A    between atoms: C_5  and  C_16
REMARK    2  A    between atoms: CB_10  and  CG_24
REMARK    3  A    between atoms: C_15  and  C_20
REMARK                            x       y       z     vdW  Elec       q    Type
REMARK                         _______ _______ _______ _____ _____    ______ ____
ROOT
ATOM      1  O   UNK A   1      32.608 -15.027 -20.046  0.00  0.00    -0.266 OA
ATOM      2  O   PHE A   2      35.277 -16.493 -24.463  0.00  0.00    -0.266 OA
ATOM      3  N   UNK A   1      34.194 -14.869 -23.269  0.00  0.00    -0.316 N 
ATOM      4  N   PHE A   2      33.692 -16.650 -21.240  0.00  0.00    -0.316 N 
ATOM      5  C   UNK A   1      33.084 -13.156 -22.076  0.00  0.00    +0.037 C 
ATOM      6  C   UNK A   1      33.507 -14.424 -22.169  0.00  0.00    +0.117 A 
ATOM      7  C   UNK A   1      33.221 -15.369 -21.055  0.00  0.00    +0.273 A 
ATOM      8  CA  PHE A   2      34.381 -17.096 -22.338  0.00  0.00    +0.116 A 
ATOM      9  C   PHE A   2      34.666 -16.150 -23.453  0.00  0.00    +0.273 A 
ATOM     10  CB  PHE A   2      34.802 -18.364 -22.431  0.00  0.00    +0.022 C 
ATOM     11  H   UNK A   1      34.366 -14.218 -23.987  0.00  0.00    +0.169 HD
ATOM     12  H   PHE A   2      33.521 -17.302 -20.522  0.00  0.00    +0.169 HD
ENDROOT
BRANCH   5  16
ATOM     13  N   UNK A   1      33.250 -10.360 -24.260  0.00  0.00    -0.319 N 
ATOM     14  N   UNK A   1      34.135 -12.392 -24.123  0.00  0.00    -0.316 N 
ATOM     15  C   UNK A   1      32.733 -10.918 -23.125  0.00  0.00    +0.035 C 
ATOM     16  C   UNK A   1      33.296 -12.155 -23.078  0.00  0.00    +0.057 C 
ATOM     17  C   UNK A   1      34.085 -11.282 -24.826  0.00  0.00    +0.181 C 
ATOM     18  H   UNK A   1      33.056  -9.460 -24.609  0.00  0.00    +0.148 HD
ATOM     19  H   UNK A   1      34.656 -13.206 -24.310  0.00  0.00    +0.148 HD
BRANCH  15  20
ATOM     20  C   UNK A   1      31.787 -10.196 -22.258  0.00  0.00    +0.032 C 
ATOM     21  C   UNK A   1      30.590 -11.100 -21.790  0.00  0.00    +0.006 C 
ATOM     22  C   UNK A   1      31.151  -8.948 -22.970  0.00  0.00    +0.006 C 
ATOM     23  C   UNK A   1      32.384  -9.617 -20.921  0.00  0.00    +0.006 C 
ENDBRANCH  15  20
ENDBRANCH   5  16
BRANCH  10  24
ATOM     24  CG  PHE A   2      34.590 -19.364 -21.431  0.00  0.00    +0.002 C 
ATOM     25  CD1 PHE A   2      35.678 -19.987 -20.793  0.00  0.00    +0.000 C 
ATOM     26  CD2 PHE A   2      33.289 -19.748 -21.059  0.00  0.00    +0.000 C 
ATOM     27  CE1 PHE A   2      35.471 -20.963 -19.818  0.00  0.00    +0.000 C 
ATOM     28  CE2 PHE A   2      33.082 -20.723 -20.083  0.00  0.00    +0.000 C 
ATOM     29  CZ  PHE A   2      34.174 -21.330 -19.462  0.00  0.00    +0.000 C 
ENDBRANCH  10  24
TORSDOF 3
ENDMDL
MODEL 3
REMARK VINA RESULT:     -10.4      1.680      8.442
REMARK  Name = 9949641
REMARK  3 active torsions:
REMARK  status: ('A' for Active; 'I' for Inactive)
REMARK    1  A    between atoms: C_5  and  C_16
REMARK    2  A    between atoms: CB_10  and  CG_24
REMARK    3  A    between atoms: C_15  and  C_20
REMARK                            x       y       z     vdW  Elec       q    Type
REMARK                         _______ _______ _______ _____ _____    ______ ____
ROOT
ATOM      1  O   UNK A   1      35.034 -10.035 -24.712  0.00  0.00    -0.266 OA
ATOM      2  O   PHE A   2      31.128 -11.767 -21.467  0.00  0.00    -0.266 OA
ATOM      3  N   UNK A   1      32.358 -10.031 -22.311  0.00  0.00    -0.316 N 
ATOM      4  N   PHE A   2      33.803 -11.771 -23.869  0.00  0.00    -0.316 N 
ATOM      5  C   UNK A   1      33.600  -8.204 -23.151  0.00  0.00    +0.037 C 
ATOM      6  C   UNK A   1      33.341  -9.518 -23.117  0.00  0.00    +0.117 A 
ATOM      7  C   UNK A   1      34.140 -10.439 -23.972  0.00  0.00    +0.273 A 
ATOM      8  CA  PHE A   2      32.820 -12.285 -23.065  0.00  0.00    +0.116 A 
ATOM      9  C   PHE A   2      32.021 -11.363 -22.209  0.00  0.00    +0.273 A 
ATOM     10  CB  PHE A   2      32.561 -13.599 -23.030  0.00  0.00    +0.022 C 
ATOM     11  H   UNK A   1      31.849  -9.395 -21.759  0.00  0.00    +0.169 HD
ATOM     12  H   PHE A   2      34.312 -12.408 -24.421  0.00  0.00    +0.169 HD
ENDROOT
BRANCH   5  16
ATOM     13  N   UNK A   1      31.714  -5.549 -21.733  0.00  0.00    -0.319 N 
ATOM     14  N   UNK A   1      32.945  -7.255 -21.018  0.00  0.00    -0.316 N 
ATOM     15  C   UNK A   1      32.158  -6.188 -22.856  0.00  0.00    +0.035 C 
ATOM     16  C   UNK A   1      32.904  -7.220 -22.378  0.00  0.00    +0.057 C 
ATOM     17  C   UNK A   1      32.213  -6.225 -20.654  0.00  0.00    +0.181 C 
ATOM     18  H   UNK A   1      31.142  -4.749 -21.703  0.00  0.00    +0.148 HD
ATOM     19  H   UNK A   1      33.414  -7.900 -20.442  0.00  0.00    +0.148 HD
BRANCH  15  20
ATOM     20  C   UNK A   1      31.809  -5.725 -24.210  0.00  0.00    +0.032 C 
ATOM     21  C   UNK A   1      31.172  -4.289 -24.210  0.00  0.00    +0.006 C 
ATOM     22  C   UNK A   1      30.776  -6.671 -24.921  0.00  0.00    +0.006 C 
ATOM     23  C   UNK A   1      33.005  -5.621 -25.229  0.00  0.00    +0.006 C 
ENDBRANCH  15  20
ENDBRANCH   5  16
BRANCH  10  24
ATOM     24  CG  PHE A   2      33.257 -14.582 -23.802  0.00  0.00    +0.002 C 
ATOM     25  CD1 PHE A   2      34.230 -15.407 -23.209  0.00  0.00    +0.000 C 
ATOM     26  CD2 PHE A   2      32.985 -14.750 -25.172  0.00  0.00    +0.000 C 
ATOM     27  CE1 PHE A   2      34.909 -16.365 -23.962  0.00  0.00    +0.000 C 
ATOM     28  CE2 PHE A   2      33.664 -15.708 -25.925  0.00  0.00    +0.000 C 
ATOM     29  CZ  PHE A   2      34.626 -16.516 -25.319  0.00  0.00    +0.000 C 
ENDBRANCH  10  24
TORSDOF 3
ENDMDL
MODEL 4
REMARK VINA RESULT:      -9.7      5.351     11.092
REMARK  Name = 9949641
REMARK  3 active torsions:
REMARK  status: ('A' for Active; 'I' for Inactive)
REMARK    1  A    between atoms: C_5  and  C_16
REMARK    2  A    between atoms: CB_10  and  CG_24
REMARK    3  A    between atoms: C_15  and  C_20
REMARK                            x       y       z     vdW  Elec       q    Type
REMARK                         _______ _______ _______ _____ _____    ______ ____
ROOT
ATOM      1  O   UNK A   1      37.289 -18.993 -20.397  0.00  0.00    -0.266 OA
ATOM      2  O   PHE A   2      32.168 -20.454 -21.043  0.00  0.00    -0.266 OA
ATOM      3  N   UNK A   1      33.940 -19.161 -21.693  0.00  0.00    -0.316 N 
ATOM      4  N   PHE A   2      35.517 -20.288 -19.748  0.00  0.00    -0.316 N 
ATOM      5  C   UNK A   1      35.739 -17.800 -22.402  0.00  0.00    +0.037 C 
ATOM      6  C   UNK A   1      35.240 -18.739 -21.586  0.00  0.00    +0.117 A 
ATOM      7  C   UNK A   1      36.117 -19.333 -20.540  0.00  0.00    +0.273 A 
ATOM      8  CA  PHE A   2      34.218 -20.711 -19.855  0.00  0.00    +0.116 A 
ATOM      9  C   PHE A   2      33.341 -20.115 -20.901  0.00  0.00    +0.273 A 
ATOM     10  CB  PHE A   2      33.719 -21.649 -19.038  0.00  0.00    +0.022 C 
ATOM     11  H   UNK A   1      33.388 -18.747 -22.395  0.00  0.00    +0.169 HD
ATOM     12  H   PHE A   2      36.069 -20.703 -19.045  0.00  0.00    +0.169 HD
ENDROOT
BRANCH   5  16
ATOM     13  N   UNK A   1      33.709 -15.860 -24.577  0.00  0.00    -0.319 N 
ATOM     14  N   UNK A   1      35.088 -17.594 -24.728  0.00  0.00    -0.316 N 
ATOM     15  C   UNK A   1      34.161 -16.091 -23.308  0.00  0.00    +0.035 C 
ATOM     16  C   UNK A   1      34.998 -17.155 -23.443  0.00  0.00    +0.057 C 
ATOM     17  C   UNK A   1      34.292 -16.788 -25.395  0.00  0.00    +0.181 C 
ATOM     18  H   UNK A   1      33.079 -15.157 -24.853  0.00  0.00    +0.148 HD
ATOM     19  H   UNK A   1      35.624 -18.343 -25.077  0.00  0.00    +0.148 HD
BRANCH  15  20
ATOM     20  C   UNK A   1      33.734 -15.271 -22.163  0.00  0.00    +0.032 C 
ATOM     21  C   UNK A   1      32.671 -15.999 -21.264  0.00  0.00    +0.006 C 
ATOM     22  C   UNK A   1      33.086 -13.910 -22.606  0.00  0.00    +0.006 C 
ATOM     23  C   UNK A   1      34.871 -14.849 -21.158  0.00  0.00    +0.006 C 
ENDBRANCH  15  20
ENDBRANCH   5  16
BRANCH  10  24
ATOM     24  CG  PHE A   2      34.459 -22.294 -17.997  0.00  0.00    +0.002 C 
ATOM     25  CD1 PHE A   2      33.843 -23.235 -17.152  0.00  0.00    +0.000 C 
ATOM     26  CD2 PHE A   2      35.820 -22.003 -17.793  0.00  0.00    +0.000 C 
ATOM     27  CE1 PHE A   2      34.564 -23.863 -16.137  0.00  0.00    +0.000 C 
ATOM     28  CE2 PHE A   2      36.541 -22.632 -16.778  0.00  0.00    +0.000 C 
ATOM     29  CZ  PHE A   2      35.913 -23.562 -15.950  0.00  0.00    +0.000 C 
ENDBRANCH  10  24
TORSDOF 3
ENDMDL
MODEL 5
REMARK VINA RESULT:      -9.3      4.896      7.830
REMARK  Name = 9949641
REMARK  3 active torsions:
REMARK  status: ('A' for Active; 'I' for Inactive)
REMARK    1  A    between atoms: C_5  and  C_16
REMARK    2  A    between atoms: CB_10  and  CG_24
REMARK    3  A    between atoms: C_15  and  C_20
REMARK                            x       y       z     vdW  Elec       q    Type
REMARK                         _______ _______ _______ _____ _____    ______ ____
ROOT
ATOM      1  O   UNK A   1      34.909 -19.458 -23.885  0.00  0.00    -0.266 OA
ATOM      2  O   PHE A   2      34.968 -15.761 -19.998  0.00  0.00    -0.266 OA
ATOM      3  N   UNK A   1      35.283 -17.931 -20.651  0.00  0.00    -0.316 N 
ATOM      4  N   PHE A   2      34.596 -17.287 -23.231  0.00  0.00    -0.316 N 
ATOM      5  C   UNK A   1      35.620 -20.186 -21.275  0.00  0.00    +0.037 C 
ATOM      6  C   UNK A   1      35.290 -18.927 -21.593  0.00  0.00    +0.117 A 
ATOM      7  C   UNK A   1      34.921 -18.606 -22.999  0.00  0.00    +0.273 A 
ATOM      8  CA  PHE A   2      34.589 -16.290 -22.291  0.00  0.00    +0.116 A 
ATOM      9  C   PHE A   2      34.957 -16.613 -20.884  0.00  0.00    +0.273 A 
ATOM     10  CB  PHE A   2      34.258 -15.031 -22.609  0.00  0.00    +0.022 C 
ATOM     11  H   UNK A   1      35.531 -18.178 -19.732  0.00  0.00    +0.169 HD
ATOM     12  H   PHE A   2      34.347 -17.039 -24.151  0.00  0.00    +0.169 HD
ENDROOT
BRANCH   5  16
ATOM     13  N   UNK A   1      36.059 -21.553 -18.027  0.00  0.00    -0.319 N 
ATOM     14  N   UNK A   1      37.153 -20.189 -19.397  0.00  0.00    -0.316 N 
ATOM     15  C   UNK A   1      35.292 -21.459 -19.153  0.00  0.00    +0.035 C 
ATOM     16  C   UNK A   1      35.992 -20.619 -19.962  0.00  0.00    +0.057 C 
ATOM     17  C   UNK A   1      37.166 -20.773 -18.219  0.00  0.00    +0.181 C 
ATOM     18  H   UNK A   1      35.854 -22.083 -17.223  0.00  0.00    +0.148 HD
ATOM     19  H   UNK A   1      37.826 -19.581 -19.780  0.00  0.00    +0.148 HD
BRANCH  15  20
ATOM     20  C   UNK A   1      34.014 -22.177 -19.292  0.00  0.00    +0.032 C 
ATOM     21  C   UNK A   1      34.145 -23.475 -20.167  0.00  0.00    +0.006 C 
ATOM     22  C   UNK A   1      32.900 -21.296 -19.964  0.00  0.00    +0.006 C 
ATOM     23  C   UNK A   1      33.357 -22.676 -17.951  0.00  0.00    +0.006 C 
ENDBRANCH  15  20
ENDBRANCH   5  16
BRANCH  10  24
ATOM     24  CG  PHE A   2      33.886 -14.599 -23.920  0.00  0.00    +0.002 C 
ATOM     25  CD1 PHE A   2      33.819 -13.229 -24.235  0.00  0.00    +0.000 C 
ATOM     26  CD2 PHE A   2      33.580 -15.531 -24.928  0.00  0.00    +0.000 C 
ATOM     27  CE1 PHE A   2      33.456 -12.807 -25.514  0.00  0.00    +0.000 C 
ATOM     28  CE2 PHE A   2      33.217 -15.109 -26.207  0.00  0.00    +0.000 C 
ATOM     29  CZ  PHE A   2      33.155 -13.746 -26.500  0.00  0.00    +0.000 C 
ENDBRANCH  10  24
TORSDOF 3
ENDMDL
MODEL 6
REMARK VINA RESULT:      -9.0      5.862     11.425
REMARK  Name = 9949641
REMARK  3 active torsions:
REMARK  status: ('A' for Active; 'I' for Inactive)
REMARK    1  A    between atoms: C_5  and  C_16
REMARK    2  A    between atoms: CB_10  and  CG_24
REMARK    3  A    between atoms: C_15  and  C_20
REMARK                            x       y       z     vdW  Elec       q    Type
REMARK                         _______ _______ _______ _____ _____    ______ ____
ROOT
ATOM      1  O   UNK A   1      32.517 -20.626 -20.055  0.00  0.00    -0.266 OA
ATOM      2  O   PHE A   2      37.827 -19.901 -20.283  0.00  0.00    -0.266 OA
ATOM      3  N   UNK A   1      35.747 -19.474 -21.135  0.00  0.00    -0.316 N 
ATOM      4  N   PHE A   2      34.598 -21.052 -19.203  0.00  0.00    -0.316 N 
ATOM      5  C   UNK A   1      33.621 -19.004 -22.054  0.00  0.00    +0.037 C 
ATOM      6  C   UNK A   1      34.383 -19.614 -21.137  0.00  0.00    +0.117 A 
ATOM      7  C   UNK A   1      33.734 -20.464 -20.101  0.00  0.00    +0.273 A 
ATOM      8  CA  PHE A   2      35.961 -20.912 -19.199  0.00  0.00    +0.116 A 
ATOM      9  C   PHE A   2      36.610 -20.062 -20.236  0.00  0.00    +0.273 A 
ATOM     10  CB  PHE A   2      36.723 -21.523 -18.282  0.00  0.00    +0.022 C 
ATOM     11  H   UNK A   1      36.143 -18.906 -21.834  0.00  0.00    +0.169 HD
ATOM     12  H   PHE A   2      34.202 -21.621 -18.503  0.00  0.00    +0.169 HD
ENDROOT
BRANCH   5  16
ATOM     13  N   UNK A   1      34.791 -16.495 -24.280  0.00  0.00    -0.319 N 
ATOM     14  N   UNK A   1      34.499 -18.697 -24.293  0.00  0.00    -0.316 N 
ATOM     15  C   UNK A   1      34.289 -16.814 -23.050  0.00  0.00    +0.035 C 
ATOM     16  C   UNK A   1      34.125 -18.164 -23.098  0.00  0.00    +0.057 C 
ATOM     17  C   UNK A   1      34.899 -17.657 -24.992  0.00  0.00    +0.181 C 
ATOM     18  H   UNK A   1      35.030 -15.595 -24.597  0.00  0.00    +0.148 HD
ATOM     19  H   UNK A   1      34.475 -19.641 -24.570  0.00  0.00    +0.148 HD
BRANCH  15  20
ATOM     20  C   UNK A   1      34.041 -15.795 -22.017  0.00  0.00    +0.032 C 
ATOM     21  C   UNK A   1      34.374 -14.342 -22.511  0.00  0.00    +0.006 C 
ATOM     22  C   UNK A   1      34.896 -16.032 -20.720  0.00  0.00    +0.006 C 
ATOM     23  C   UNK A   1      32.559 -15.697 -21.490  0.00  0.00    +0.006 C 
ENDBRANCH  15  20
ENDBRANCH   5  16
BRANCH  10  24
ATOM     24  CG  PHE A   2      36.220 -22.363 -17.239  0.00  0.00    +0.002 C 
ATOM     25  CD1 PHE A   2      37.056 -22.790 -16.192  0.00  0.00    +0.000 C 
ATOM     26  CD2 PHE A   2      34.877 -22.780 -17.234  0.00  0.00    +0.000 C 
ATOM     27  CE1 PHE A   2      36.565 -23.610 -15.175  0.00  0.00    +0.000 C 
ATOM     28  CE2 PHE A   2      34.386 -23.599 -16.217  0.00  0.00    +0.000 C 
ATOM     29  CZ  PHE A   2      35.231 -24.014 -15.187  0.00  0.00    +0.000 C 
ENDBRANCH  10  24
TORSDOF 3
ENDMDL
MODEL 7
REMARK VINA RESULT:      -9.0      7.831     11.275
REMARK  Name = 9949641
REMARK  3 active torsions:
REMARK  status: ('A' for Active; 'I' for Inactive)
REMARK    1  A    between atoms: C_5  and  C_16
REMARK    2  A    between atoms: CB_10  and  CG_24
REMARK    3  A    between atoms: C_15  and  C_20
REMARK                            x       y       z     vdW  Elec       q    Type
REMARK                         _______ _______ _______ _____ _____    ______ ____
ROOT
ATOM      1  O   UNK A   1      32.317 -21.572 -20.261  0.00  0.00    -0.266 OA
ATOM      2  O   PHE A   2      37.373 -20.170 -19.144  0.00  0.00    -0.266 OA
ATOM      3  N   UNK A   1      35.493 -21.351 -18.591  0.00  0.00    -0.316 N 
ATOM      4  N   PHE A   2      34.198 -20.392 -20.815  0.00  0.00    -0.316 N 
ATOM      5  C   UNK A   1      33.575 -22.589 -17.974  0.00  0.00    +0.037 C 
ATOM      6  C   UNK A   1      34.201 -21.752 -18.814  0.00  0.00    +0.117 A 
ATOM      7  C   UNK A   1      33.475 -21.247 -20.011  0.00  0.00    +0.273 A 
ATOM      8  CA  PHE A   2      35.489 -19.991 -20.594  0.00  0.00    +0.116 A 
ATOM      9  C   PHE A   2      36.214 -20.496 -19.395  0.00  0.00    +0.273 A 
ATOM     10  CB  PHE A   2      36.114 -19.154 -21.433  0.00  0.00    +0.022 C 
ATOM     11  H   UNK A   1      35.942 -21.703 -17.790  0.00  0.00    +0.169 HD
ATOM     12  H   PHE A   2      33.748 -20.039 -21.617  0.00  0.00    +0.169 HD
ENDROOT
BRANCH   5  16
ATOM     13  N   UNK A   1      34.506 -23.996 -14.849  0.00  0.00    -0.319 N 
ATOM     14  N   UNK A   1      35.514 -23.291 -16.699  0.00  0.00    -0.316 N 
ATOM     15  C   UNK A   1      33.509 -23.563 -15.676  0.00  0.00    +0.035 C 
ATOM     16  C   UNK A   1      34.164 -23.141 -16.792  0.00  0.00    +0.057 C 
ATOM     17  C   UNK A   1      35.692 -23.812 -15.505  0.00  0.00    +0.181 C 
ATOM     18  H   UNK A   1      34.393 -24.371 -13.946  0.00  0.00    +0.148 HD
ATOM     19  H   UNK A   1      36.197 -23.061 -17.369  0.00  0.00    +0.148 HD
BRANCH  15  20
ATOM     20  C   UNK A   1      32.090 -23.614 -15.287  0.00  0.00    +0.032 C 
ATOM     21  C   UNK A   1      31.676 -22.416 -14.361  0.00  0.00    +0.006 C 
ATOM     22  C   UNK A   1      31.728 -24.928 -14.506  0.00  0.00    +0.006 C 
ATOM     23  C   UNK A   1      31.052 -23.568 -16.471  0.00  0.00    +0.006 C 
ENDBRANCH  15  20
ENDBRANCH   5  16
BRANCH  10  24
ATOM     24  CG  PHE A   2      35.526 -18.602 -22.614  0.00  0.00    +0.002 C 
ATOM     25  CD1 PHE A   2      35.083 -19.436 -23.655  0.00  0.00    +0.000 C 
ATOM     26  CD2 PHE A   2      35.375 -17.211 -22.763  0.00  0.00    +0.000 C 
ATOM     27  CE1 PHE A   2      34.509 -18.898 -24.808  0.00  0.00    +0.000 C 
ATOM     28  CE2 PHE A   2      34.802 -16.672 -23.915  0.00  0.00    +0.000 C 
ATOM     29  CZ  PHE A   2      34.368 -17.517 -24.937  0.00  0.00    +0.000 C 
ENDBRANCH  10  24
TORSDOF 3
ENDMDL
MODEL 8
REMARK VINA RESULT:      -8.6      2.467      8.412
REMARK  Name = 9949641
REMARK  3 active torsions:
REMARK  status: ('A' for Active; 'I' for Inactive)
REMARK    1  A    between atoms: C_5  and  C_16
REMARK    2  A    between atoms: CB_10  and  CG_24
REMARK    3  A    between atoms: C_15  and  C_20
REMARK                            x       y       z     vdW  Elec       q    Type
REMARK                         _______ _______ _______ _____ _____    ______ ____
ROOT
ATOM      1  O   UNK A   1      31.893 -13.740 -24.350  0.00  0.00    -0.266 OA
ATOM      2  O   PHE A   2      34.709 -14.734 -19.893  0.00  0.00    -0.266 OA
ATOM      3  N   UNK A   1      33.311 -13.355 -21.068  0.00  0.00    -0.316 N 
ATOM      4  N   PHE A   2      33.291 -15.119 -23.174  0.00  0.00    -0.316 N 
ATOM      5  C   UNK A   1      31.869 -11.895 -22.241  0.00  0.00    +0.037 C 
ATOM      6  C   UNK A   1      32.569 -13.036 -22.176  0.00  0.00    +0.117 A 
ATOM      7  C   UNK A   1      32.540 -13.974 -23.331  0.00  0.00    +0.273 A 
ATOM      8  CA  PHE A   2      34.032 -15.440 -22.067  0.00  0.00    +0.116 A 
ATOM      9  C   PHE A   2      34.061 -14.500 -20.911  0.00  0.00    +0.273 A 
ATOM     10  CB  PHE A   2      34.733 -16.580 -22.002  0.00  0.00    +0.022 C 
ATOM     11  H   UNK A   1      33.308 -12.713 -20.323  0.00  0.00    +0.169 HD
ATOM     12  H   PHE A   2      33.294 -15.762 -23.919  0.00  0.00    +0.169 HD
ENDROOT
BRANCH   5  16
ATOM     13  N   UNK A   1      31.893  -9.097 -20.055  0.00  0.00    -0.319 N 
ATOM     14  N   UNK A   1      31.474 -11.274 -19.932  0.00  0.00    -0.316 N 
ATOM     15  C   UNK A   1      32.081  -9.586 -21.317  0.00  0.00    +0.035 C 
ATOM     16  C   UNK A   1      31.816 -10.915 -21.199  0.00  0.00    +0.057 C 
ATOM     17  C   UNK A   1      31.531 -10.146 -19.258  0.00  0.00    +0.181 C 
ATOM     18  H   UNK A   1      32.000  -8.160 -19.771  0.00  0.00    +0.148 HD
ATOM     19  H   UNK A   1      31.239 -12.169 -19.597  0.00  0.00    +0.148 HD
BRANCH  15  20
ATOM     20  C   UNK A   1      32.481  -8.724 -22.441  0.00  0.00    +0.032 C 
ATOM     21  C   UNK A   1      33.071  -7.348 -21.964  0.00  0.00    +0.006 C 
ATOM     22  C   UNK A   1      31.282  -8.388 -23.398  0.00  0.00    +0.006 C 
ATOM     23  C   UNK A   1      33.587  -9.311 -23.397  0.00  0.00    +0.006 C 
ENDBRANCH  15  20
ENDBRANCH   5  16
BRANCH  10  24
ATOM     24  CG  PHE A   2      34.786 -17.559 -23.043  0.00  0.00    +0.002 C 
ATOM     25  CD1 PHE A   2      34.606 -17.190 -24.388  0.00  0.00    +0.000 C 
ATOM     26  CD2 PHE A   2      35.020 -18.914 -22.748  0.00  0.00    +0.000 C 
ATOM     27  CE1 PHE A   2      34.656 -18.145 -25.404  0.00  0.00    +0.000 C 
ATOM     28  CE2 PHE A   2      35.071 -19.869 -23.764  0.00  0.00    +0.000 C 
ATOM     29  CZ  PHE A   2      34.889 -19.484 -25.092  0.00  0.00    +0.000 C 
ENDBRANCH  10  24
TORSDOF 3
ENDMDL
MODEL 9
REMARK VINA RESULT:      -8.5      2.941      9.005
REMARK  Name = 9949641
REMARK  3 active torsions:
REMARK  status: ('A' for Active; 'I' for Inactive)
REMARK    1  A    between atoms: C_5  and  C_16
REMARK    2  A    between atoms: CB_10  and  CG_24
REMARK    3  A    between atoms: C_15  and  C_20
REMARK                            x       y       z     vdW  Elec       q    Type
REMARK                         _______ _______ _______ _____ _____    ______ ____
ROOT
ATOM      1  O   UNK A   1      33.473 -15.127 -21.131  0.00  0.00    -0.266 OA
ATOM      2  O   PHE A   2      34.787 -17.994 -25.470  0.00  0.00    -0.266 OA
ATOM      3  N   UNK A   1      34.146 -15.998 -24.553  0.00  0.00    -0.316 N 
ATOM      4  N   PHE A   2      34.115 -17.122 -22.048  0.00  0.00    -0.316 N 
ATOM      5  C   UNK A   1      33.482 -13.914 -23.656  0.00  0.00    +0.037 C 
ATOM      6  C   UNK A   1      33.800 -15.205 -23.490  0.00  0.00    +0.117 A 
ATOM      7  C   UNK A   1      33.775 -15.789 -22.120  0.00  0.00    +0.273 A 
ATOM      8  CA  PHE A   2      34.461 -17.916 -23.110  0.00  0.00    +0.116 A 
ATOM      9  C   PHE A   2      34.485 -17.331 -24.480  0.00  0.00    +0.273 A 
ATOM     10  CB  PHE A   2      34.778 -19.207 -22.944  0.00  0.00    +0.022 C 
ATOM     11  H   UNK A   1      34.152 -15.580 -25.444  0.00  0.00    +0.169 HD
ATOM     12  H   PHE A   2      34.109 -17.541 -21.157  0.00  0.00    +0.169 HD
ENDROOT
BRANCH   5  16
ATOM     13  N   UNK A   1      33.484 -11.764 -26.483  0.00  0.00    -0.319 N 
ATOM     14  N   UNK A   1      33.391 -13.945 -26.078  0.00  0.00    -0.316 N 
ATOM     15  C   UNK A   1      33.529 -11.895 -25.124  0.00  0.00    +0.035 C 
ATOM     16  C   UNK A   1      33.469 -13.238 -24.918  0.00  0.00    +0.057 C 
ATOM     17  C   UNK A   1      33.401 -13.021 -27.013  0.00  0.00    +0.181 C 
ATOM     18  H   UNK A   1      33.507 -10.920 -26.988  0.00  0.00    +0.148 HD
ATOM     19  H   UNK A   1      33.338 -14.922 -26.191  0.00  0.00    +0.148 HD
BRANCH  15  20
ATOM     20  C   UNK A   1      33.621 -10.731 -24.226  0.00  0.00    +0.032 C 
ATOM     21  C   UNK A   1      35.048 -10.075 -24.236  0.00  0.00    +0.006 C 
ATOM     22  C   UNK A   1      33.309 -11.098 -22.731  0.00  0.00    +0.006 C 
ATOM     23  C   UNK A   1      32.642  -9.539 -24.545  0.00  0.00    +0.006 C 
ENDBRANCH  15  20
ENDBRANCH   5  16
BRANCH  10  24
ATOM     24  CG  PHE A   2      34.791 -19.882 -21.683  0.00  0.00    +0.002 C 
ATOM     25  CD1 PHE A   2      36.006 -20.209 -21.053  0.00  0.00    +0.000 C 
ATOM     26  CD2 PHE A   2      33.590 -20.235 -21.041  0.00  0.00    +0.000 C 
ATOM     27  CE1 PHE A   2      36.018 -20.868 -19.824  0.00  0.00    +0.000 C 
ATOM     28  CE2 PHE A   2      33.602 -20.893 -19.811  0.00  0.00    +0.000 C 
ATOM     29  CZ  PHE A   2      34.817 -21.209 -19.202  0.00  0.00    +0.000 C 
ENDBRANCH  10  24
TORSDOF 3
ENDMDL
