MODEL 1
REMARK VINA RESULT:      -8.7      0.000      0.000
REMARK  Name = 1549789
REMARK  7 active torsions:
REMARK  status: ('A' for Active; 'I' for Inactive)
REMARK    1  A    between atoms: C_1  and  C_12
REMARK    2  A    between atoms: C_2  and  C_3
REMARK    3  A    between atoms: C_6  and  O_9
REMARK    4  A    between atoms: C_12  and  O_13
REMARK    5  A    between atoms: O_13  and  C_14
REMARK    6  A    between atoms: C_14  and  C_15
REMARK    7  A    between atoms: C_15  and  C_16
REMARK                            x       y       z     vdW  Elec       q    Type
REMARK                         _______ _______ _______ _____ _____    ______ ____
ROOT
ATOM      1  C   UNL     1      34.774 -18.953 -23.425  0.00  0.00    +0.082 C 
ATOM      2  C   UNL     1      34.655 -18.730 -22.109  0.00  0.00    +0.007 C 
ENDROOT
BRANCH   2   3
ATOM      3  C   UNL     1      34.641 -19.785 -21.080  0.00  0.00    +0.000 C 
ATOM      4  C   UNL     1      35.842 -20.311 -20.633  0.00  0.00    +0.003 C 
ATOM      5  C   UNL     1      33.427 -20.230 -20.581  0.00  0.00    +0.003 C 
ATOM      6  C   UNL     1      34.614 -21.768 -19.146  0.00  0.00    +0.139 C 
ATOM      7  C   UNL     1      35.828 -21.311 -19.659  0.00  0.00    +0.037 C 
ATOM      8  C   UNL     1      33.414 -21.228 -19.607  0.00  0.00    +0.037 C 
BRANCH   6   9
ATOM      9  O   UNL     1      34.602 -22.743 -18.196  0.00  0.00    -0.471 OA
ATOM     10  C   UNL     1      33.327 -23.162 -17.712  0.00  0.00    +0.252 C 
ENDBRANCH   6   9
ENDBRANCH   2   3
BRANCH   1  12
ATOM     11  O   UNL     1      34.527 -17.873 -25.560  0.00  0.00    -0.245 OA
ATOM     12  C   UNL     1      34.764 -17.808 -24.363  0.00  0.00    +0.341 C 
BRANCH  12  13
ATOM     13  O   UNL     1      35.060 -16.680 -23.654  0.00  0.00    -0.445 OA
BRANCH  13  14
ATOM     14  C   UNL     1      34.254 -15.542 -23.935  0.00  0.00    +0.209 C 
BRANCH  14  15
ATOM     15  C   UNL     1      34.357 -14.571 -22.765  0.00  0.00    +0.047 C 
BRANCH  15  16
ATOM     16  C   UNL     1      33.555 -15.007 -21.527  0.00  0.00    +0.004 C 
ATOM     17  C   UNL     1      34.512 -15.446 -20.417  0.00  0.00    +0.000 C 
ATOM     18  C   UNL     1      32.635 -13.901 -21.010  0.00  0.00    +0.000 C 
ENDBRANCH  15  16
ENDBRANCH  14  15
ENDBRANCH  13  14
ENDBRANCH  12  13
ENDBRANCH   1  12
TORSDOF 7
ENDMDL
MODEL 2
REMARK VINA RESULT:      -8.7      0.170      1.151
REMARK  Name = 1549789
REMARK  7 active torsions:
REMARK  status: ('A' for Active; 'I' for Inactive)
REMARK    1  A    between atoms: C_1  and  C_12
REMARK    2  A    between atoms: C_2  and  C_3
REMARK    3  A    between atoms: C_6  and  O_9
REMARK    4  A    between atoms: C_12  and  O_13
REMARK    5  A    between atoms: O_13  and  C_14
REMARK    6  A    between atoms: C_14  and  C_15
REMARK    7  A    between atoms: C_15  and  C_16
REMARK                            x       y       z     vdW  Elec       q    Type
REMARK                         _______ _______ _______ _____ _____    ______ ____
ROOT
ATOM      1  C   UNL     1      34.955 -18.847 -23.431  0.00  0.00    +0.082 C 
ATOM      2  C   UNL     1      34.336 -18.768 -22.245  0.00  0.00    +0.007 C 
ENDROOT
BRANCH   2   3
ATOM      3  C   UNL     1      34.411 -19.796 -21.192  0.00  0.00    +0.000 C 
ATOM      4  C   UNL     1      33.240 -20.287 -20.638  0.00  0.00    +0.003 C 
ATOM      5  C   UNL     1      35.653 -20.251 -20.776  0.00  0.00    +0.003 C 
ATOM      6  C   UNL     1      34.554 -21.728 -19.211  0.00  0.00    +0.139 C 
ATOM      7  C   UNL     1      33.313 -21.259 -19.640  0.00  0.00    +0.037 C 
ATOM      8  C   UNL     1      35.724 -21.223 -19.779  0.00  0.00    +0.037 C 
BRANCH   6   9
ATOM      9  O   UNL     1      34.623 -22.676 -18.237  0.00  0.00    -0.471 OA
ATOM     10  C   UNL     1      33.387 -23.150 -17.704  0.00  0.00    +0.252 C 
ENDBRANCH   6   9
ENDBRANCH   2   3
BRANCH   1  12
ATOM     11  O   UNL     1      34.394 -17.880 -25.561  0.00  0.00    -0.245 OA
ATOM     12  C   UNL     1      34.792 -17.751 -24.413  0.00  0.00    +0.341 C 
BRANCH  12  13
ATOM     13  O   UNL     1      35.163 -16.585 -23.808  0.00  0.00    -0.445 OA
BRANCH  13  14
ATOM     14  C   UNL     1      34.257 -15.498 -23.952  0.00  0.00    +0.209 C 
BRANCH  14  15
ATOM     15  C   UNL     1      34.375 -14.600 -22.727  0.00  0.00    +0.047 C 
BRANCH  15  16
ATOM     16  C   UNL     1      33.583 -15.106 -21.510  0.00  0.00    +0.004 C 
ATOM     17  C   UNL     1      34.550 -15.552 -20.411  0.00  0.00    +0.000 C 
ATOM     18  C   UNL     1      32.624 -14.050 -20.959  0.00  0.00    +0.000 C 
ENDBRANCH  15  16
ENDBRANCH  14  15
ENDBRANCH  13  14
ENDBRANCH  12  13
ENDBRANCH   1  12
TORSDOF 7
ENDMDL
MODEL 3
REMARK VINA RESULT:      -8.0      1.606      2.753
REMARK  Name = 1549789
REMARK  7 active torsions:
REMARK  status: ('A' for Active; 'I' for Inactive)
REMARK    1  A    between atoms: C_1  and  C_12
REMARK    2  A    between atoms: C_2  and  C_3
REMARK    3  A    between atoms: C_6  and  O_9
REMARK    4  A    between atoms: C_12  and  O_13
REMARK    5  A    between atoms: O_13  and  C_14
REMARK    6  A    between atoms: C_14  and  C_15
REMARK    7  A    between atoms: C_15  and  C_16
REMARK                            x       y       z     vdW  Elec       q    Type
REMARK                         _______ _______ _______ _____ _____    ______ ____
ROOT
ATOM      1  C   UNL     1      34.225 -16.870 -21.328  0.00  0.00    +0.082 C 
ATOM      2  C   UNL     1      34.276 -18.113 -21.825  0.00  0.00    +0.007 C 
ENDROOT
BRANCH   2   3
ATOM      3  C   UNL     1      34.393 -19.335 -21.012  0.00  0.00    +0.000 C 
ATOM      4  C   UNL     1      33.242 -19.972 -20.575  0.00  0.00    +0.003 C 
ATOM      5  C   UNL     1      35.652 -19.824 -20.698  0.00  0.00    +0.003 C 
ATOM      6  C   UNL     1      34.613 -21.634 -19.480  0.00  0.00    +0.139 C 
ATOM      7  C   UNL     1      33.354 -21.129 -19.803  0.00  0.00    +0.037 C 
ATOM      8  C   UNL     1      35.761 -20.982 -19.927  0.00  0.00    +0.037 C 
BRANCH   6   9
ATOM      9  O   UNL     1      34.720 -22.763 -18.727  0.00  0.00    -0.471 OA
ATOM     10  C   UNL     1      33.644 -23.052 -17.835  0.00  0.00    +0.252 C 
ENDBRANCH   6   9
ENDBRANCH   2   3
BRANCH   1  12
ATOM     11  O   UNL     1      35.016 -15.296 -22.966  0.00  0.00    -0.245 OA
ATOM     12  C   UNL     1      34.119 -15.718 -22.252  0.00  0.00    +0.341 C 
BRANCH  12  13
ATOM     13  O   UNL     1      32.851 -15.222 -22.163  0.00  0.00    -0.445 OA
BRANCH  13  14
ATOM     14  C   UNL     1      32.723 -13.815 -22.333  0.00  0.00    +0.209 C 
BRANCH  14  15
ATOM     15  C   UNL     1      32.293 -13.201 -21.007  0.00  0.00    +0.047 C 
BRANCH  15  16
ATOM     16  C   UNL     1      31.412 -11.949 -21.162  0.00  0.00    +0.004 C 
ATOM     17  C   UNL     1      31.351 -11.191 -19.834  0.00  0.00    +0.000 C 
ATOM     18  C   UNL     1      31.911 -11.018 -22.267  0.00  0.00    +0.000 C 
ENDBRANCH  15  16
ENDBRANCH  14  15
ENDBRANCH  13  14
ENDBRANCH  12  13
ENDBRANCH   1  12
TORSDOF 7
ENDMDL
MODEL 4
REMARK VINA RESULT:      -7.9      1.309      2.338
REMARK  Name = 1549789
REMARK  7 active torsions:
REMARK  status: ('A' for Active; 'I' for Inactive)
REMARK    1  A    between atoms: C_1  and  C_12
REMARK    2  A    between atoms: C_2  and  C_3
REMARK    3  A    between atoms: C_6  and  O_9
REMARK    4  A    between atoms: C_12  and  O_13
REMARK    5  A    between atoms: O_13  and  C_14
REMARK    6  A    between atoms: C_14  and  C_15
REMARK    7  A    between atoms: C_15  and  C_16
REMARK                            x       y       z     vdW  Elec       q    Type
REMARK                         _______ _______ _______ _____ _____    ______ ____
ROOT
ATOM      1  C   UNL     1      35.211 -18.496 -23.131  0.00  0.00    +0.082 C 
ATOM      2  C   UNL     1      34.282 -18.779 -22.208  0.00  0.00    +0.007 C 
ENDROOT
BRANCH   2   3
ATOM      3  C   UNL     1      34.431 -19.799 -21.156  0.00  0.00    +0.000 C 
ATOM      4  C   UNL     1      33.299 -20.309 -20.540  0.00  0.00    +0.003 C 
ATOM      5  C   UNL     1      35.701 -20.228 -20.802  0.00  0.00    +0.003 C 
ATOM      6  C   UNL     1      34.712 -21.717 -19.176  0.00  0.00    +0.139 C 
ATOM      7  C   UNL     1      33.442 -21.274 -19.542  0.00  0.00    +0.037 C 
ATOM      8  C   UNL     1      35.841 -21.194 -19.806  0.00  0.00    +0.037 C 
BRANCH   6   9
ATOM      9  O   UNL     1      34.850 -22.658 -18.202  0.00  0.00    -0.471 OA
ATOM     10  C   UNL     1      33.654 -23.126 -17.579  0.00  0.00    +0.252 C 
ENDBRANCH   6   9
ENDBRANCH   2   3
BRANCH   1  12
ATOM     11  O   UNL     1      34.761 -17.654 -25.338  0.00  0.00    -0.245 OA
ATOM     12  C   UNL     1      34.938 -17.454 -24.146  0.00  0.00    +0.341 C 
BRANCH  12  13
ATOM     13  O   UNL     1      34.918 -16.245 -23.514  0.00  0.00    -0.445 OA
BRANCH  13  14
ATOM     14  C   UNL     1      33.740 -15.470 -23.697  0.00  0.00    +0.209 C 
BRANCH  14  15
ATOM     15  C   UNL     1      34.120 -13.994 -23.680  0.00  0.00    +0.047 C 
BRANCH  15  16
ATOM     16  C   UNL     1      33.304 -13.134 -24.660  0.00  0.00    +0.004 C 
ATOM     17  C   UNL     1      34.053 -11.832 -24.955  0.00  0.00    +0.000 C 
ATOM     18  C   UNL     1      33.006 -13.866 -25.969  0.00  0.00    +0.000 C 
ENDBRANCH  15  16
ENDBRANCH  14  15
ENDBRANCH  13  14
ENDBRANCH  12  13
ENDBRANCH   1  12
TORSDOF 7
ENDMDL
MODEL 5
REMARK VINA RESULT:      -7.9      1.516      2.324
REMARK  Name = 1549789
REMARK  7 active torsions:
REMARK  status: ('A' for Active; 'I' for Inactive)
REMARK    1  A    between atoms: C_1  and  C_12
REMARK    2  A    between atoms: C_2  and  C_3
REMARK    3  A    between atoms: C_6  and  O_9
REMARK    4  A    between atoms: C_12  and  O_13
REMARK    5  A    between atoms: O_13  and  C_14
REMARK    6  A    between atoms: C_14  and  C_15
REMARK    7  A    between atoms: C_15  and  C_16
REMARK                            x       y       z     vdW  Elec       q    Type
REMARK                         _______ _______ _______ _____ _____    ______ ____
ROOT
ATOM      1  C   UNL     1      34.305 -17.425 -21.502  0.00  0.00    +0.082 C 
ATOM      2  C   UNL     1      35.179 -18.434 -21.381  0.00  0.00    +0.007 C 
ENDROOT
BRANCH   2   3
ATOM      3  C   UNL     1      34.902 -19.700 -20.681  0.00  0.00    +0.000 C 
ATOM      4  C   UNL     1      35.960 -20.497 -20.276  0.00  0.00    +0.003 C 
ATOM      5  C   UNL     1      33.587 -20.070 -20.442  0.00  0.00    +0.003 C 
ATOM      6  C   UNL     1      34.380 -22.083 -19.366  0.00  0.00    +0.139 C 
ATOM      7  C   UNL     1      35.697 -21.697 -19.614  0.00  0.00    +0.037 C 
ATOM      8  C   UNL     1      33.326 -21.269 -19.780  0.00  0.00    +0.037 C 
BRANCH   6   9
ATOM      9  O   UNL     1      34.125 -23.253 -18.720  0.00  0.00    -0.471 OA
ATOM     10  C   UNL     1      33.307 -23.185 -17.552  0.00  0.00    +0.252 C 
ENDBRANCH   6   9
ENDBRANCH   2   3
BRANCH   1  12
ATOM     11  O   UNL     1      35.472 -16.148 -23.173  0.00  0.00    -0.245 OA
ATOM     12  C   UNL     1      34.707 -16.195 -22.222  0.00  0.00    +0.341 C 
BRANCH  12  13
ATOM     13  O   UNL     1      34.072 -15.138 -21.636  0.00  0.00    -0.445 OA
BRANCH  13  14
ATOM     14  C   UNL     1      32.867 -14.715 -22.262  0.00  0.00    +0.209 C 
BRANCH  14  15
ATOM     15  C   UNL     1      33.047 -13.282 -22.749  0.00  0.00    +0.047 C 
BRANCH  15  16
ATOM     16  C   UNL     1      33.754 -13.176 -24.110  0.00  0.00    +0.004 C 
ATOM     17  C   UNL     1      33.059 -14.081 -25.129  0.00  0.00    +0.000 C 
ATOM     18  C   UNL     1      33.793 -11.740 -24.635  0.00  0.00    +0.000 C 
ENDBRANCH  15  16
ENDBRANCH  14  15
ENDBRANCH  13  14
ENDBRANCH  12  13
ENDBRANCH   1  12
TORSDOF 7
ENDMDL
MODEL 6
REMARK VINA RESULT:      -7.8      1.972      7.717
REMARK  Name = 1549789
REMARK  7 active torsions:
REMARK  status: ('A' for Active; 'I' for Inactive)
REMARK    1  A    between atoms: C_1  and  C_12
REMARK    2  A    between atoms: C_2  and  C_3
REMARK    3  A    between atoms: C_6  and  O_9
REMARK    4  A    between atoms: C_12  and  O_13
REMARK    5  A    between atoms: O_13  and  C_14
REMARK    6  A    between atoms: C_14  and  C_15
REMARK    7  A    between atoms: C_15  and  C_16
REMARK                            x       y       z     vdW  Elec       q    Type
REMARK                         _______ _______ _______ _____ _____    ______ ____
ROOT
ATOM      1  C   UNL     1      33.669 -20.793 -20.079  0.00  0.00    +0.082 C 
ATOM      2  C   UNL     1      34.769 -20.351 -20.705  0.00  0.00    +0.007 C 
ENDROOT
BRANCH   2   3
ATOM      3  C   UNL     1      34.819 -19.158 -21.567  0.00  0.00    +0.000 C 
ATOM      4  C   UNL     1      34.863 -17.902 -20.984  0.00  0.00    +0.003 C 
ATOM      5  C   UNL     1      34.820 -19.315 -22.944  0.00  0.00    +0.003 C 
ATOM      6  C   UNL     1      34.912 -16.913 -23.188  0.00  0.00    +0.139 C 
ATOM      7  C   UNL     1      34.909 -16.771 -21.801  0.00  0.00    +0.037 C 
ATOM      8  C   UNL     1      34.867 -18.184 -23.760  0.00  0.00    +0.037 C 
BRANCH   6   9
ATOM      9  O   UNL     1      34.956 -15.809 -23.984  0.00  0.00    -0.471 OA
ATOM     10  C   UNL     1      33.779 -15.004 -24.045  0.00  0.00    +0.252 C 
ENDBRANCH   6   9
ENDBRANCH   2   3
BRANCH   1  12
ATOM     11  O   UNL     1      34.704 -22.767 -19.177  0.00  0.00    -0.245 OA
ATOM     12  C   UNL     1      33.744 -22.015 -19.247  0.00  0.00    +0.341 C 
BRANCH  12  13
ATOM     13  O   UNL     1      32.561 -22.144 -18.580  0.00  0.00    -0.445 OA
BRANCH  13  14
ATOM     14  C   UNL     1      32.608 -22.898 -17.375  0.00  0.00    +0.209 C 
BRANCH  14  15
ATOM     15  C   UNL     1      31.227 -22.876 -16.732  0.00  0.00    +0.047 C 
BRANCH  15  16
ATOM     16  C   UNL     1      31.143 -23.674 -15.419  0.00  0.00    +0.004 C 
ATOM     17  C   UNL     1      31.747 -22.856 -14.275  0.00  0.00    +0.000 C 
ATOM     18  C   UNL     1      29.709 -24.071 -15.070  0.00  0.00    +0.000 C 
ENDBRANCH  15  16
ENDBRANCH  14  15
ENDBRANCH  13  14
ENDBRANCH  12  13
ENDBRANCH   1  12
TORSDOF 7
ENDMDL
MODEL 7
REMARK VINA RESULT:      -7.7      2.740      8.217
REMARK  Name = 1549789
REMARK  7 active torsions:
REMARK  status: ('A' for Active; 'I' for Inactive)
REMARK    1  A    between atoms: C_1  and  C_12
REMARK    2  A    between atoms: C_2  and  C_3
REMARK    3  A    between atoms: C_6  and  O_9
REMARK    4  A    between atoms: C_12  and  O_13
REMARK    5  A    between atoms: O_13  and  C_14
REMARK    6  A    between atoms: C_14  and  C_15
REMARK    7  A    between atoms: C_15  and  C_16
REMARK                            x       y       z     vdW  Elec       q    Type
REMARK                         _______ _______ _______ _____ _____    ______ ____
ROOT
ATOM      1  C   UNL     1      34.621 -22.638 -17.387  0.00  0.00    +0.082 C 
ATOM      2  C   UNL     1      33.786 -22.423 -18.413  0.00  0.00    +0.007 C 
ENDROOT
BRANCH   2   3
ATOM      3  C   UNL     1      33.983 -21.397 -19.451  0.00  0.00    +0.000 C 
ATOM      4  C   UNL     1      35.258 -21.159 -19.937  0.00  0.00    +0.003 C 
ATOM      5  C   UNL     1      32.888 -20.688 -19.921  0.00  0.00    +0.003 C 
ATOM      6  C   UNL     1      34.353 -19.464 -21.403  0.00  0.00    +0.139 C 
ATOM      7  C   UNL     1      35.444 -20.185 -20.920  0.00  0.00    +0.037 C 
ATOM      8  C   UNL     1      33.075 -19.715 -20.903  0.00  0.00    +0.037 C 
BRANCH   6   9
ATOM      9  O   UNL     1      34.535 -18.515 -22.361  0.00  0.00    -0.471 OA
ATOM     10  C   UNL     1      35.071 -18.949 -23.610  0.00  0.00    +0.252 C 
ENDBRANCH   6   9
ENDBRANCH   2   3
BRANCH   1  12
ATOM     11  O   UNL     1      35.108 -24.493 -15.936  0.00  0.00    -0.245 OA
ATOM     12  C   UNL     1      34.307 -23.696 -16.401  0.00  0.00    +0.341 C 
BRANCH  12  13
ATOM     13  O   UNL     1      32.977 -23.616 -16.107  0.00  0.00    -0.445 OA
BRANCH  13  14
ATOM     14  C   UNL     1      32.656 -23.441 -14.732  0.00  0.00    +0.209 C 
BRANCH  14  15
ATOM     15  C   UNL     1      31.276 -22.802 -14.632  0.00  0.00    +0.047 C 
BRANCH  15  16
ATOM     16  C   UNL     1      30.196 -23.531 -15.449  0.00  0.00    +0.004 C 
ATOM     17  C   UNL     1      29.850 -24.864 -14.780  0.00  0.00    +0.000 C 
ATOM     18  C   UNL     1      28.928 -22.693 -15.618  0.00  0.00    +0.000 C 
ENDBRANCH  15  16
ENDBRANCH  14  15
ENDBRANCH  13  14
ENDBRANCH  12  13
ENDBRANCH   1  12
TORSDOF 7
ENDMDL
MODEL 8
REMARK VINA RESULT:      -7.6      2.358      6.959
REMARK  Name = 1549789
REMARK  7 active torsions:
REMARK  status: ('A' for Active; 'I' for Inactive)
REMARK    1  A    between atoms: C_1  and  C_12
REMARK    2  A    between atoms: C_2  and  C_3
REMARK    3  A    between atoms: C_6  and  O_9
REMARK    4  A    between atoms: C_12  and  O_13
REMARK    5  A    between atoms: O_13  and  C_14
REMARK    6  A    between atoms: C_14  and  C_15
REMARK    7  A    between atoms: C_15  and  C_16
REMARK                            x       y       z     vdW  Elec       q    Type
REMARK                         _______ _______ _______ _____ _____    ______ ____
ROOT
ATOM      1  C   UNL     1      34.181 -15.959 -23.524  0.00  0.00    +0.082 C 
ATOM      2  C   UNL     1      33.432 -14.862 -23.703  0.00  0.00    +0.007 C 
ENDROOT
BRANCH   2   3
ATOM      3  C   UNL     1      32.907 -14.021 -22.614  0.00  0.00    +0.000 C 
ATOM      4  C   UNL     1      32.999 -14.468 -21.306  0.00  0.00    +0.003 C 
ATOM      5  C   UNL     1      32.330 -12.797 -22.919  0.00  0.00    +0.003 C 
ATOM      6  C   UNL     1      31.918 -12.438 -20.566  0.00  0.00    +0.139 C 
ATOM      7  C   UNL     1      32.501 -13.671 -20.275  0.00  0.00    +0.037 C 
ATOM      8  C   UNL     1      31.833 -12.001 -21.888  0.00  0.00    +0.037 C 
BRANCH   6   9
ATOM      9  O   UNL     1      31.432 -11.661 -19.559  0.00  0.00    -0.471 OA
ATOM     10  C   UNL     1      31.655 -10.255 -19.659  0.00  0.00    +0.252 C 
ENDBRANCH   6   9
ENDBRANCH   2   3
BRANCH   1  12
ATOM     11  O   UNL     1      34.642 -16.327 -25.856  0.00  0.00    -0.245 OA
ATOM     12  C   UNL     1      34.641 -16.729 -24.702  0.00  0.00    +0.341 C 
BRANCH  12  13
ATOM     13  O   UNL     1      35.060 -17.953 -24.268  0.00  0.00    -0.445 OA
BRANCH  13  14
ATOM     14  C   UNL     1      35.208 -18.094 -22.860  0.00  0.00    +0.209 C 
BRANCH  14  15
ATOM     15  C   UNL     1      34.565 -19.407 -22.431  0.00  0.00    +0.047 C 
BRANCH  15  16
ATOM     16  C   UNL     1      34.348 -19.523 -20.913  0.00  0.00    +0.004 C 
ATOM     17  C   UNL     1      32.879 -19.839 -20.622  0.00  0.00    +0.000 C 
ATOM     18  C   UNL     1      35.242 -20.587 -20.276  0.00  0.00    +0.000 C 
ENDBRANCH  15  16
ENDBRANCH  14  15
ENDBRANCH  13  14
ENDBRANCH  12  13
ENDBRANCH   1  12
TORSDOF 7
ENDMDL
MODEL 9
REMARK VINA RESULT:      -7.5      3.125      4.523
REMARK  Name = 1549789
REMARK  7 active torsions:
REMARK  status: ('A' for Active; 'I' for Inactive)
REMARK    1  A    between atoms: C_1  and  C_12
REMARK    2  A    between atoms: C_2  and  C_3
REMARK    3  A    between atoms: C_6  and  O_9
REMARK    4  A    between atoms: C_12  and  O_13
REMARK    5  A    between atoms: O_13  and  C_14
REMARK    6  A    between atoms: C_14  and  C_15
REMARK    7  A    between atoms: C_15  and  C_16
REMARK                            x       y       z     vdW  Elec       q    Type
REMARK                         _______ _______ _______ _____ _____    ______ ____
ROOT
ATOM      1  C   UNL     1      33.651 -15.102 -24.800  0.00  0.00    +0.082 C 
ATOM      2  C   UNL     1      34.374 -16.230 -24.808  0.00  0.00    +0.007 C 
ENDROOT
BRANCH   2   3
ATOM      3  C   UNL     1      34.704 -17.020 -23.609  0.00  0.00    +0.000 C 
ATOM      4  C   UNL     1      34.818 -18.397 -23.713  0.00  0.00    +0.003 C 
ATOM      5  C   UNL     1      34.894 -16.370 -22.399  0.00  0.00    +0.003 C 
ATOM      6  C   UNL     1      35.324 -18.504 -21.353  0.00  0.00    +0.139 C 
ATOM      7  C   UNL     1      35.130 -19.144 -22.577  0.00  0.00    +0.037 C 
ATOM      8  C   UNL     1      35.207 -17.118 -21.264  0.00  0.00    +0.037 C 
BRANCH   6   9
ATOM      9  O   UNL     1      35.629 -19.235 -20.245  0.00  0.00    -0.471 OA
ATOM     10  C   UNL     1      35.644 -20.654 -20.388  0.00  0.00    +0.252 C 
ENDBRANCH   6   9
ENDBRANCH   2   3
BRANCH   1  12
ATOM     11  O   UNL     1      33.258 -14.920 -27.166  0.00  0.00    -0.245 OA
ATOM     12  C   UNL     1      33.395 -14.391 -26.073  0.00  0.00    +0.341 C 
BRANCH  12  13
ATOM     13  O   UNL     1      33.339 -13.053 -25.805  0.00  0.00    -0.445 OA
BRANCH  13  14
ATOM     14  C   UNL     1      33.799 -12.660 -24.518  0.00  0.00    +0.209 C 
BRANCH  14  15
ATOM     15  C   UNL     1      33.559 -11.165 -24.351  0.00  0.00    +0.047 C 
BRANCH  15  16
ATOM     16  C   UNL     1      34.846 -10.323 -24.389  0.00  0.00    +0.004 C 
ATOM     17  C   UNL     1      35.454 -10.368 -25.792  0.00  0.00    +0.000 C 
ATOM     18  C   UNL     1      34.604  -8.871 -23.975  0.00  0.00    +0.000 C 
ENDBRANCH  15  16
ENDBRANCH  14  15
ENDBRANCH  13  14
ENDBRANCH  12  13
ENDBRANCH   1  12
TORSDOF 7
ENDMDL
