MODEL 1
REMARK VINA RESULT:      -5.4      0.000      0.000
REMARK  Name = 69617
REMARK  4 active torsions:
REMARK  status: ('A' for Active; 'I' for Inactive)
REMARK    1  A    between atoms: C_1  and  C_5
REMARK    2  A    between atoms: C_1  and  C_9
REMARK    3  A    between atoms: C_1  and  O_10
REMARK    4  A    between atoms: C_1  and  O_12
REMARK                            x       y       z     vdW  Elec       q    Type
REMARK                         _______ _______ _______ _____ _____    ______ ____
ROOT
ATOM      1  C   UNL     1      31.054 -24.626 -13.902  0.00  0.00    +0.361 C 
ENDROOT
BRANCH   1   5
ATOM      2  F   UNL     1      29.982 -26.322 -15.159  0.00  0.00    -0.165 F 
ATOM      3  F   UNL     1      30.486 -24.474 -16.201  0.00  0.00    -0.165 F 
ATOM      4  F   UNL     1      28.845 -24.503 -14.765  0.00  0.00    -0.165 F 
ATOM      5  C   UNL     1      30.083 -24.981 -15.015  0.00  0.00    +0.453 C 
ENDBRANCH   1   5
BRANCH   1   9
ATOM      6  F   UNL     1      32.623 -23.141 -14.889  0.00  0.00    -0.165 F 
ATOM      7  F   UNL     1      31.996 -22.730 -12.841  0.00  0.00    -0.165 F 
ATOM      8  F   UNL     1      30.621 -22.369 -14.495  0.00  0.00    -0.165 F 
ATOM      9  C   UNL     1      31.578 -23.206 -14.035  0.00  0.00    +0.453 C 
ENDBRANCH   1   9
BRANCH   1  10
ATOM     10  O   UNL     1      30.368 -24.760 -12.659  0.00  0.00    -0.352 OA
ATOM     11  H   UNL     1      29.523 -25.213 -12.803  0.00  0.00    +0.213 HD
ENDBRANCH   1  10
BRANCH   1  12
ATOM     12  O   UNL     1      32.167 -25.514 -13.947  0.00  0.00    -0.352 OA
ATOM     13  H   UNL     1      32.990 -25.000 -13.972  0.00  0.00    +0.213 HD
ENDBRANCH   1  12
TORSDOF 4
ENDMDL
MODEL 2
REMARK VINA RESULT:      -5.4      0.069      3.176
REMARK  Name = 69617
REMARK  4 active torsions:
REMARK  status: ('A' for Active; 'I' for Inactive)
REMARK    1  A    between atoms: C_1  and  C_5
REMARK    2  A    between atoms: C_1  and  C_9
REMARK    3  A    between atoms: C_1  and  O_10
REMARK    4  A    between atoms: C_1  and  O_12
REMARK                            x       y       z     vdW  Elec       q    Type
REMARK                         _______ _______ _______ _____ _____    ______ ____
ROOT
ATOM      1  C   UNL     1      31.088 -24.616 -13.886  0.00  0.00    +0.361 C 
ENDROOT
BRANCH   1   5
ATOM      2  F   UNL     1      32.005 -22.717 -12.808  0.00  0.00    -0.165 F 
ATOM      3  F   UNL     1      30.707 -22.361 -14.523  0.00  0.00    -0.165 F 
ATOM      4  F   UNL     1      32.714 -23.160 -14.822  0.00  0.00    -0.165 F 
ATOM      5  C   UNL     1      31.633 -23.203 -14.014  0.00  0.00    +0.453 C 
ENDBRANCH   1   5
BRANCH   1   9
ATOM      6  F   UNL     1      29.973 -26.295 -15.141  0.00  0.00    -0.165 F 
ATOM      7  F   UNL     1      30.577 -24.483 -16.195  0.00  0.00    -0.165 F 
ATOM      8  F   UNL     1      28.905 -24.425 -14.796  0.00  0.00    -0.165 F 
ATOM      9  C   UNL     1      30.128 -24.959 -15.012  0.00  0.00    +0.453 C 
ENDBRANCH   1   9
BRANCH   1  10
ATOM     10  O   UNL     1      32.191 -25.519 -13.917  0.00  0.00    -0.352 OA
ATOM     11  H   UNL     1      33.017 -25.018 -14.008  0.00  0.00    +0.213 HD
ENDBRANCH   1  10
BRANCH   1  12
ATOM     12  O   UNL     1      30.386 -24.740 -12.652  0.00  0.00    -0.352 OA
ATOM     13  H   UNL     1      30.748 -24.108 -12.010  0.00  0.00    +0.213 HD
ENDBRANCH   1  12
TORSDOF 4
ENDMDL
MODEL 3
REMARK VINA RESULT:      -5.4      6.880      8.202
REMARK  Name = 69617
REMARK  4 active torsions:
REMARK  status: ('A' for Active; 'I' for Inactive)
REMARK    1  A    between atoms: C_1  and  C_5
REMARK    2  A    between atoms: C_1  and  C_9
REMARK    3  A    between atoms: C_1  and  O_10
REMARK    4  A    between atoms: C_1  and  O_12
REMARK                            x       y       z     vdW  Elec       q    Type
REMARK                         _______ _______ _______ _____ _____    ______ ____
ROOT
ATOM      1  C   UNL     1      38.255 -25.830 -14.575  0.00  0.00    +0.361 C 
ENDROOT
BRANCH   1   5
ATOM      2  F   UNL     1      37.929 -24.086 -13.006  0.00  0.00    -0.165 F 
ATOM      3  F   UNL     1      38.373 -26.070 -12.217  0.00  0.00    -0.165 F 
ATOM      4  F   UNL     1      36.416 -25.654 -13.083  0.00  0.00    -0.165 F 
ATOM      5  C   UNL     1      37.738 -25.409 -13.210  0.00  0.00    +0.453 C 
ENDBRANCH   1   5
BRANCH   1   9
ATOM      6  F   UNL     1      40.329 -24.994 -13.778  0.00  0.00    -0.165 F 
ATOM      7  F   UNL     1      39.436 -23.997 -15.499  0.00  0.00    -0.165 F 
ATOM      8  F   UNL     1      40.325 -25.975 -15.726  0.00  0.00    -0.165 F 
ATOM      9  C   UNL     1      39.598 -25.196 -14.895  0.00  0.00    +0.453 C 
ENDBRANCH   1   9
BRANCH   1  10
ATOM     10  O   UNL     1      38.392 -27.249 -14.577  0.00  0.00    -0.352 OA
ATOM     11  H   UNL     1      37.760 -27.636 -13.951  0.00  0.00    +0.213 HD
ENDBRANCH   1  10
BRANCH   1  12
ATOM     12  O   UNL     1      37.324 -25.425 -15.576  0.00  0.00    -0.352 OA
ATOM     13  H   UNL     1      37.446 -25.969 -16.369  0.00  0.00    +0.213 HD
ENDBRANCH   1  12
TORSDOF 4
ENDMDL
MODEL 4
REMARK VINA RESULT:      -5.3      6.352      7.625
REMARK  Name = 69617
REMARK  4 active torsions:
REMARK  status: ('A' for Active; 'I' for Inactive)
REMARK    1  A    between atoms: C_1  and  C_5
REMARK    2  A    between atoms: C_1  and  C_9
REMARK    3  A    between atoms: C_1  and  O_10
REMARK    4  A    between atoms: C_1  and  O_12
REMARK                            x       y       z     vdW  Elec       q    Type
REMARK                         _______ _______ _______ _____ _____    ______ ____
ROOT
ATOM      1  C   UNL     1      38.307 -24.994 -14.726  0.00  0.00    +0.361 C 
ENDROOT
BRANCH   1   5
ATOM      2  F   UNL     1      36.279 -24.619 -13.562  0.00  0.00    -0.165 F 
ATOM      3  F   UNL     1      36.314 -24.139 -15.689  0.00  0.00    -0.165 F 
ATOM      4  F   UNL     1      37.365 -22.864 -14.267  0.00  0.00    -0.165 F 
ATOM      5  C   UNL     1      37.058 -24.145 -14.561  0.00  0.00    +0.453 C 
ENDBRANCH   1   5
BRANCH   1   9
ATOM      6  F   UNL     1      38.130 -26.336 -12.774  0.00  0.00    -0.165 F 
ATOM      7  F   UNL     1      38.995 -24.346 -12.555  0.00  0.00    -0.165 F 
ATOM      8  F   UNL     1      40.134 -25.928 -13.532  0.00  0.00    -0.165 F 
ATOM      9  C   UNL     1      38.896 -25.406 -13.387  0.00  0.00    +0.453 C 
ENDBRANCH   1   9
BRANCH   1  10
ATOM     10  O   UNL     1      37.954 -26.162 -15.464  0.00  0.00    -0.352 OA
ATOM     11  H   UNL     1      38.357 -26.121 -16.346  0.00  0.00    +0.213 HD
ENDBRANCH   1  10
BRANCH   1  12
ATOM     12  O   UNL     1      39.294 -24.247 -15.432  0.00  0.00    -0.352 OA
ATOM     13  H   UNL     1      40.038 -24.827 -15.658  0.00  0.00    +0.213 HD
ENDBRANCH   1  12
TORSDOF 4
ENDMDL
MODEL 5
REMARK VINA RESULT:      -5.3     10.184     11.271
REMARK  Name = 69617
REMARK  4 active torsions:
REMARK  status: ('A' for Active; 'I' for Inactive)
REMARK    1  A    between atoms: C_1  and  C_5
REMARK    2  A    between atoms: C_1  and  C_9
REMARK    3  A    between atoms: C_1  and  O_10
REMARK    4  A    between atoms: C_1  and  O_12
REMARK                            x       y       z     vdW  Elec       q    Type
REMARK                         _______ _______ _______ _____ _____    ______ ____
ROOT
ATOM      1  C   UNL     1      35.502 -18.072 -22.052  0.00  0.00    +0.361 C 
ENDROOT
BRANCH   1   5
ATOM      2  F   UNL     1      35.517 -15.936 -23.076  0.00  0.00    -0.165 F 
ATOM      3  F   UNL     1      33.713 -16.513 -21.996  0.00  0.00    -0.165 F 
ATOM      4  F   UNL     1      34.176 -17.436 -23.916  0.00  0.00    -0.165 F 
ATOM      5  C   UNL     1      34.719 -16.983 -22.766  0.00  0.00    +0.453 C 
ENDBRANCH   1   5
BRANCH   1   9
ATOM      6  F   UNL     1      35.423 -20.349 -21.386  0.00  0.00    -0.165 F 
ATOM      7  F   UNL     1      34.920 -19.887 -23.457  0.00  0.00    -0.165 F 
ATOM      8  F   UNL     1      33.529 -19.376 -21.857  0.00  0.00    -0.165 F 
ATOM      9  C   UNL     1      34.839 -19.431 -22.187  0.00  0.00    +0.453 C 
ENDBRANCH   1   9
BRANCH   1  10
ATOM     10  O   UNL     1      36.806 -18.125 -22.626  0.00  0.00    -0.352 OA
ATOM     11  H   UNL     1      37.377 -18.687 -22.078  0.00  0.00    +0.213 HD
ENDBRANCH   1  10
BRANCH   1  12
ATOM     12  O   UNL     1      35.588 -17.757 -20.665  0.00  0.00    -0.352 OA
ATOM     13  H   UNL     1      34.847 -18.169 -20.193  0.00  0.00    +0.213 HD
ENDBRANCH   1  12
TORSDOF 4
ENDMDL
MODEL 6
REMARK VINA RESULT:      -5.3     13.615     14.763
REMARK  Name = 69617
REMARK  4 active torsions:
REMARK  status: ('A' for Active; 'I' for Inactive)
REMARK    1  A    between atoms: C_1  and  C_5
REMARK    2  A    between atoms: C_1  and  C_9
REMARK    3  A    between atoms: C_1  and  O_10
REMARK    4  A    between atoms: C_1  and  O_12
REMARK                            x       y       z     vdW  Elec       q    Type
REMARK                         _______ _______ _______ _____ _____    ______ ____
ROOT
ATOM      1  C   UNL     1      42.229 -16.157 -17.064  0.00  0.00    +0.361 C 
ENDROOT
BRANCH   1   5
ATOM      2  F   UNL     1      42.360 -13.968 -16.170  0.00  0.00    -0.165 F 
ATOM      3  F   UNL     1      40.560 -15.118 -15.735  0.00  0.00    -0.165 F 
ATOM      4  F   UNL     1      40.885 -14.318 -17.737  0.00  0.00    -0.165 F 
ATOM      5  C   UNL     1      41.501 -14.881 -16.675  0.00  0.00    +0.453 C 
ENDBRANCH   1   5
BRANCH   1   9
ATOM      6  F   UNL     1      41.818 -16.033 -19.400  0.00  0.00    -0.165 F 
ATOM      7  F   UNL     1      43.566 -17.160 -18.742  0.00  0.00    -0.165 F 
ATOM      8  F   UNL     1      43.568 -14.982 -18.633  0.00  0.00    -0.165 F 
ATOM      9  C   UNL     1      42.798 -16.081 -18.471  0.00  0.00    +0.453 C 
ENDBRANCH   1   9
BRANCH   1  10
ATOM     10  O   UNL     1      43.293 -16.358 -16.137  0.00  0.00    -0.352 OA
ATOM     11  H   UNL     1      44.143 -16.260 -16.594  0.00  0.00    +0.213 HD
ENDBRANCH   1  10
BRANCH   1  12
ATOM     12  O   UNL     1      41.320 -17.252 -17.013  0.00  0.00    -0.352 OA
ATOM     13  H   UNL     1      41.665 -17.931 -16.412  0.00  0.00    +0.213 HD
ENDBRANCH   1  12
TORSDOF 4
ENDMDL
MODEL 7
REMARK VINA RESULT:      -5.3     10.188     11.070
REMARK  Name = 69617
REMARK  4 active torsions:
REMARK  status: ('A' for Active; 'I' for Inactive)
REMARK    1  A    between atoms: C_1  and  C_5
REMARK    2  A    between atoms: C_1  and  C_9
REMARK    3  A    between atoms: C_1  and  O_10
REMARK    4  A    between atoms: C_1  and  O_12
REMARK                            x       y       z     vdW  Elec       q    Type
REMARK                         _______ _______ _______ _____ _____    ______ ____
ROOT
ATOM      1  C   UNL     1      35.501 -18.069 -22.056  0.00  0.00    +0.361 C 
ENDROOT
BRANCH   1   5
ATOM      2  F   UNL     1      34.919 -19.888 -23.456  0.00  0.00    -0.165 F 
ATOM      3  F   UNL     1      33.526 -19.371 -21.860  0.00  0.00    -0.165 F 
ATOM      4  F   UNL     1      35.418 -20.345 -21.383  0.00  0.00    -0.165 F 
ATOM      5  C   UNL     1      34.836 -19.429 -22.187  0.00  0.00    +0.453 C 
ENDBRANCH   1   5
BRANCH   1   9
ATOM      6  F   UNL     1      33.714 -16.506 -22.014  0.00  0.00    -0.165 F 
ATOM      7  F   UNL     1      34.181 -17.453 -23.923  0.00  0.00    -0.165 F 
ATOM      8  F   UNL     1      35.517 -15.938 -23.101  0.00  0.00    -0.165 F 
ATOM      9  C   UNL     1      34.722 -16.982 -22.777  0.00  0.00    +0.453 C 
ENDBRANCH   1   9
BRANCH   1  10
ATOM     10  O   UNL     1      35.582 -17.749 -20.669  0.00  0.00    -0.352 OA
ATOM     11  H   UNL     1      36.052 -16.908 -20.558  0.00  0.00    +0.213 HD
ENDBRANCH   1  10
BRANCH   1  12
ATOM     12  O   UNL     1      36.807 -18.127 -22.623  0.00  0.00    -0.352 OA
ATOM     13  H   UNL     1      36.806 -17.681 -23.484  0.00  0.00    +0.213 HD
ENDBRANCH   1  12
TORSDOF 4
ENDMDL
MODEL 8
REMARK VINA RESULT:      -5.3     10.216     10.842
REMARK  Name = 69617
REMARK  4 active torsions:
REMARK  status: ('A' for Active; 'I' for Inactive)
REMARK    1  A    between atoms: C_1  and  C_5
REMARK    2  A    between atoms: C_1  and  C_9
REMARK    3  A    between atoms: C_1  and  O_10
REMARK    4  A    between atoms: C_1  and  O_12
REMARK                            x       y       z     vdW  Elec       q    Type
REMARK                         _______ _______ _______ _____ _____    ______ ____
ROOT
ATOM      1  C   UNL     1      34.793 -18.059 -21.438  0.00  0.00    +0.361 C 
ENDROOT
BRANCH   1   5
ATOM      2  F   UNL     1      34.797 -19.837 -23.003  0.00  0.00    -0.165 F 
ATOM      3  F   UNL     1      36.390 -18.358 -23.168  0.00  0.00    -0.165 F 
ATOM      4  F   UNL     1      34.357 -17.841 -23.762  0.00  0.00    -0.165 F 
ATOM      5  C   UNL     1      35.086 -18.524 -22.855  0.00  0.00    +0.453 C 
ENDBRANCH   1   5
BRANCH   1   9
ATOM      6  F   UNL     1      35.276 -15.908 -22.320  0.00  0.00    -0.165 F 
ATOM      7  F   UNL     1      34.961 -16.068 -20.167  0.00  0.00    -0.165 F 
ATOM      8  F   UNL     1      33.269 -16.242 -21.533  0.00  0.00    -0.165 F 
ATOM      9  C   UNL     1      34.573 -16.558 -21.366  0.00  0.00    +0.453 C 
ENDBRANCH   1   9
BRANCH   1  10
ATOM     10  O   UNL     1      33.618 -18.729 -20.988  0.00  0.00    -0.352 OA
ATOM     11  H   UNL     1      33.484 -19.535 -21.512  0.00  0.00    +0.213 HD
ENDBRANCH   1  10
BRANCH   1  12
ATOM     12  O   UNL     1      35.897 -18.385 -20.598  0.00  0.00    -0.352 OA
ATOM     13  H   UNL     1      35.623 -18.327 -19.669  0.00  0.00    +0.213 HD
ENDBRANCH   1  12
TORSDOF 4
ENDMDL
MODEL 9
REMARK VINA RESULT:      -5.3     10.213     11.175
REMARK  Name = 69617
REMARK  4 active torsions:
REMARK  status: ('A' for Active; 'I' for Inactive)
REMARK    1  A    between atoms: C_1  and  C_5
REMARK    2  A    between atoms: C_1  and  C_9
REMARK    3  A    between atoms: C_1  and  O_10
REMARK    4  A    between atoms: C_1  and  O_12
REMARK                            x       y       z     vdW  Elec       q    Type
REMARK                         _______ _______ _______ _____ _____    ______ ____
ROOT
ATOM      1  C   UNL     1      34.792 -18.058 -21.433  0.00  0.00    +0.361 C 
ENDROOT
BRANCH   1   5
ATOM      2  F   UNL     1      34.958 -16.065 -20.165  0.00  0.00    -0.165 F 
ATOM      3  F   UNL     1      33.265 -16.244 -21.527  0.00  0.00    -0.165 F 
ATOM      4  F   UNL     1      35.269 -15.907 -22.318  0.00  0.00    -0.165 F 
ATOM      5  C   UNL     1      34.569 -16.557 -21.363  0.00  0.00    +0.453 C 
ENDBRANCH   1   5
BRANCH   1   9
ATOM      6  F   UNL     1      34.361 -17.839 -23.757  0.00  0.00    -0.165 F 
ATOM      7  F   UNL     1      34.797 -19.836 -22.996  0.00  0.00    -0.165 F 
ATOM      8  F   UNL     1      36.393 -18.359 -23.159  0.00  0.00    -0.165 F 
ATOM      9  C   UNL     1      35.088 -18.524 -22.848  0.00  0.00    +0.453 C 
ENDBRANCH   1   9
BRANCH   1  10
ATOM     10  O   UNL     1      35.897 -18.380 -20.590  0.00  0.00    -0.352 OA
ATOM     11  H   UNL     1      35.626 -18.309 -19.661  0.00  0.00    +0.213 HD
ENDBRANCH   1  10
BRANCH   1  12
ATOM     12  O   UNL     1      33.619 -18.729 -20.982  0.00  0.00    -0.352 OA
ATOM     13  H   UNL     1      32.839 -18.339 -21.407  0.00  0.00    +0.213 HD
ENDBRANCH   1  12
TORSDOF 4
ENDMDL
