MODEL 1
REMARK VINA RESULT:     -10.8      0.000      0.000
REMARK  Name = 2662
REMARK  5 active torsions:
REMARK  status: ('A' for Active; 'I' for Inactive)
REMARK    1  A    between atoms: N_1  and  C_13
REMARK    2  A    between atoms: C_3  and  C_6
REMARK    3  A    between atoms: C_5  and  C_28
REMARK    4  A    between atoms: C_16  and  S_19
REMARK    5  A    between atoms: S_19  and  N_22
REMARK                            x       y       z     vdW  Elec       q    Type
REMARK                         _______ _______ _______ _____ _____    ______ ____
ROOT
ATOM      1  N   UNL     1      34.307 -24.194 -14.886  0.00  0.00    -0.190 N 
ATOM      2  N   UNL     1      33.437 -24.644 -13.966  0.00  0.00    -0.170 NA
ATOM      3  C   UNL     1      33.731 -23.451 -15.876  0.00  0.00    +0.075 C 
ATOM      4  C   UNL     1      32.389 -23.414 -15.580  0.00  0.00    +0.041 C 
ATOM      5  C   UNL     1      32.268 -24.165 -14.395  0.00  0.00    +0.172 C 
ENDROOT
BRANCH   3   6
ATOM      6  C   UNL     1      34.448 -22.857 -16.978  0.00  0.00    +0.015 C 
ATOM      7  C   UNL     1      33.844 -22.760 -18.231  0.00  0.00    +0.001 C 
ATOM      8  C   UNL     1      35.745 -22.379 -16.790  0.00  0.00    +0.001 C 
ATOM      9  C   UNL     1      35.834 -21.708 -19.108  0.00  0.00    -0.022 C 
ATOM     10  C   UNL     1      34.537 -22.185 -19.297  0.00  0.00    -0.004 C 
ATOM     11  C   UNL     1      36.438 -21.805 -17.855  0.00  0.00    -0.004 C 
ATOM     12  C   UNL     1      36.576 -21.094 -20.247  0.00  0.00    +0.031 C 
ENDBRANCH   3   6
BRANCH   1  13
ATOM     13  C   UNL     1      35.662 -24.509 -14.762  0.00  0.00    +0.074 C 
ATOM     14  C   UNL     1      36.507 -23.636 -14.089  0.00  0.00    +0.018 C 
ATOM     15  C   UNL     1      36.145 -25.687 -15.313  0.00  0.00    +0.018 C 
ATOM     16  C   UNL     1      38.356 -25.131 -14.514  0.00  0.00    +0.122 C 
ATOM     17  C   UNL     1      37.861 -23.949 -13.964  0.00  0.00    +0.021 C 
ATOM     18  C   UNL     1      37.499 -26.000 -15.189  0.00  0.00    +0.021 C 
BRANCH  16  19
ATOM     19  S   UNL     1      40.051 -25.524 -14.358  0.00  0.00    +0.057 S 
ATOM     20  O   UNL     1      40.767 -24.317 -13.966  0.00  0.00    -0.153 OA
ATOM     21  O   UNL     1      40.174 -26.732 -13.555  0.00  0.00    -0.153 OA
BRANCH  19  22
ATOM     22  N   UNL     1      40.448 -25.898 -15.978  0.00  0.00    -0.203 NA
ATOM     23  H   UNL     1      39.779 -25.448 -16.604  0.00  0.00    +0.144 HD
ATOM     24  H   UNL     1      40.413 -26.908 -16.112  0.00  0.00    +0.144 HD
ENDBRANCH  19  22
ENDBRANCH  16  19
ENDBRANCH   1  13
BRANCH   5  28
ATOM     25  F   UNL     1      30.670 -23.419 -12.818  0.00  0.00    -0.164 F 
ATOM     26  F   UNL     1      29.958 -24.692 -14.430  0.00  0.00    -0.164 F 
ATOM     27  F   UNL     1      31.175 -25.540 -12.831  0.00  0.00    -0.164 F 
ATOM     28  C   UNL     1      31.039 -24.447 -13.635  0.00  0.00    +0.436 C 
ENDBRANCH   5  28
TORSDOF 5
ENDMDL
MODEL 2
REMARK VINA RESULT:     -10.3      1.649      2.050
REMARK  Name = 2662
REMARK  5 active torsions:
REMARK  status: ('A' for Active; 'I' for Inactive)
REMARK    1  A    between atoms: N_1  and  C_13
REMARK    2  A    between atoms: C_3  and  C_6
REMARK    3  A    between atoms: C_5  and  C_28
REMARK    4  A    between atoms: C_16  and  S_19
REMARK    5  A    between atoms: S_19  and  N_22
REMARK                            x       y       z     vdW  Elec       q    Type
REMARK                         _______ _______ _______ _____ _____    ______ ____
ROOT
ATOM      1  N   UNL     1      33.202 -23.907 -15.292  0.00  0.00    -0.190 N 
ATOM      2  N   UNL     1      32.092 -24.326 -14.660  0.00  0.00    -0.170 NA
ATOM      3  C   UNL     1      32.958 -23.280 -16.481  0.00  0.00    +0.075 C 
ATOM      4  C   UNL     1      31.592 -23.292 -16.633  0.00  0.00    +0.041 C 
ATOM      5  C   UNL     1      31.113 -23.948 -15.484  0.00  0.00    +0.172 C 
ENDROOT
BRANCH   3   6
ATOM      6  C   UNL     1      33.978 -22.741 -17.347  0.00  0.00    +0.015 C 
ATOM      7  C   UNL     1      33.686 -22.475 -18.685  0.00  0.00    +0.001 C 
ATOM      8  C   UNL     1      35.255 -22.486 -16.847  0.00  0.00    +0.001 C 
ATOM      9  C   UNL     1      35.949 -21.698 -19.023  0.00  0.00    -0.022 C 
ATOM     10  C   UNL     1      34.672 -21.953 -19.523  0.00  0.00    -0.004 C 
ATOM     11  C   UNL     1      36.241 -21.965 -17.685  0.00  0.00    -0.004 C 
ATOM     12  C   UNL     1      37.004 -21.141 -19.918  0.00  0.00    +0.031 C 
ENDBRANCH   3   6
BRANCH   1  13
ATOM     13  C   UNL     1      34.451 -24.136 -14.712  0.00  0.00    +0.074 C 
ATOM     14  C   UNL     1      34.891 -23.307 -13.688  0.00  0.00    +0.018 C 
ATOM     15  C   UNL     1      35.234 -25.187 -15.167  0.00  0.00    +0.018 C 
ATOM     16  C   UNL     1      36.935 -24.589 -13.558  0.00  0.00    +0.122 C 
ATOM     17  C   UNL     1      36.139 -23.535 -13.108  0.00  0.00    +0.021 C 
ATOM     18  C   UNL     1      36.483 -25.415 -14.587  0.00  0.00    +0.021 C 
BRANCH  16  19
ATOM     19  S   UNL     1      38.497 -24.874 -12.831  0.00  0.00    +0.057 S 
ATOM     20  O   UNL     1      38.429 -26.112 -12.066  0.00  0.00    -0.153 OA
ATOM     21  O   UNL     1      39.519 -24.711 -13.855  0.00  0.00    -0.153 OA
BRANCH  19  22
ATOM     22  N   UNL     1      38.594 -23.559 -11.743  0.00  0.00    -0.203 NA
ATOM     23  H   UNL     1      39.094 -23.850 -10.903  0.00  0.00    +0.144 HD
ATOM     24  H   UNL     1      37.654 -23.255 -11.492  0.00  0.00    +0.144 HD
ENDBRANCH  19  22
ENDBRANCH  16  19
ENDBRANCH   1  13
BRANCH   5  28
ATOM     25  F   UNL     1      29.049 -24.924 -16.105  0.00  0.00    -0.164 F 
ATOM     26  F   UNL     1      29.581 -24.976 -13.997  0.00  0.00    -0.164 F 
ATOM     27  F   UNL     1      28.995 -23.092 -14.924  0.00  0.00    -0.164 F 
ATOM     28  C   UNL     1      29.711 -24.232 -15.133  0.00  0.00    +0.436 C 
ENDBRANCH   5  28
TORSDOF 5
ENDMDL
MODEL 3
REMARK VINA RESULT:      -9.9      5.070      6.526
REMARK  Name = 2662
REMARK  5 active torsions:
REMARK  status: ('A' for Active; 'I' for Inactive)
REMARK    1  A    between atoms: N_1  and  C_13
REMARK    2  A    between atoms: C_3  and  C_6
REMARK    3  A    between atoms: C_5  and  C_28
REMARK    4  A    between atoms: C_16  and  S_19
REMARK    5  A    between atoms: S_19  and  N_22
REMARK                            x       y       z     vdW  Elec       q    Type
REMARK                         _______ _______ _______ _____ _____    ______ ____
ROOT
ATOM      1  N   UNL     1      33.734 -23.827 -14.138  0.00  0.00    -0.190 N 
ATOM      2  N   UNL     1      33.933 -24.278 -12.887  0.00  0.00    -0.170 NA
ATOM      3  C   UNL     1      34.884 -23.508 -14.801  0.00  0.00    +0.075 C 
ATOM      4  C   UNL     1      35.906 -23.770 -13.919  0.00  0.00    +0.041 C 
ATOM      5  C   UNL     1      35.261 -24.241 -12.760  0.00  0.00    +0.172 C 
ENDROOT
BRANCH   3   6
ATOM      6  C   UNL     1      34.938 -23.004 -16.151  0.00  0.00    +0.015 C 
ATOM      7  C   UNL     1      33.851 -23.183 -17.007  0.00  0.00    +0.001 C 
ATOM      8  C   UNL     1      36.078 -22.338 -16.602  0.00  0.00    +0.001 C 
ATOM      9  C   UNL     1      35.043 -22.030 -18.763  0.00  0.00    -0.022 C 
ATOM     10  C   UNL     1      33.903 -22.695 -18.313  0.00  0.00    -0.004 C 
ATOM     11  C   UNL     1      36.131 -21.851 -17.908  0.00  0.00    -0.004 C 
ATOM     12  C   UNL     1      35.101 -21.509 -20.159  0.00  0.00    +0.031 C 
ENDBRANCH   3   6
BRANCH   1  13
ATOM     13  C   UNL     1      32.432 -23.726 -14.632  0.00  0.00    +0.074 C 
ATOM     14  C   UNL     1      31.805 -24.856 -15.141  0.00  0.00    +0.018 C 
ATOM     15  C   UNL     1      31.784 -22.499 -14.608  0.00  0.00    +0.018 C 
ATOM     16  C   UNL     1      29.844 -23.527 -15.616  0.00  0.00    +0.122 C 
ATOM     17  C   UNL     1      30.504 -24.756 -15.635  0.00  0.00    +0.021 C 
ATOM     18  C   UNL     1      30.483 -22.399 -15.103  0.00  0.00    +0.021 C 
BRANCH  16  19
ATOM     19  S   UNL     1      28.215 -23.402 -16.234  0.00  0.00    +0.057 S 
ATOM     20  O   UNL     1      27.980 -24.520 -17.138  0.00  0.00    -0.153 OA
ATOM     21  O   UNL     1      27.312 -23.173 -15.115  0.00  0.00    -0.153 OA
BRANCH  19  22
ATOM     22  N   UNL     1      28.327 -21.965 -17.153  0.00  0.00    -0.203 NA
ATOM     23  H   UNL     1      28.065 -22.159 -18.120  0.00  0.00    +0.144 HD
ATOM     24  H   UNL     1      29.284 -21.616 -17.124  0.00  0.00    +0.144 HD
ENDBRANCH  19  22
ENDBRANCH  16  19
ENDBRANCH   1  13
BRANCH   5  28
ATOM     25  F   UNL     1      36.645 -23.694 -10.921  0.00  0.00    -0.164 F 
ATOM     26  F   UNL     1      34.983 -25.045 -10.549  0.00  0.00    -0.164 F 
ATOM     27  F   UNL     1      36.715 -25.738 -11.676  0.00  0.00    -0.164 F 
ATOM     28  C   UNL     1      35.887 -24.670 -11.498  0.00  0.00    +0.436 C 
ENDBRANCH   5  28
TORSDOF 5
ENDMDL
MODEL 4
REMARK VINA RESULT:      -9.8     10.359     12.538
REMARK  Name = 2662
REMARK  5 active torsions:
REMARK  status: ('A' for Active; 'I' for Inactive)
REMARK    1  A    between atoms: N_1  and  C_13
REMARK    2  A    between atoms: C_3  and  C_6
REMARK    3  A    between atoms: C_5  and  C_28
REMARK    4  A    between atoms: C_16  and  S_19
REMARK    5  A    between atoms: S_19  and  N_22
REMARK                            x       y       z     vdW  Elec       q    Type
REMARK                         _______ _______ _______ _____ _____    ______ ____
ROOT
ATOM      1  N   UNL     1      32.549 -13.251 -21.029  0.00  0.00    -0.190 N 
ATOM      2  N   UNL     1      32.140 -12.779 -19.839  0.00  0.00    -0.170 NA
ATOM      3  C   UNL     1      32.390 -12.370 -22.060  0.00  0.00    +0.075 C 
ATOM      4  C   UNL     1      31.837 -11.242 -21.501  0.00  0.00    +0.041 C 
ATOM      5  C   UNL     1      31.706 -11.551 -20.134  0.00  0.00    +0.172 C 
ENDROOT
BRANCH   3   6
ATOM      6  C   UNL     1      32.751 -12.637 -23.430  0.00  0.00    +0.015 C 
ATOM      7  C   UNL     1      33.497 -11.703 -24.150  0.00  0.00    +0.001 C 
ATOM      8  C   UNL     1      32.354 -13.829 -24.037  0.00  0.00    +0.001 C 
ATOM      9  C   UNL     1      33.449 -13.153 -26.081  0.00  0.00    -0.022 C 
ATOM     10  C   UNL     1      33.846 -11.961 -25.476  0.00  0.00    -0.004 C 
ATOM     11  C   UNL     1      32.702 -14.087 -25.363  0.00  0.00    -0.004 C 
ATOM     12  C   UNL     1      33.821 -13.430 -27.499  0.00  0.00    +0.031 C 
ENDBRANCH   3   6
BRANCH   1  13
ATOM     13  C   UNL     1      33.078 -14.541 -21.111  0.00  0.00    +0.074 C 
ATOM     14  C   UNL     1      34.421 -14.711 -21.418  0.00  0.00    +0.018 C 
ATOM     15  C   UNL     1      32.252 -15.634 -20.886  0.00  0.00    +0.018 C 
ATOM     16  C   UNL     1      34.129 -17.105 -21.275  0.00  0.00    +0.122 C 
ATOM     17  C   UNL     1      34.949 -16.000 -21.500  0.00  0.00    +0.021 C 
ATOM     18  C   UNL     1      32.781 -16.923 -20.968  0.00  0.00    +0.021 C 
BRANCH  16  19
ATOM     19  S   UNL     1      34.790 -18.718 -21.378  0.00  0.00    +0.057 S 
ATOM     20  O   UNL     1      34.905 -19.079 -22.784  0.00  0.00    -0.153 OA
ATOM     21  O   UNL     1      35.959 -18.795 -20.512  0.00  0.00    -0.153 OA
BRANCH  19  22
ATOM     22  N   UNL     1      33.527 -19.632 -20.676  0.00  0.00    -0.203 NA
ATOM     23  H   UNL     1      33.837 -20.005 -19.778  0.00  0.00    +0.144 HD
ATOM     24  H   UNL     1      33.279 -20.402 -21.297  0.00  0.00    +0.144 HD
ENDBRANCH  19  22
ENDBRANCH  16  19
ENDBRANCH   1  13
BRANCH   5  28
ATOM     25  F   UNL     1      29.817 -10.513 -19.158  0.00  0.00    -0.164 F 
ATOM     26  F   UNL     1      31.392 -11.181 -17.815  0.00  0.00    -0.164 F 
ATOM     27  F   UNL     1      31.716  -9.443 -19.091  0.00  0.00    -0.164 F 
ATOM     28  C   UNL     1      31.167 -10.691 -19.067  0.00  0.00    +0.436 C 
ENDBRANCH   5  28
TORSDOF 5
ENDMDL
MODEL 5
REMARK VINA RESULT:      -9.7      3.888      5.572
REMARK  Name = 2662
REMARK  5 active torsions:
REMARK  status: ('A' for Active; 'I' for Inactive)
REMARK    1  A    between atoms: N_1  and  C_13
REMARK    2  A    between atoms: C_3  and  C_6
REMARK    3  A    between atoms: C_5  and  C_28
REMARK    4  A    between atoms: C_16  and  S_19
REMARK    5  A    between atoms: S_19  and  N_22
REMARK                            x       y       z     vdW  Elec       q    Type
REMARK                         _______ _______ _______ _____ _____    ______ ____
ROOT
ATOM      1  N   UNL     1      34.915 -22.920 -16.867  0.00  0.00    -0.190 N 
ATOM      2  N   UNL     1      35.808 -22.415 -17.735  0.00  0.00    -0.170 NA
ATOM      3  C   UNL     1      33.620 -22.831 -17.289  0.00  0.00    +0.075 C 
ATOM      4  C   UNL     1      33.673 -22.224 -18.522  0.00  0.00    +0.041 C 
ATOM      5  C   UNL     1      35.043 -21.992 -18.744  0.00  0.00    +0.172 C 
ENDROOT
BRANCH   3   6
ATOM      6  C   UNL     1      32.479 -23.300 -16.542  0.00  0.00    +0.015 C 
ATOM      7  C   UNL     1      31.195 -22.882 -16.893  0.00  0.00    +0.001 C 
ATOM      8  C   UNL     1      32.659 -24.171 -15.467  0.00  0.00    +0.001 C 
ATOM      9  C   UNL     1      30.273 -24.206 -15.095  0.00  0.00    -0.022 C 
ATOM     10  C   UNL     1      30.092 -23.336 -16.170  0.00  0.00    -0.004 C 
ATOM     11  C   UNL     1      31.556 -24.624 -14.743  0.00  0.00    -0.004 C 
ATOM     12  C   UNL     1      29.094 -24.691 -14.320  0.00  0.00    +0.031 C 
ENDBRANCH   3   6
BRANCH   1  13
ATOM     13  C   UNL     1      35.362 -23.467 -15.662  0.00  0.00    +0.074 C 
ATOM     14  C   UNL     1      35.483 -22.652 -14.545  0.00  0.00    +0.018 C 
ATOM     15  C   UNL     1      35.680 -24.817 -15.600  0.00  0.00    +0.018 C 
ATOM     16  C   UNL     1      36.252 -24.553 -13.267  0.00  0.00    +0.122 C 
ATOM     17  C   UNL     1      35.931 -23.198 -13.341  0.00  0.00    +0.021 C 
ATOM     18  C   UNL     1      36.127 -25.362 -14.396  0.00  0.00    +0.021 C 
BRANCH  16  19
ATOM     19  S   UNL     1      36.812 -25.236 -11.760  0.00  0.00    +0.057 S 
ATOM     20  O   UNL     1      37.046 -26.660 -11.961  0.00  0.00    -0.153 OA
ATOM     21  O   UNL     1      37.878 -24.393 -11.238  0.00  0.00    -0.153 OA
BRANCH  19  22
ATOM     22  N   UNL     1      35.426 -25.038 -10.780  0.00  0.00    -0.203 NA
ATOM     23  H   UNL     1      35.077 -24.084 -10.874  0.00  0.00    +0.144 HD
ATOM     24  H   UNL     1      35.670 -25.216  -9.806  0.00  0.00    +0.144 HD
ENDBRANCH  19  22
ENDBRANCH  16  19
ENDBRANCH   1  13
BRANCH   5  28
ATOM     25  F   UNL     1      34.782 -20.646 -20.672  0.00  0.00    -0.164 F 
ATOM     26  F   UNL     1      36.667 -20.494 -19.598  0.00  0.00    -0.164 F 
ATOM     27  F   UNL     1      36.219 -22.284 -20.759  0.00  0.00    -0.164 F 
ATOM     28  C   UNL     1      35.667 -21.362 -19.920  0.00  0.00    +0.436 C 
ENDBRANCH   5  28
TORSDOF 5
ENDMDL
MODEL 6
REMARK VINA RESULT:      -8.8      5.132      7.209
REMARK  Name = 2662
REMARK  5 active torsions:
REMARK  status: ('A' for Active; 'I' for Inactive)
REMARK    1  A    between atoms: N_1  and  C_13
REMARK    2  A    between atoms: C_3  and  C_6
REMARK    3  A    between atoms: C_5  and  C_28
REMARK    4  A    between atoms: C_16  and  S_19
REMARK    5  A    between atoms: S_19  and  N_22
REMARK                            x       y       z     vdW  Elec       q    Type
REMARK                         _______ _______ _______ _____ _____    ______ ____
ROOT
ATOM      1  N   UNL     1      34.972 -22.608 -17.043  0.00  0.00    -0.190 N 
ATOM      2  N   UNL     1      34.880 -21.959 -18.216  0.00  0.00    -0.170 NA
ATOM      3  C   UNL     1      36.246 -22.709 -16.564  0.00  0.00    +0.075 C 
ATOM      4  C   UNL     1      37.042 -22.080 -17.491  0.00  0.00    +0.041 C 
ATOM      5  C   UNL     1      36.148 -21.639 -18.485  0.00  0.00    +0.172 C 
ENDROOT
BRANCH   3   6
ATOM      6  C   UNL     1      36.608 -23.358 -15.328  0.00  0.00    +0.015 C 
ATOM      7  C   UNL     1      36.796 -24.740 -15.295  0.00  0.00    +0.001 C 
ATOM      8  C   UNL     1      36.770 -22.604 -14.165  0.00  0.00    +0.001 C 
ATOM      9  C   UNL     1      37.309 -24.613 -12.937  0.00  0.00    -0.022 C 
ATOM     10  C   UNL     1      37.147 -25.368 -14.099  0.00  0.00    -0.004 C 
ATOM     11  C   UNL     1      37.120 -23.232 -12.969  0.00  0.00    -0.004 C 
ATOM     12  C   UNL     1      37.682 -25.284 -11.658  0.00  0.00    +0.031 C 
ENDBRANCH   3   6
BRANCH   1  13
ATOM     13  C   UNL     1      33.813 -23.104 -16.440  0.00  0.00    +0.074 C 
ATOM     14  C   UNL     1      33.866 -23.558 -15.129  0.00  0.00    +0.018 C 
ATOM     15  C   UNL     1      32.628 -23.135 -17.160  0.00  0.00    +0.018 C 
ATOM     16  C   UNL     1      31.512 -24.089 -15.241  0.00  0.00    +0.122 C 
ATOM     17  C   UNL     1      32.709 -24.053 -14.526  0.00  0.00    +0.021 C 
ATOM     18  C   UNL     1      31.471 -23.631 -16.557  0.00  0.00    +0.021 C 
BRANCH  16  19
ATOM     19  S   UNL     1      30.064 -24.709 -14.486  0.00  0.00    +0.057 S 
ATOM     20  O   UNL     1      28.973 -23.783 -14.756  0.00  0.00    -0.153 OA
ATOM     21  O   UNL     1      29.924 -26.115 -14.839  0.00  0.00    -0.153 OA
BRANCH  19  22
ATOM     22  N   UNL     1      30.486 -24.597 -12.834  0.00  0.00    -0.203 NA
ATOM     23  H   UNL     1      29.789 -24.036 -12.343  0.00  0.00    +0.144 HD
ATOM     24  H   UNL     1      31.401 -24.156 -12.745  0.00  0.00    +0.144 HD
ENDBRANCH  19  22
ENDBRANCH  16  19
ENDBRANCH   1  13
BRANCH   5  28
ATOM     25  F   UNL     1      37.181 -19.759 -19.482  0.00  0.00    -0.164 F 
ATOM     26  F   UNL     1      37.214 -21.624 -20.600  0.00  0.00    -0.164 F 
ATOM     27  F   UNL     1      35.349 -20.515 -20.390  0.00  0.00    -0.164 F 
ATOM     28  C   UNL     1      36.470 -20.899 -19.717  0.00  0.00    +0.436 C 
ENDBRANCH   5  28
TORSDOF 5
ENDMDL
MODEL 7
REMARK VINA RESULT:      -8.5      4.277      6.114
REMARK  Name = 2662
REMARK  5 active torsions:
REMARK  status: ('A' for Active; 'I' for Inactive)
REMARK    1  A    between atoms: N_1  and  C_13
REMARK    2  A    between atoms: C_3  and  C_6
REMARK    3  A    between atoms: C_5  and  C_28
REMARK    4  A    between atoms: C_16  and  S_19
REMARK    5  A    between atoms: S_19  and  N_22
REMARK                            x       y       z     vdW  Elec       q    Type
REMARK                         _______ _______ _______ _____ _____    ______ ____
ROOT
ATOM      1  N   UNL     1      35.160 -23.496 -14.419  0.00  0.00    -0.190 N 
ATOM      2  N   UNL     1      36.320 -23.613 -13.751  0.00  0.00    -0.170 NA
ATOM      3  C   UNL     1      34.067 -23.897 -13.705  0.00  0.00    +0.075 C 
ATOM      4  C   UNL     1      34.550 -24.304 -12.484  0.00  0.00    +0.041 C 
ATOM      5  C   UNL     1      35.941 -24.107 -12.570  0.00  0.00    +0.172 C 
ENDROOT
BRANCH   3   6
ATOM      6  C   UNL     1      32.712 -23.870 -14.197  0.00  0.00    +0.015 C 
ATOM      7  C   UNL     1      32.073 -22.649 -14.415  0.00  0.00    +0.001 C 
ATOM      8  C   UNL     1      32.039 -25.065 -14.456  0.00  0.00    +0.001 C 
ATOM      9  C   UNL     1      30.090 -23.817 -15.149  0.00  0.00    -0.022 C 
ATOM     10  C   UNL     1      30.761 -22.623 -14.891  0.00  0.00    -0.004 C 
ATOM     11  C   UNL     1      30.728 -25.038 -14.931  0.00  0.00    -0.004 C 
ATOM     12  C   UNL     1      28.688 -23.791 -15.657  0.00  0.00    +0.031 C 
ENDBRANCH   3   6
BRANCH   1  13
ATOM     13  C   UNL     1      35.166 -23.000 -15.725  0.00  0.00    +0.074 C 
ATOM     14  C   UNL     1      36.253 -22.259 -16.169  0.00  0.00    +0.018 C 
ATOM     15  C   UNL     1      34.086 -23.254 -16.558  0.00  0.00    +0.018 C 
ATOM     16  C   UNL     1      35.179 -22.012 -18.319  0.00  0.00    +0.122 C 
ATOM     17  C   UNL     1      36.259 -21.763 -17.473  0.00  0.00    +0.021 C 
ATOM     18  C   UNL     1      34.092 -22.758 -17.862  0.00  0.00    +0.021 C 
BRANCH  16  19
ATOM     19  S   UNL     1      35.187 -21.391 -19.951  0.00  0.00    +0.057 S 
ATOM     20  O   UNL     1      35.737 -22.415 -20.829  0.00  0.00    -0.153 OA
ATOM     21  O   UNL     1      33.879 -20.820 -20.235  0.00  0.00    -0.153 OA
BRANCH  19  22
ATOM     22  N   UNL     1      36.322 -20.120 -19.809  0.00  0.00    -0.203 NA
ATOM     23  H   UNL     1      36.684 -20.094 -18.856  0.00  0.00    +0.144 HD
ATOM     24  H   UNL     1      35.868 -19.233 -20.025  0.00  0.00    +0.144 HD
ENDBRANCH  19  22
ENDBRANCH  16  19
ENDBRANCH   1  13
BRANCH   5  28
ATOM     25  F   UNL     1      37.500 -25.624 -11.640  0.00  0.00    -0.164 F 
ATOM     26  F   UNL     1      38.001 -23.510 -11.563  0.00  0.00    -0.164 F 
ATOM     27  F   UNL     1      36.428 -24.302 -10.278  0.00  0.00    -0.164 F 
ATOM     28  C   UNL     1      36.951 -24.380 -11.534  0.00  0.00    +0.436 C 
ENDBRANCH   5  28
TORSDOF 5
ENDMDL
MODEL 8
REMARK VINA RESULT:      -8.0     11.830     14.070
REMARK  Name = 2662
REMARK  5 active torsions:
REMARK  status: ('A' for Active; 'I' for Inactive)
REMARK    1  A    between atoms: N_1  and  C_13
REMARK    2  A    between atoms: C_3  and  C_6
REMARK    3  A    between atoms: C_5  and  C_28
REMARK    4  A    between atoms: C_16  and  S_19
REMARK    5  A    between atoms: S_19  and  N_22
REMARK                            x       y       z     vdW  Elec       q    Type
REMARK                         _______ _______ _______ _____ _____    ______ ____
ROOT
ATOM      1  N   UNL     1      32.375 -12.532 -21.570  0.00  0.00    -0.190 N 
ATOM      2  N   UNL     1      31.866 -11.357 -21.163  0.00  0.00    -0.170 NA
ATOM      3  C   UNL     1      32.544 -13.441 -20.565  0.00  0.00    +0.075 C 
ATOM      4  C   UNL     1      32.114 -12.811 -19.420  0.00  0.00    +0.041 C 
ATOM      5  C   UNL     1      31.709 -11.533 -19.849  0.00  0.00    +0.172 C 
ENDROOT
BRANCH   3   6
ATOM      6  C   UNL     1      33.072 -14.771 -20.742  0.00  0.00    +0.015 C 
ATOM      7  C   UNL     1      34.442 -14.958 -20.928  0.00  0.00    +0.001 C 
ATOM      8  C   UNL     1      32.213 -15.870 -20.728  0.00  0.00    +0.001 C 
ATOM      9  C   UNL     1      34.093 -17.344 -21.085  0.00  0.00    -0.022 C 
ATOM     10  C   UNL     1      34.953 -16.246 -21.099  0.00  0.00    -0.004 C 
ATOM     11  C   UNL     1      32.724 -17.157 -20.900  0.00  0.00    -0.004 C 
ATOM     12  C   UNL     1      34.638 -18.720 -21.270  0.00  0.00    +0.031 C 
ENDBRANCH   3   6
BRANCH   1  13
ATOM     13  C   UNL     1      32.675 -12.719 -22.921  0.00  0.00    +0.074 C 
ATOM     14  C   UNL     1      33.372 -11.735 -23.609  0.00  0.00    +0.018 C 
ATOM     15  C   UNL     1      32.272 -13.885 -23.556  0.00  0.00    +0.018 C 
ATOM     16  C   UNL     1      33.271 -13.089 -25.607  0.00  0.00    +0.122 C 
ATOM     17  C   UNL     1      33.672 -11.921 -24.959  0.00  0.00    +0.021 C 
ATOM     18  C   UNL     1      32.572 -14.071 -24.906  0.00  0.00    +0.021 C 
BRANCH  16  19
ATOM     19  S   UNL     1      33.647 -13.322 -27.297  0.00  0.00    +0.057 S 
ATOM     20  O   UNL     1      34.762 -12.452 -27.643  0.00  0.00    -0.153 OA
ATOM     21  O   UNL     1      33.736 -14.752 -27.557  0.00  0.00    -0.153 OA
BRANCH  19  22
ATOM     22  N   UNL     1      32.227 -12.718 -28.031  0.00  0.00    -0.203 NA
ATOM     23  H   UNL     1      31.460 -12.743 -27.359  0.00  0.00    +0.144 HD
ATOM     24  H   UNL     1      31.990 -13.293 -28.839  0.00  0.00    +0.144 HD
ENDBRANCH  19  22
ENDBRANCH  16  19
ENDBRANCH   1  13
BRANCH   5  28
ATOM     25  F   UNL     1      31.560  -9.208 -19.442  0.00  0.00    -0.164 F 
ATOM     26  F   UNL     1      29.797 -10.408 -19.019  0.00  0.00    -0.164 F 
ATOM     27  F   UNL     1      31.543 -10.547 -17.721  0.00  0.00    -0.164 F 
ATOM     28  C   UNL     1      31.160 -10.444 -19.025  0.00  0.00    +0.436 C 
ENDBRANCH   5  28
TORSDOF 5
ENDMDL
MODEL 9
REMARK VINA RESULT:      -7.9      4.754      6.625
REMARK  Name = 2662
REMARK  5 active torsions:
REMARK  status: ('A' for Active; 'I' for Inactive)
REMARK    1  A    between atoms: N_1  and  C_13
REMARK    2  A    between atoms: C_3  and  C_6
REMARK    3  A    between atoms: C_5  and  C_28
REMARK    4  A    between atoms: C_16  and  S_19
REMARK    5  A    between atoms: S_19  and  N_22
REMARK                            x       y       z     vdW  Elec       q    Type
REMARK                         _______ _______ _______ _____ _____    ______ ____
ROOT
ATOM      1  N   UNL     1      35.312 -23.577 -16.148  0.00  0.00    -0.190 N 
ATOM      2  N   UNL     1      36.534 -24.063 -15.872  0.00  0.00    -0.170 NA
ATOM      3  C   UNL     1      34.345 -23.978 -15.271  0.00  0.00    +0.075 C 
ATOM      4  C   UNL     1      34.984 -24.784 -14.359  0.00  0.00    +0.041 C 
ATOM      5  C   UNL     1      36.328 -24.799 -14.778  0.00  0.00    +0.172 C 
ENDROOT
BRANCH   3   6
ATOM      6  C   UNL     1      32.957 -23.595 -15.350  0.00  0.00    +0.015 C 
ATOM      7  C   UNL     1      32.422 -22.719 -14.405  0.00  0.00    +0.001 C 
ATOM      8  C   UNL     1      32.150 -24.100 -16.370  0.00  0.00    +0.001 C 
ATOM      9  C   UNL     1      30.273 -22.854 -15.501  0.00  0.00    -0.022 C 
ATOM     10  C   UNL     1      31.078 -22.348 -14.481  0.00  0.00    -0.004 C 
ATOM     11  C   UNL     1      30.808 -23.730 -16.445  0.00  0.00    -0.004 C 
ATOM     12  C   UNL     1      28.836 -22.459 -15.582  0.00  0.00    +0.031 C 
ENDBRANCH   3   6
BRANCH   1  13
ATOM     13  C   UNL     1      35.139 -22.742 -17.254  0.00  0.00    +0.074 C 
ATOM     14  C   UNL     1      36.202 -21.968 -17.700  0.00  0.00    +0.018 C 
ATOM     15  C   UNL     1      33.907 -22.698 -17.891  0.00  0.00    +0.018 C 
ATOM     16  C   UNL     1      34.795 -21.082 -19.452  0.00  0.00    +0.122 C 
ATOM     17  C   UNL     1      36.029 -21.134 -18.805  0.00  0.00    +0.021 C 
ATOM     18  C   UNL     1      33.734 -21.863 -18.996  0.00  0.00    +0.021 C 
BRANCH  16  19
ATOM     19  S   UNL     1      34.579 -20.038 -20.836  0.00  0.00    +0.057 S 
ATOM     20  O   UNL     1      35.067 -20.735 -22.018  0.00  0.00    -0.153 OA
ATOM     21  O   UNL     1      33.220 -19.516 -20.813  0.00  0.00    -0.153 OA
BRANCH  19  22
ATOM     22  N   UNL     1      35.661 -18.770 -20.458  0.00  0.00    -0.203 NA
ATOM     23  H   UNL     1      35.610 -18.053 -21.182  0.00  0.00    +0.144 HD
ATOM     24  H   UNL     1      36.611 -19.137 -20.409  0.00  0.00    +0.144 HD
ENDBRANCH  19  22
ENDBRANCH  16  19
ENDBRANCH   1  13
BRANCH   5  28
ATOM     25  F   UNL     1      37.294 -26.867 -14.154  0.00  0.00    -0.164 F 
ATOM     26  F   UNL     1      38.647 -25.281 -14.772  0.00  0.00    -0.164 F 
ATOM     27  F   UNL     1      37.626 -25.152 -12.850  0.00  0.00    -0.164 F 
ATOM     28  C   UNL     1      37.454 -25.512 -14.153  0.00  0.00    +0.436 C 
ENDBRANCH   5  28
TORSDOF 5
ENDMDL
