MODEL 1
REMARK VINA RESULT:     -11.1      0.000      0.000
REMARK  Name = 24864079
REMARK  4 active torsions:
REMARK  status: ('A' for Active; 'I' for Inactive)
REMARK    1  A    between atoms: C_3  and  N_19
REMARK    2  A    between atoms: C_4  and  C_9
REMARK    3  A    between atoms: N_8  and  C_12
REMARK    4  A    between atoms: C_20  and  C_24
REMARK                            x       y       z     vdW  Elec       q    Type
REMARK                         _______ _______ _______ _____ _____    ______ ____
ROOT
ATOM      1  N   UNL     1      38.491 -23.197 -16.049  0.00  0.00    -0.230 N 
ATOM      2  N   UNL     1      38.609 -24.163 -15.123  0.00  0.00    -0.178 NA
ATOM      3  C   UNL     1      36.445 -23.464 -15.332  0.00  0.00    +0.091 C 
ATOM      4  C   UNL     1      37.215 -22.743 -16.213  0.00  0.00    +0.134 C 
ATOM      5  C   UNL     1      37.356 -24.323 -14.690  0.00  0.00    +0.134 C 
ATOM      6  H   UNL     1      39.255 -22.848 -16.562  0.00  0.00    +0.175 HD
ENDROOT
BRANCH   4   9
ATOM      7  O   UNL     1      37.289 -20.557 -17.004  0.00  0.00    -0.268 OA
ATOM      8  N   UNL     1      35.969 -22.097 -18.185  0.00  0.00    -0.279 N 
ATOM      9  C   UNL     1      36.838 -21.720 -17.134  0.00  0.00    +0.266 C 
ATOM     10  H   UNL     1      35.685 -23.040 -18.178  0.00  0.00    +0.155 HD
BRANCH   8  12
ATOM     11  F   UNL     1      33.936 -19.040 -22.342  0.00  0.00    -0.204 F 
ATOM     12  C   UNL     1      35.450 -21.316 -19.247  0.00  0.00    +0.051 C 
ATOM     13  C   UNL     1      34.076 -21.287 -19.483  0.00  0.00    +0.017 C 
ATOM     14  C   UNL     1      36.313 -20.576 -20.055  0.00  0.00    +0.017 C 
ATOM     15  C   UNL     1      33.565 -20.518 -20.528  0.00  0.00    +0.031 C 
ATOM     16  C   UNL     1      35.801 -19.808 -21.101  0.00  0.00    +0.031 C 
ATOM     17  C   UNL     1      34.427 -19.779 -21.338  0.00  0.00    +0.140 C 
ENDBRANCH   8  12
ENDBRANCH   4   9
BRANCH   3  19
ATOM     18  O   UNL     1      34.162 -24.256 -17.105  0.00  0.00    -0.270 OA
ATOM     19  N   UNL     1      35.047 -23.352 -15.129  0.00  0.00    -0.278 N 
ATOM     20  C   UNL     1      34.009 -23.737 -15.988  0.00  0.00    +0.254 C 
ATOM     21  H   UNL     1      34.769 -22.952 -14.274  0.00  0.00    +0.155 HD
BRANCH  20  24
ATOM     22  F   UNL     1      32.045 -22.602 -17.637  0.00  0.00    -0.204 F 
ATOM     23  F   UNL     1      33.206 -24.322 -13.365  0.00  0.00    -0.204 F 
ATOM     24  C   UNL     1      32.660 -23.469 -15.513  0.00  0.00    +0.108 C 
ATOM     25  C   UNL     1      31.718 -22.902 -16.372  0.00  0.00    +0.147 C 
ATOM     26  C   UNL     1      32.309 -23.777 -14.199  0.00  0.00    +0.147 C 
ATOM     27  C   UNL     1      30.426 -22.644 -15.916  0.00  0.00    +0.030 C 
ATOM     28  C   UNL     1      31.017 -23.519 -13.743  0.00  0.00    +0.030 C 
ATOM     29  C   UNL     1      30.074 -22.952 -14.602  0.00  0.00    +0.005 C 
ENDBRANCH  20  24
ENDBRANCH   3  19
TORSDOF 4
ENDMDL
MODEL 2
REMARK VINA RESULT:     -11.1      0.052      1.880
REMARK  Name = 24864079
REMARK  4 active torsions:
REMARK  status: ('A' for Active; 'I' for Inactive)
REMARK    1  A    between atoms: C_3  and  N_19
REMARK    2  A    between atoms: C_4  and  C_9
REMARK    3  A    between atoms: N_8  and  C_12
REMARK    4  A    between atoms: C_20  and  C_24
REMARK                            x       y       z     vdW  Elec       q    Type
REMARK                         _______ _______ _______ _____ _____    ______ ____
ROOT
ATOM      1  N   UNL     1      38.471 -23.171 -16.096  0.00  0.00    -0.230 N 
ATOM      2  N   UNL     1      38.596 -24.134 -15.168  0.00  0.00    -0.178 NA
ATOM      3  C   UNL     1      36.428 -23.444 -15.370  0.00  0.00    +0.091 C 
ATOM      4  C   UNL     1      37.192 -22.722 -16.256  0.00  0.00    +0.134 C 
ATOM      5  C   UNL     1      37.345 -24.297 -14.729  0.00  0.00    +0.134 C 
ATOM      6  H   UNL     1      39.231 -22.821 -16.613  0.00  0.00    +0.175 HD
ENDROOT
BRANCH   4   9
ATOM      7  O   UNL     1      37.257 -20.539 -17.055  0.00  0.00    -0.268 OA
ATOM      8  N   UNL     1      35.936 -22.086 -18.225  0.00  0.00    -0.279 N 
ATOM      9  C   UNL     1      36.808 -21.704 -17.179  0.00  0.00    +0.266 C 
ATOM     10  H   UNL     1      35.654 -23.030 -18.214  0.00  0.00    +0.155 HD
BRANCH   8  12
ATOM     11  F   UNL     1      33.873 -19.050 -22.382  0.00  0.00    -0.204 F 
ATOM     12  C   UNL     1      35.409 -21.311 -19.287  0.00  0.00    +0.051 C 
ATOM     13  C   UNL     1      36.268 -20.595 -20.120  0.00  0.00    +0.017 C 
ATOM     14  C   UNL     1      34.031 -21.264 -19.499  0.00  0.00    +0.017 C 
ATOM     15  C   UNL     1      35.749 -19.832 -21.166  0.00  0.00    +0.031 C 
ATOM     16  C   UNL     1      33.513 -20.500 -20.544  0.00  0.00    +0.031 C 
ATOM     17  C   UNL     1      34.371 -19.783 -21.378  0.00  0.00    +0.140 C 
ENDBRANCH   8  12
ENDBRANCH   4   9
BRANCH   3  19
ATOM     18  O   UNL     1      34.142 -24.266 -17.125  0.00  0.00    -0.270 OA
ATOM     19  N   UNL     1      35.031 -23.337 -15.163  0.00  0.00    -0.278 N 
ATOM     20  C   UNL     1      33.991 -23.736 -16.013  0.00  0.00    +0.254 C 
ATOM     21  H   UNL     1      34.754 -22.929 -14.311  0.00  0.00    +0.155 HD
BRANCH  20  24
ATOM     22  F   UNL     1      33.184 -24.354 -13.399  0.00  0.00    -0.204 F 
ATOM     23  F   UNL     1      32.033 -22.570 -17.647  0.00  0.00    -0.204 F 
ATOM     24  C   UNL     1      32.643 -23.469 -15.535  0.00  0.00    +0.108 C 
ATOM     25  C   UNL     1      32.289 -23.795 -14.226  0.00  0.00    +0.147 C 
ATOM     26  C   UNL     1      31.704 -22.888 -16.387  0.00  0.00    +0.147 C 
ATOM     27  C   UNL     1      30.997 -23.539 -13.768  0.00  0.00    +0.030 C 
ATOM     28  C   UNL     1      30.411 -22.632 -15.930  0.00  0.00    +0.030 C 
ATOM     29  C   UNL     1      30.057 -22.958 -14.620  0.00  0.00    +0.005 C 
ENDBRANCH  20  24
ENDBRANCH   3  19
TORSDOF 4
ENDMDL
MODEL 3
REMARK VINA RESULT:     -11.0      7.377     11.133
REMARK  Name = 24864079
REMARK  4 active torsions:
REMARK  status: ('A' for Active; 'I' for Inactive)
REMARK    1  A    between atoms: C_3  and  N_19
REMARK    2  A    between atoms: C_4  and  C_9
REMARK    3  A    between atoms: N_8  and  C_12
REMARK    4  A    between atoms: C_20  and  C_24
REMARK                            x       y       z     vdW  Elec       q    Type
REMARK                         _______ _______ _______ _____ _____    ______ ____
ROOT
ATOM      1  N   UNL     1      34.048 -16.213 -25.674  0.00  0.00    -0.230 N 
ATOM      2  N   UNL     1      33.481 -15.483 -26.649  0.00  0.00    -0.178 NA
ATOM      3  C   UNL     1      33.092 -14.574 -24.590  0.00  0.00    +0.091 C 
ATOM      4  C   UNL     1      33.844 -15.712 -24.421  0.00  0.00    +0.134 C 
ATOM      5  C   UNL     1      32.900 -14.483 -25.980  0.00  0.00    +0.134 C 
ATOM      6  H   UNL     1      34.562 -17.034 -25.847  0.00  0.00    +0.175 HD
ENDROOT
BRANCH   4   9
ATOM      7  O   UNL     1      34.574 -15.602 -22.215  0.00  0.00    -0.268 OA
ATOM      8  N   UNL     1      34.536 -17.711 -23.244  0.00  0.00    -0.279 N 
ATOM      9  C   UNL     1      34.345 -16.310 -23.225  0.00  0.00    +0.266 C 
ATOM     10  H   UNL     1      34.319 -18.154 -24.097  0.00  0.00    +0.155 HD
BRANCH   8  12
ATOM     11  F   UNL     1      36.321 -21.078 -19.215  0.00  0.00    -0.204 F 
ATOM     12  C   UNL     1      34.992 -18.571 -22.215  0.00  0.00    +0.051 C 
ATOM     13  C   UNL     1      36.328 -18.535 -21.816  0.00  0.00    +0.017 C 
ATOM     14  C   UNL     1      34.104 -19.455 -21.600  0.00  0.00    +0.017 C 
ATOM     15  C   UNL     1      36.776 -19.381 -20.803  0.00  0.00    +0.031 C 
ATOM     16  C   UNL     1      34.553 -20.301 -20.587  0.00  0.00    +0.031 C 
ATOM     17  C   UNL     1      35.889 -20.265 -20.188  0.00  0.00    +0.140 C 
ENDBRANCH   8  12
ENDBRANCH   4   9
BRANCH   3  19
ATOM     18  O   UNL     1      33.928 -11.779 -23.903  0.00  0.00    -0.270 OA
ATOM     19  N   UNL     1      32.624 -13.702 -23.577  0.00  0.00    -0.278 N 
ATOM     20  C   UNL     1      33.043 -12.396 -23.288  0.00  0.00    +0.254 C 
ATOM     21  H   UNL     1      31.911 -14.059 -23.000  0.00  0.00    +0.155 HD
BRANCH  20  24
ATOM     22  F   UNL     1      32.081  -9.765 -23.418  0.00  0.00    -0.204 F 
ATOM     23  F   UNL     1      32.664 -13.711 -20.840  0.00  0.00    -0.204 F 
ATOM     24  C   UNL     1      32.389 -11.755 -22.159  0.00  0.00    +0.108 C 
ATOM     25  C   UNL     1      31.927 -10.443 -22.272  0.00  0.00    +0.147 C 
ATOM     26  C   UNL     1      32.224 -12.451 -20.961  0.00  0.00    +0.147 C 
ATOM     27  C   UNL     1      31.301  -9.828 -21.189  0.00  0.00    +0.030 C 
ATOM     28  C   UNL     1      31.598 -11.835 -19.877  0.00  0.00    +0.030 C 
ATOM     29  C   UNL     1      31.136 -10.524 -19.991  0.00  0.00    +0.005 C 
ENDBRANCH  20  24
ENDBRANCH   3  19
TORSDOF 4
ENDMDL
MODEL 4
REMARK VINA RESULT:     -10.9      1.859      6.534
REMARK  Name = 24864079
REMARK  4 active torsions:
REMARK  status: ('A' for Active; 'I' for Inactive)
REMARK    1  A    between atoms: C_3  and  N_19
REMARK    2  A    between atoms: C_4  and  C_9
REMARK    3  A    between atoms: N_8  and  C_12
REMARK    4  A    between atoms: C_20  and  C_24
REMARK                            x       y       z     vdW  Elec       q    Type
REMARK                         _______ _______ _______ _____ _____    ______ ____
ROOT
ATOM      1  N   UNL     1      36.684 -23.564 -15.473  0.00  0.00    -0.230 N 
ATOM      2  N   UNL     1      37.930 -23.070 -15.547  0.00  0.00    -0.178 NA
ATOM      3  C   UNL     1      36.534 -22.048 -17.038  0.00  0.00    +0.091 C 
ATOM      4  C   UNL     1      35.808 -22.987 -16.345  0.00  0.00    +0.134 C 
ATOM      5  C   UNL     1      37.832 -22.143 -16.504  0.00  0.00    +0.134 C 
ATOM      6  H   UNL     1      36.425 -24.279 -14.847  0.00  0.00    +0.175 HD
ENDROOT
BRANCH   4   9
ATOM      7  O   UNL     1      33.926 -23.567 -17.582  0.00  0.00    -0.268 OA
ATOM      8  N   UNL     1      33.700 -23.449 -15.249  0.00  0.00    -0.279 N 
ATOM      9  C   UNL     1      34.430 -23.343 -16.455  0.00  0.00    +0.266 C 
ATOM     10  H   UNL     1      34.209 -23.249 -14.430  0.00  0.00    +0.155 HD
BRANCH   8  12
ATOM     11  F   UNL     1      28.389 -24.833 -14.454  0.00  0.00    -0.204 F 
ATOM     12  C   UNL     1      32.344 -23.803 -15.046  0.00  0.00    +0.051 C 
ATOM     13  C   UNL     1      31.340 -23.165 -15.775  0.00  0.00    +0.017 C 
ATOM     14  C   UNL     1      32.011 -24.789 -14.117  0.00  0.00    +0.017 C 
ATOM     15  C   UNL     1      30.005 -23.513 -15.575  0.00  0.00    +0.031 C 
ATOM     16  C   UNL     1      30.675 -25.137 -13.917  0.00  0.00    +0.031 C 
ATOM     17  C   UNL     1      29.672 -24.499 -14.646  0.00  0.00    +0.140 C 
ENDBRANCH   8  12
ENDBRANCH   4   9
BRANCH   3  19
ATOM     18  O   UNL     1      35.832 -22.631 -19.893  0.00  0.00    -0.270 OA
ATOM     19  N   UNL     1      36.063 -21.186 -18.059  0.00  0.00    -0.278 N 
ATOM     20  C   UNL     1      35.744 -21.501 -19.387  0.00  0.00    +0.254 C 
ATOM     21  H   UNL     1      35.943 -20.243 -17.802  0.00  0.00    +0.155 HD
BRANCH  20  24
ATOM     22  F   UNL     1      33.038 -21.040 -19.960  0.00  0.00    -0.204 F 
ATOM     23  F   UNL     1      37.553 -19.678 -20.514  0.00  0.00    -0.204 F 
ATOM     24  C   UNL     1      35.307 -20.388 -20.215  0.00  0.00    +0.108 C 
ATOM     25  C   UNL     1      33.948 -20.201 -20.472  0.00  0.00    +0.147 C 
ATOM     26  C   UNL     1      36.246 -19.508 -20.754  0.00  0.00    +0.147 C 
ATOM     27  C   UNL     1      33.529 -19.134 -21.267  0.00  0.00    +0.030 C 
ATOM     28  C   UNL     1      35.827 -18.441 -21.549  0.00  0.00    +0.030 C 
ATOM     29  C   UNL     1      34.468 -18.254 -21.805  0.00  0.00    +0.005 C 
ENDBRANCH  20  24
ENDBRANCH   3  19
TORSDOF 4
ENDMDL
MODEL 5
REMARK VINA RESULT:     -10.9      5.729      8.542
REMARK  Name = 24864079
REMARK  4 active torsions:
REMARK  status: ('A' for Active; 'I' for Inactive)
REMARK    1  A    between atoms: C_3  and  N_19
REMARK    2  A    between atoms: C_4  and  C_9
REMARK    3  A    between atoms: N_8  and  C_12
REMARK    4  A    between atoms: C_20  and  C_24
REMARK                            x       y       z     vdW  Elec       q    Type
REMARK                         _______ _______ _______ _____ _____    ______ ____
ROOT
ATOM      1  N   UNL     1      34.611 -16.305 -25.007  0.00  0.00    -0.230 N 
ATOM      2  N   UNL     1      34.887 -17.306 -25.859  0.00  0.00    -0.178 NA
ATOM      3  C   UNL     1      34.505 -18.085 -23.746  0.00  0.00    +0.091 C 
ATOM      4  C   UNL     1      34.374 -16.717 -23.728  0.00  0.00    +0.134 C 
ATOM      5  C   UNL     1      34.820 -18.391 -25.082  0.00  0.00    +0.134 C 
ATOM      6  H   UNL     1      34.582 -15.359 -25.281  0.00  0.00    +0.175 HD
ENDROOT
BRANCH   4   9
ATOM      7  O   UNL     1      34.644 -15.968 -21.543  0.00  0.00    -0.268 OA
ATOM      8  N   UNL     1      33.099 -14.834 -22.898  0.00  0.00    -0.279 N 
ATOM      9  C   UNL     1      34.061 -15.841 -22.646  0.00  0.00    +0.266 C 
ATOM     10  H   UNL     1      32.714 -14.838 -23.804  0.00  0.00    +0.155 HD
BRANCH   8  12
ATOM     11  F   UNL     1      31.184 -10.868 -19.528  0.00  0.00    -0.204 F 
ATOM     12  C   UNL     1      32.610 -13.821 -22.037  0.00  0.00    +0.051 C 
ATOM     13  C   UNL     1      32.099 -12.639 -22.571  0.00  0.00    +0.017 C 
ATOM     14  C   UNL     1      32.640 -14.007 -20.654  0.00  0.00    +0.017 C 
ATOM     15  C   UNL     1      31.617 -11.642 -21.724  0.00  0.00    +0.031 C 
ATOM     16  C   UNL     1      32.158 -13.009 -19.807  0.00  0.00    +0.031 C 
ATOM     17  C   UNL     1      31.647 -11.826 -20.341  0.00  0.00    +0.140 C 
ENDBRANCH   8  12
ENDBRANCH   4   9
BRANCH   3  19
ATOM     18  O   UNL     1      36.347 -18.665 -21.453  0.00  0.00    -0.270 OA
ATOM     19  N   UNL     1      34.353 -18.971 -22.651  0.00  0.00    -0.278 N 
ATOM     20  C   UNL     1      35.242 -19.213 -21.595  0.00  0.00    +0.254 C 
ATOM     21  H   UNL     1      33.513 -19.485 -22.629  0.00  0.00    +0.155 HD
BRANCH  20  24
ATOM     22  F   UNL     1      32.554 -19.533 -20.862  0.00  0.00    -0.204 F 
ATOM     23  F   UNL     1      37.060 -20.938 -20.337  0.00  0.00    -0.204 F 
ATOM     24  C   UNL     1      34.818 -20.210 -20.624  0.00  0.00    +0.108 C 
ATOM     25  C   UNL     1      33.468 -20.330 -20.292  0.00  0.00    +0.147 C 
ATOM     26  C   UNL     1      35.761 -21.045 -20.025  0.00  0.00    +0.147 C 
ATOM     27  C   UNL     1      33.062 -21.285 -19.360  0.00  0.00    +0.030 C 
ATOM     28  C   UNL     1      35.355 -22.000 -19.093  0.00  0.00    +0.030 C 
ATOM     29  C   UNL     1      34.005 -22.120 -18.760  0.00  0.00    +0.005 C 
ENDBRANCH  20  24
ENDBRANCH   3  19
TORSDOF 4
ENDMDL
MODEL 6
REMARK VINA RESULT:     -10.9      7.069     10.318
REMARK  Name = 24864079
REMARK  4 active torsions:
REMARK  status: ('A' for Active; 'I' for Inactive)
REMARK    1  A    between atoms: C_3  and  N_19
REMARK    2  A    between atoms: C_4  and  C_9
REMARK    3  A    between atoms: N_8  and  C_12
REMARK    4  A    between atoms: C_20  and  C_24
REMARK                            x       y       z     vdW  Elec       q    Type
REMARK                         _______ _______ _______ _____ _____    ______ ____
ROOT
ATOM      1  N   UNL     1      33.280 -14.461 -25.506  0.00  0.00    -0.230 N 
ATOM      2  N   UNL     1      33.449 -15.395 -26.456  0.00  0.00    -0.178 NA
ATOM      3  C   UNL     1      34.018 -16.189 -24.391  0.00  0.00    +0.091 C 
ATOM      4  C   UNL     1      33.607 -14.885 -24.250  0.00  0.00    +0.134 C 
ATOM      5  C   UNL     1      33.899 -16.449 -25.769  0.00  0.00    +0.134 C 
ATOM      6  H   UNL     1      32.950 -13.553 -25.697  0.00  0.00    +0.175 HD
ENDROOT
BRANCH   4   9
ATOM      7  O   UNL     1      34.346 -14.212 -22.151  0.00  0.00    -0.268 OA
ATOM      8  N   UNL     1      32.469 -13.122 -23.043  0.00  0.00    -0.279 N 
ATOM      9  C   UNL     1      33.513 -14.076 -23.079  0.00  0.00    +0.266 C 
ATOM     10  H   UNL     1      31.882 -13.113 -23.833  0.00  0.00    +0.155 HD
BRANCH   8  12
ATOM     11  F   UNL     1      31.204  -9.426 -19.107  0.00  0.00    -0.204 F 
ATOM     12  C   UNL     1      32.146 -12.178 -22.038  0.00  0.00    +0.051 C 
ATOM     13  C   UNL     1      32.044 -10.825 -22.359  0.00  0.00    +0.017 C 
ATOM     14  C   UNL     1      31.929 -12.603 -20.727  0.00  0.00    +0.017 C 
ATOM     15  C   UNL     1      31.726  -9.896 -21.369  0.00  0.00    +0.031 C 
ATOM     16  C   UNL     1      31.611 -11.673 -19.737  0.00  0.00    +0.031 C 
ATOM     17  C   UNL     1      31.510 -10.319 -20.058  0.00  0.00    +0.140 C 
ENDBRANCH   8  12
ENDBRANCH   4   9
BRANCH   3  19
ATOM     18  O   UNL     1      34.574 -19.134 -24.457  0.00  0.00    -0.270 OA
ATOM     19  N   UNL     1      34.460 -17.060 -23.365  0.00  0.00    -0.278 N 
ATOM     20  C   UNL     1      34.709 -18.437 -23.438  0.00  0.00    +0.254 C 
ATOM     21  H   UNL     1      34.612 -16.644 -22.486  0.00  0.00    +0.155 HD
BRANCH  20  24
ATOM     22  F   UNL     1      37.355 -18.300 -22.518  0.00  0.00    -0.204 F 
ATOM     23  F   UNL     1      32.930 -19.878 -21.818  0.00  0.00    -0.204 F 
ATOM     24  C   UNL     1      35.132 -19.072 -22.200  0.00  0.00    +0.108 C 
ATOM     25  C   UNL     1      36.460 -18.976 -21.784  0.00  0.00    +0.147 C 
ATOM     26  C   UNL     1      34.209 -19.779 -21.428  0.00  0.00    +0.147 C 
ATOM     27  C   UNL     1      36.865 -19.586 -20.597  0.00  0.00    +0.030 C 
ATOM     28  C   UNL     1      34.614 -20.389 -20.241  0.00  0.00    +0.030 C 
ATOM     29  C   UNL     1      35.942 -20.292 -19.825  0.00  0.00    +0.005 C 
ENDBRANCH  20  24
ENDBRANCH   3  19
TORSDOF 4
ENDMDL
MODEL 7
REMARK VINA RESULT:     -10.7      6.330     10.135
REMARK  Name = 24864079
REMARK  4 active torsions:
REMARK  status: ('A' for Active; 'I' for Inactive)
REMARK    1  A    between atoms: C_3  and  N_19
REMARK    2  A    between atoms: C_4  and  C_9
REMARK    3  A    between atoms: N_8  and  C_12
REMARK    4  A    between atoms: C_20  and  C_24
REMARK                            x       y       z     vdW  Elec       q    Type
REMARK                         _______ _______ _______ _____ _____    ______ ____
ROOT
ATOM      1  N   UNL     1      34.902 -17.630 -24.777  0.00  0.00    -0.230 N 
ATOM      2  N   UNL     1      34.703 -16.874 -25.870  0.00  0.00    -0.178 NA
ATOM      3  C   UNL     1      33.904 -15.853 -23.990  0.00  0.00    +0.091 C 
ATOM      4  C   UNL     1      34.442 -17.064 -23.624  0.00  0.00    +0.134 C 
ATOM      5  C   UNL     1      34.094 -15.790 -25.382  0.00  0.00    +0.134 C 
ATOM      6  H   UNL     1      35.340 -18.511 -24.805  0.00  0.00    +0.175 HD
ENDROOT
BRANCH   4   9
ATOM      7  O   UNL     1      34.675 -16.962 -21.312  0.00  0.00    -0.268 OA
ATOM      8  N   UNL     1      34.443 -19.083 -22.289  0.00  0.00    -0.279 N 
ATOM      9  C   UNL     1      34.537 -17.673 -22.337  0.00  0.00    +0.266 C 
ATOM     10  H   UNL     1      34.335 -19.527 -23.161  0.00  0.00    +0.155 HD
BRANCH   8  12
ATOM     11  F   UNL     1      34.586 -22.479 -17.906  0.00  0.00    -0.204 F 
ATOM     12  C   UNL     1      34.479 -19.950 -21.169  0.00  0.00    +0.051 C 
ATOM     13  C   UNL     1      33.291 -20.366 -20.569  0.00  0.00    +0.017 C 
ATOM     14  C   UNL     1      35.705 -20.390 -20.667  0.00  0.00    +0.017 C 
ATOM     15  C   UNL     1      33.327 -21.219 -19.468  0.00  0.00    +0.031 C 
ATOM     16  C   UNL     1      35.740 -21.244 -19.565  0.00  0.00    +0.031 C 
ATOM     17  C   UNL     1      34.551 -21.658 -18.965  0.00  0.00    +0.140 C 
ENDBRANCH   8  12
ENDBRANCH   4   9
BRANCH   3  19
ATOM     18  O   UNL     1      34.128 -12.864 -23.967  0.00  0.00    -0.270 OA
ATOM     19  N   UNL     1      33.298 -14.896 -23.139  0.00  0.00    -0.278 N 
ATOM     20  C   UNL     1      33.429 -13.502 -23.162  0.00  0.00    +0.254 C 
ATOM     21  H   UNL     1      32.706 -15.258 -22.440  0.00  0.00    +0.155 HD
BRANCH  20  24
ATOM     22  F   UNL     1      32.253 -11.002 -23.647  0.00  0.00    -0.204 F 
ATOM     23  F   UNL     1      33.106 -14.516 -20.568  0.00  0.00    -0.204 F 
ATOM     24  C   UNL     1      32.698 -12.778 -22.134  0.00  0.00    +0.108 C 
ATOM     25  C   UNL     1      32.131 -11.537 -22.424  0.00  0.00    +0.147 C 
ATOM     26  C   UNL     1      32.565 -13.324 -20.858  0.00  0.00    +0.147 C 
ATOM     27  C   UNL     1      31.430 -10.843 -21.438  0.00  0.00    +0.030 C 
ATOM     28  C   UNL     1      31.864 -12.630 -19.871  0.00  0.00    +0.030 C 
ATOM     29  C   UNL     1      31.297 -11.389 -20.161  0.00  0.00    +0.005 C 
ENDBRANCH  20  24
ENDBRANCH   3  19
TORSDOF 4
ENDMDL
MODEL 8
REMARK VINA RESULT:     -10.6      2.573      7.117
REMARK  Name = 24864079
REMARK  4 active torsions:
REMARK  status: ('A' for Active; 'I' for Inactive)
REMARK    1  A    between atoms: C_3  and  N_19
REMARK    2  A    between atoms: C_4  and  C_9
REMARK    3  A    between atoms: N_8  and  C_12
REMARK    4  A    between atoms: C_20  and  C_24
REMARK                            x       y       z     vdW  Elec       q    Type
REMARK                         _______ _______ _______ _____ _____    ______ ____
ROOT
ATOM      1  N   UNL     1      32.246 -24.166 -15.318  0.00  0.00    -0.230 N 
ATOM      2  N   UNL     1      31.009 -23.926 -15.783  0.00  0.00    -0.178 NA
ATOM      3  C   UNL     1      32.588 -22.786 -16.976  0.00  0.00    +0.091 C 
ATOM      4  C   UNL     1      33.229 -23.508 -15.998  0.00  0.00    +0.134 C 
ATOM      5  C   UNL     1      31.225 -23.083 -16.797  0.00  0.00    +0.134 C 
ATOM      6  H   UNL     1      32.428 -24.763 -14.556  0.00  0.00    +0.175 HD
ENDROOT
BRANCH   4   9
ATOM      7  O   UNL     1      35.407 -22.693 -16.051  0.00  0.00    -0.268 OA
ATOM      8  N   UNL     1      35.037 -24.735 -14.955  0.00  0.00    -0.279 N 
ATOM      9  C   UNL     1      34.620 -23.601 -15.691  0.00  0.00    +0.266 C 
ATOM     10  H   UNL     1      34.323 -25.376 -14.731  0.00  0.00    +0.155 HD
BRANCH   8  12
ATOM     11  F   UNL     1      40.098 -26.095 -13.143  0.00  0.00    -0.204 F 
ATOM     12  C   UNL     1      36.329 -25.082 -14.492  0.00  0.00    +0.051 C 
ATOM     13  C   UNL     1      37.015 -26.149 -15.073  0.00  0.00    +0.017 C 
ATOM     14  C   UNL     1      36.917 -24.356 -13.456  0.00  0.00    +0.017 C 
ATOM     15  C   UNL     1      38.287 -26.491 -14.617  0.00  0.00    +0.031 C 
ATOM     16  C   UNL     1      38.191 -24.699 -13.000  0.00  0.00    +0.031 C 
ATOM     17  C   UNL     1      38.876 -25.766 -13.580  0.00  0.00    +0.140 C 
ENDBRANCH   8  12
ENDBRANCH   4   9
BRANCH   3  19
ATOM     18  O   UNL     1      33.997 -23.456 -19.536  0.00  0.00    -0.270 OA
ATOM     19  N   UNL     1      33.186 -21.938 -17.941  0.00  0.00    -0.278 N 
ATOM     20  C   UNL     1      33.837 -22.293 -19.130  0.00  0.00    +0.254 C 
ATOM     21  H   UNL     1      33.137 -20.973 -17.752  0.00  0.00    +0.155 HD
BRANCH  20  24
ATOM     22  F   UNL     1      36.576 -21.693 -19.166  0.00  0.00    -0.204 F 
ATOM     23  F   UNL     1      32.207 -20.632 -20.696  0.00  0.00    -0.204 F 
ATOM     24  C   UNL     1      34.378 -21.191 -19.911  0.00  0.00    +0.108 C 
ATOM     25  C   UNL     1      35.749 -20.933 -19.896  0.00  0.00    +0.147 C 
ATOM     26  C   UNL     1      33.526 -20.393 -20.674  0.00  0.00    +0.147 C 
ATOM     27  C   UNL     1      36.267 -19.876 -20.644  0.00  0.00    +0.030 C 
ATOM     28  C   UNL     1      34.044 -19.336 -21.422  0.00  0.00    +0.030 C 
ATOM     29  C   UNL     1      35.415 -19.077 -21.408  0.00  0.00    +0.005 C 
ENDBRANCH  20  24
ENDBRANCH   3  19
TORSDOF 4
ENDMDL
MODEL 9
REMARK VINA RESULT:     -10.5      2.545      4.756
REMARK  Name = 24864079
REMARK  4 active torsions:
REMARK  status: ('A' for Active; 'I' for Inactive)
REMARK    1  A    between atoms: C_3  and  N_19
REMARK    2  A    between atoms: C_4  and  C_9
REMARK    3  A    between atoms: N_8  and  C_12
REMARK    4  A    between atoms: C_20  and  C_24
REMARK                            x       y       z     vdW  Elec       q    Type
REMARK                         _______ _______ _______ _____ _____    ______ ____
ROOT
ATOM      1  N   UNL     1      31.066 -23.016 -16.913  0.00  0.00    -0.230 N 
ATOM      2  N   UNL     1      30.480 -23.458 -15.789  0.00  0.00    -0.178 NA
ATOM      3  C   UNL     1      32.746 -23.727 -15.712  0.00  0.00    +0.091 C 
ATOM      4  C   UNL     1      32.424 -23.154 -16.919  0.00  0.00    +0.134 C 
ATOM      5  C   UNL     1      31.511 -23.890 -15.058  0.00  0.00    +0.134 C 
ATOM      6  H   UNL     1      30.563 -22.628 -17.665  0.00  0.00    +0.175 HD
ENDROOT
BRANCH   4   9
ATOM      7  O   UNL     1      34.192 -23.515 -18.385  0.00  0.00    -0.268 OA
ATOM      8  N   UNL     1      32.987 -21.514 -18.607  0.00  0.00    -0.279 N 
ATOM      9  C   UNL     1      33.267 -22.760 -18.000  0.00  0.00    +0.266 C 
ATOM     10  H   UNL     1      32.234 -21.015 -18.214  0.00  0.00    +0.155 HD
BRANCH   8  12
ATOM     11  F   UNL     1      35.500 -19.029 -22.881  0.00  0.00    -0.204 F 
ATOM     12  C   UNL     1      33.629 -20.879 -19.699  0.00  0.00    +0.051 C 
ATOM     13  C   UNL     1      32.880 -20.142 -20.616  0.00  0.00    +0.017 C 
ATOM     14  C   UNL     1      35.010 -20.991 -19.856  0.00  0.00    +0.017 C 
ATOM     15  C   UNL     1      33.512 -19.517 -21.690  0.00  0.00    +0.031 C 
ATOM     16  C   UNL     1      35.642 -20.366 -20.931  0.00  0.00    +0.031 C 
ATOM     17  C   UNL     1      34.893 -19.630 -21.849  0.00  0.00    +0.140 C 
ENDBRANCH   8  12
ENDBRANCH   4   9
BRANCH   3  19
ATOM     18  O   UNL     1      33.708 -24.354 -12.943  0.00  0.00    -0.270 OA
ATOM     19  N   UNL     1      34.040 -24.070 -15.248  0.00  0.00    -0.278 N 
ATOM     20  C   UNL     1      34.449 -24.357 -13.939  0.00  0.00    +0.254 C 
ATOM     21  H   UNL     1      34.745 -24.111 -15.935  0.00  0.00    +0.155 HD
BRANCH  20  24
ATOM     22  F   UNL     1      35.756 -26.340 -15.432  0.00  0.00    -0.204 F 
ATOM     23  F   UNL     1      36.045 -22.977 -12.091  0.00  0.00    -0.204 F 
ATOM     24  C   UNL     1      35.864 -24.651 -13.766  0.00  0.00    +0.108 C 
ATOM     25  C   UNL     1      36.468 -25.647 -14.533  0.00  0.00    +0.147 C 
ATOM     26  C   UNL     1      36.615 -23.936 -12.833  0.00  0.00    +0.147 C 
ATOM     27  C   UNL     1      37.824 -25.929 -14.366  0.00  0.00    +0.030 C 
ATOM     28  C   UNL     1      37.971 -24.218 -12.666  0.00  0.00    +0.030 C 
ATOM     29  C   UNL     1      38.576 -25.214 -13.433  0.00  0.00    +0.005 C 
ENDBRANCH  20  24
ENDBRANCH   3  19
TORSDOF 4
ENDMDL
