MODEL 1
REMARK VINA RESULT:      -8.1      0.000      0.000
REMARK  Name = 22747857
REMARK  5 active torsions:
REMARK  status: ('A' for Active; 'I' for Inactive)
REMARK    1  A    between atoms: O_1  and  C_4
REMARK    2  A    between atoms: O_1  and  C_10
REMARK    3  A    between atoms: N_3  and  C_6
REMARK    4  A    between atoms: C_6  and  C_8
REMARK    5  A    between atoms: C_10  and  C_11
REMARK                            x       y       z     vdW  Elec       q    Type
REMARK                         _______ _______ _______ _____ _____    ______ ____
ROOT
ATOM      1  O   UNL     1      35.415 -17.448 -20.623  0.00  0.00    -0.430 OA
ENDROOT
BRANCH   1   4
ATOM      2  O   UNL     1      34.518 -15.361 -20.966  0.00  0.00    -0.226 OA
ATOM      3  N   UNL     1      35.071 -16.760 -22.732  0.00  0.00    -0.264 N 
ATOM      4  C   UNL     1      34.959 -16.420 -21.401  0.00  0.00    +0.402 C 
ATOM      5  H   UNL     1      35.442 -17.644 -22.956  0.00  0.00    +0.153 HD
BRANCH   3   6
ATOM      6  C   UNL     1      34.674 -15.892 -23.817  0.00  0.00    +0.157 C 
BRANCH   6   8
ATOM      7  O   UNL     1      34.028 -16.034 -26.107  0.00  0.00    -0.294 OA
ATOM      8  C   UNL     1      34.349 -16.650 -25.088  0.00  0.00    +0.171 C 
ATOM      9  C   UNL     1      34.417 -18.155 -25.093  0.00  0.00    +0.074 C 
ENDBRANCH   6   8
ENDBRANCH   3   6
ENDBRANCH   1   4
BRANCH   1  10
ATOM     10  C   UNL     1      35.776 -18.646 -21.318  0.00  0.00    +0.237 C 
BRANCH  10  11
ATOM     11  C   UNL     1      35.131 -19.819 -20.641  0.00  0.00    +0.021 C 
ATOM     12  C   UNL     1      33.740 -19.931 -20.614  0.00  0.00    -0.001 C 
ATOM     13  C   UNL     1      35.922 -20.798 -20.039  0.00  0.00    -0.001 C 
ATOM     14  C   UNL     1      33.141 -21.022 -19.984  0.00  0.00    -0.000 C 
ATOM     15  C   UNL     1      35.322 -21.889 -19.409  0.00  0.00    -0.000 C 
ATOM     16  C   UNL     1      33.932 -22.000 -19.382  0.00  0.00    -0.000 C 
ENDBRANCH  10  11
ENDBRANCH   1  10
TORSDOF 5
ENDMDL
MODEL 2
REMARK VINA RESULT:      -8.1      0.026      1.248
REMARK  Name = 22747857
REMARK  5 active torsions:
REMARK  status: ('A' for Active; 'I' for Inactive)
REMARK    1  A    between atoms: O_1  and  C_4
REMARK    2  A    between atoms: O_1  and  C_10
REMARK    3  A    between atoms: N_3  and  C_6
REMARK    4  A    between atoms: C_6  and  C_8
REMARK    5  A    between atoms: C_10  and  C_11
REMARK                            x       y       z     vdW  Elec       q    Type
REMARK                         _______ _______ _______ _____ _____    ______ ____
ROOT
ATOM      1  O   UNL     1      35.391 -17.464 -20.624  0.00  0.00    -0.430 OA
ENDROOT
BRANCH   1   4
ATOM      2  O   UNL     1      34.546 -15.357 -20.972  0.00  0.00    -0.226 OA
ATOM      3  N   UNL     1      35.073 -16.770 -22.735  0.00  0.00    -0.264 N 
ATOM      4  C   UNL     1      34.963 -16.427 -21.404  0.00  0.00    +0.402 C 
ATOM      5  H   UNL     1      35.424 -17.663 -22.957  0.00  0.00    +0.153 HD
BRANCH   3   6
ATOM      6  C   UNL     1      34.703 -15.893 -23.822  0.00  0.00    +0.157 C 
BRANCH   6   8
ATOM      7  O   UNL     1      34.023 -16.022 -26.103  0.00  0.00    -0.294 OA
ATOM      8  C   UNL     1      34.359 -16.644 -25.092  0.00  0.00    +0.171 C 
ATOM      9  C   UNL     1      34.427 -18.149 -25.107  0.00  0.00    +0.074 C 
ENDBRANCH   6   8
ENDBRANCH   3   6
ENDBRANCH   1   4
BRANCH   1  10
ATOM     10  C   UNL     1      35.755 -18.662 -21.320  0.00  0.00    +0.237 C 
BRANCH  10  11
ATOM     11  C   UNL     1      35.124 -19.838 -20.633  0.00  0.00    +0.021 C 
ATOM     12  C   UNL     1      35.927 -20.811 -20.038  0.00  0.00    -0.001 C 
ATOM     13  C   UNL     1      33.735 -19.957 -20.591  0.00  0.00    -0.001 C 
ATOM     14  C   UNL     1      35.339 -21.903 -19.399  0.00  0.00    -0.000 C 
ATOM     15  C   UNL     1      33.148 -21.050 -19.952  0.00  0.00    -0.000 C 
ATOM     16  C   UNL     1      33.951 -22.023 -19.357  0.00  0.00    -0.000 C 
ENDBRANCH  10  11
ENDBRANCH   1  10
TORSDOF 5
ENDMDL
MODEL 3
REMARK VINA RESULT:      -7.8      0.859      1.629
REMARK  Name = 22747857
REMARK  5 active torsions:
REMARK  status: ('A' for Active; 'I' for Inactive)
REMARK    1  A    between atoms: O_1  and  C_4
REMARK    2  A    between atoms: O_1  and  C_10
REMARK    3  A    between atoms: N_3  and  C_6
REMARK    4  A    between atoms: C_6  and  C_8
REMARK    5  A    between atoms: C_10  and  C_11
REMARK                            x       y       z     vdW  Elec       q    Type
REMARK                         _______ _______ _______ _____ _____    ______ ____
ROOT
ATOM      1  O   UNL     1      35.272 -17.846 -20.845  0.00  0.00    -0.430 OA
ENDROOT
BRANCH   1   4
ATOM      2  O   UNL     1      34.926 -15.578 -20.746  0.00  0.00    -0.226 OA
ATOM      3  N   UNL     1      34.687 -16.767 -22.724  0.00  0.00    -0.264 N 
ATOM      4  C   UNL     1      34.958 -16.628 -21.380  0.00  0.00    +0.402 C 
ATOM      5  H   UNL     1      34.747 -17.666 -23.120  0.00  0.00    +0.153 HD
BRANCH   3   6
ATOM      6  C   UNL     1      34.320 -15.666 -23.586  0.00  0.00    +0.157 C 
BRANCH   6   8
ATOM      7  O   UNL     1      34.610 -17.134 -25.441  0.00  0.00    -0.294 OA
ATOM      8  C   UNL     1      34.100 -16.092 -25.022  0.00  0.00    +0.171 C 
ATOM      9  C   UNL     1      33.258 -15.233 -25.931  0.00  0.00    +0.074 C 
ENDBRANCH   6   8
ENDBRANCH   3   6
ENDBRANCH   1   4
BRANCH   1  10
ATOM     10  C   UNL     1      34.743 -18.986 -21.532  0.00  0.00    +0.237 C 
BRANCH  10  11
ATOM     11  C   UNL     1      34.628 -20.130 -20.567  0.00  0.00    +0.021 C 
ATOM     12  C   UNL     1      35.779 -20.741 -20.070  0.00  0.00    -0.001 C 
ATOM     13  C   UNL     1      33.370 -20.580 -20.167  0.00  0.00    -0.001 C 
ATOM     14  C   UNL     1      35.672 -21.804 -19.173  0.00  0.00    -0.000 C 
ATOM     15  C   UNL     1      33.263 -21.643 -19.269  0.00  0.00    -0.000 C 
ATOM     16  C   UNL     1      34.414 -22.255 -18.773  0.00  0.00    -0.000 C 
ENDBRANCH  10  11
ENDBRANCH   1  10
TORSDOF 5
ENDMDL
MODEL 4
REMARK VINA RESULT:      -7.7      1.588      2.915
REMARK  Name = 22747857
REMARK  5 active torsions:
REMARK  status: ('A' for Active; 'I' for Inactive)
REMARK    1  A    between atoms: O_1  and  C_4
REMARK    2  A    between atoms: O_1  and  C_10
REMARK    3  A    between atoms: N_3  and  C_6
REMARK    4  A    between atoms: C_6  and  C_8
REMARK    5  A    between atoms: C_10  and  C_11
REMARK                            x       y       z     vdW  Elec       q    Type
REMARK                         _______ _______ _______ _____ _____    ______ ____
ROOT
ATOM      1  O   UNL     1      35.345 -18.827 -23.535  0.00  0.00    -0.430 OA
ENDROOT
BRANCH   1   4
ATOM      2  O   UNL     1      34.587 -17.881 -25.487  0.00  0.00    -0.226 OA
ATOM      3  N   UNL     1      34.696 -16.679 -23.506  0.00  0.00    -0.264 N 
ATOM      4  C   UNL     1      34.850 -17.801 -24.291  0.00  0.00    +0.402 C 
ATOM      5  H   UNL     1      34.943 -16.739 -22.555  0.00  0.00    +0.153 HD
BRANCH   3   6
ATOM      6  C   UNL     1      34.194 -15.417 -24.000  0.00  0.00    +0.157 C 
BRANCH   6   8
ATOM      7  O   UNL     1      33.984 -13.163 -23.253  0.00  0.00    -0.294 OA
ATOM      8  C   UNL     1      34.146 -14.344 -22.933  0.00  0.00    +0.171 C 
ATOM      9  C   UNL     1      34.303 -14.729 -21.485  0.00  0.00    +0.074 C 
ENDBRANCH   6   8
ENDBRANCH   3   6
ENDBRANCH   1   4
BRANCH   1  10
ATOM     10  C   UNL     1      35.658 -18.508 -22.175  0.00  0.00    +0.237 C 
BRANCH  10  11
ATOM     11  C   UNL     1      34.945 -19.469 -21.270  0.00  0.00    +0.021 C 
ATOM     12  C   UNL     1      35.672 -20.405 -20.534  0.00  0.00    -0.001 C 
ATOM     13  C   UNL     1      33.555 -19.425 -21.164  0.00  0.00    -0.001 C 
ATOM     14  C   UNL     1      35.008 -21.297 -19.692  0.00  0.00    -0.000 C 
ATOM     15  C   UNL     1      32.891 -20.318 -20.321  0.00  0.00    -0.000 C 
ATOM     16  C   UNL     1      33.619 -21.254 -19.586  0.00  0.00    -0.000 C 
ENDBRANCH  10  11
ENDBRANCH   1  10
TORSDOF 5
ENDMDL
MODEL 5
REMARK VINA RESULT:      -7.6      4.955      7.810
REMARK  Name = 22747857
REMARK  5 active torsions:
REMARK  status: ('A' for Active; 'I' for Inactive)
REMARK    1  A    between atoms: O_1  and  C_4
REMARK    2  A    between atoms: O_1  and  C_10
REMARK    3  A    between atoms: N_3  and  C_6
REMARK    4  A    between atoms: C_6  and  C_8
REMARK    5  A    between atoms: C_10  and  C_11
REMARK                            x       y       z     vdW  Elec       q    Type
REMARK                         _______ _______ _______ _____ _____    ______ ____
ROOT
ATOM      1  O   UNL     1      33.281 -22.941 -18.630  0.00  0.00    -0.430 OA
ENDROOT
BRANCH   1   4
ATOM      2  O   UNL     1      33.534 -23.481 -16.411  0.00  0.00    -0.226 OA
ATOM      3  N   UNL     1      31.508 -22.745 -17.267  0.00  0.00    -0.264 N 
ATOM      4  C   UNL     1      32.839 -23.093 -17.345  0.00  0.00    +0.402 C 
ATOM      5  H   UNL     1      31.057 -22.446 -18.090  0.00  0.00    +0.153 HD
BRANCH   3   6
ATOM      6  C   UNL     1      30.736 -22.794 -16.047  0.00  0.00    +0.157 C 
BRANCH   6   8
ATOM      7  O   UNL     1      28.600 -21.997 -16.741  0.00  0.00    -0.294 OA
ATOM      8  C   UNL     1      29.250 -22.946 -16.296  0.00  0.00    +0.171 C 
ATOM      9  C   UNL     1      28.577 -24.259 -15.992  0.00  0.00    +0.074 C 
ENDBRANCH   6   8
ENDBRANCH   3   6
ENDBRANCH   1   4
BRANCH   1  10
ATOM     10  C   UNL     1      34.581 -22.360 -18.779  0.00  0.00    +0.237 C 
BRANCH  10  11
ATOM     11  C   UNL     1      34.490 -21.187 -19.711  0.00  0.00    +0.021 C 
ATOM     12  C   UNL     1      35.652 -20.606 -20.218  0.00  0.00    -0.001 C 
ATOM     13  C   UNL     1      33.241 -20.680 -20.071  0.00  0.00    -0.001 C 
ATOM     14  C   UNL     1      35.566 -19.516 -21.084  0.00  0.00    -0.000 C 
ATOM     15  C   UNL     1      33.156 -19.590 -20.938  0.00  0.00    -0.000 C 
ATOM     16  C   UNL     1      34.318 -19.008 -21.444  0.00  0.00    -0.000 C 
ENDBRANCH  10  11
ENDBRANCH   1  10
TORSDOF 5
ENDMDL
MODEL 6
REMARK VINA RESULT:      -7.6      5.334      8.220
REMARK  Name = 22747857
REMARK  5 active torsions:
REMARK  status: ('A' for Active; 'I' for Inactive)
REMARK    1  A    between atoms: O_1  and  C_4
REMARK    2  A    between atoms: O_1  and  C_10
REMARK    3  A    between atoms: N_3  and  C_6
REMARK    4  A    between atoms: C_6  and  C_8
REMARK    5  A    between atoms: C_10  and  C_11
REMARK                            x       y       z     vdW  Elec       q    Type
REMARK                         _______ _______ _______ _____ _____    ______ ____
ROOT
ATOM      1  O   UNL     1      32.690 -22.708 -18.409  0.00  0.00    -0.430 OA
ENDROOT
BRANCH   1   4
ATOM      2  O   UNL     1      33.077 -23.470 -16.277  0.00  0.00    -0.226 OA
ATOM      3  N   UNL     1      30.985 -22.728 -16.950  0.00  0.00    -0.264 N 
ATOM      4  C   UNL     1      32.321 -23.013 -17.129  0.00  0.00    +0.402 C 
ATOM      5  H   UNL     1      30.481 -22.362 -17.713  0.00  0.00    +0.153 HD
BRANCH   3   6
ATOM      6  C   UNL     1      30.280 -22.936 -15.706  0.00  0.00    +0.157 C 
BRANCH   6   8
ATOM      7  O   UNL     1      28.518 -24.400 -16.363  0.00  0.00    -0.294 OA
ATOM      8  C   UNL     1      29.526 -24.249 -15.668  0.00  0.00    +0.171 C 
ATOM      9  C   UNL     1      30.015 -25.361 -14.777  0.00  0.00    +0.074 C 
ENDBRANCH   6   8
ENDBRANCH   3   6
ENDBRANCH   1   4
BRANCH   1  10
ATOM     10  C   UNL     1      34.085 -22.460 -18.616  0.00  0.00    +0.237 C 
BRANCH  10  11
ATOM     11  C   UNL     1      34.242 -21.314 -19.572  0.00  0.00    +0.021 C 
ATOM     12  C   UNL     1      33.116 -20.629 -20.031  0.00  0.00    -0.001 C 
ATOM     13  C   UNL     1      35.513 -20.933 -20.001  0.00  0.00    -0.001 C 
ATOM     14  C   UNL     1      33.263 -19.563 -20.920  0.00  0.00    -0.000 C 
ATOM     15  C   UNL     1      35.659 -19.866 -20.889  0.00  0.00    -0.000 C 
ATOM     16  C   UNL     1      34.534 -19.183 -21.349  0.00  0.00    -0.000 C 
ENDBRANCH  10  11
ENDBRANCH   1  10
TORSDOF 5
ENDMDL
MODEL 7
REMARK VINA RESULT:      -7.6      1.477      1.843
REMARK  Name = 22747857
REMARK  5 active torsions:
REMARK  status: ('A' for Active; 'I' for Inactive)
REMARK    1  A    between atoms: O_1  and  C_4
REMARK    2  A    between atoms: O_1  and  C_10
REMARK    3  A    between atoms: N_3  and  C_6
REMARK    4  A    between atoms: C_6  and  C_8
REMARK    5  A    between atoms: C_10  and  C_11
REMARK                            x       y       z     vdW  Elec       q    Type
REMARK                         _______ _______ _______ _____ _____    ______ ____
ROOT
ATOM      1  O   UNL     1      35.404 -17.569 -21.074  0.00  0.00    -0.430 OA
ENDROOT
BRANCH   1   4
ATOM      2  O   UNL     1      34.908 -15.546 -20.104  0.00  0.00    -0.226 OA
ATOM      3  N   UNL     1      34.006 -16.177 -22.146  0.00  0.00    -0.264 N 
ATOM      4  C   UNL     1      34.783 -16.352 -21.021  0.00  0.00    +0.402 C 
ATOM      5  H   UNL     1      33.988 -16.900 -22.815  0.00  0.00    +0.153 HD
BRANCH   3   6
ATOM      6  C   UNL     1      33.217 -14.994 -22.400  0.00  0.00    +0.157 C 
BRANCH   6   8
ATOM      7  O   UNL     1      33.367 -15.164 -24.772  0.00  0.00    -0.294 OA
ATOM      8  C   UNL     1      33.436 -14.426 -23.786  0.00  0.00    +0.171 C 
ATOM      9  C   UNL     1      33.742 -12.959 -23.948  0.00  0.00    +0.074 C 
ENDBRANCH   6   8
ENDBRANCH   3   6
ENDBRANCH   1   4
BRANCH   1  10
ATOM     10  C   UNL     1      34.663 -18.622 -21.701  0.00  0.00    +0.237 C 
BRANCH  10  11
ATOM     11  C   UNL     1      34.638 -19.813 -20.789  0.00  0.00    +0.021 C 
ATOM     12  C   UNL     1      33.418 -20.342 -20.366  0.00  0.00    -0.001 C 
ATOM     13  C   UNL     1      35.834 -20.391 -20.365  0.00  0.00    -0.001 C 
ATOM     14  C   UNL     1      33.396 -21.450 -19.518  0.00  0.00    -0.000 C 
ATOM     15  C   UNL     1      35.811 -21.500 -19.517  0.00  0.00    -0.000 C 
ATOM     16  C   UNL     1      34.592 -22.028 -19.094  0.00  0.00    -0.000 C 
ENDBRANCH  10  11
ENDBRANCH   1  10
TORSDOF 5
ENDMDL
MODEL 8
REMARK VINA RESULT:      -7.4      5.419      8.540
REMARK  Name = 22747857
REMARK  5 active torsions:
REMARK  status: ('A' for Active; 'I' for Inactive)
REMARK    1  A    between atoms: O_1  and  C_4
REMARK    2  A    between atoms: O_1  and  C_10
REMARK    3  A    between atoms: N_3  and  C_6
REMARK    4  A    between atoms: C_6  and  C_8
REMARK    5  A    between atoms: C_10  and  C_11
REMARK                            x       y       z     vdW  Elec       q    Type
REMARK                         _______ _______ _______ _____ _____    ______ ____
ROOT
ATOM      1  O   UNL     1      34.873 -22.878 -17.264  0.00  0.00    -0.430 OA
ENDROOT
BRANCH   1   4
ATOM      2  O   UNL     1      35.463 -24.470 -15.717  0.00  0.00    -0.226 OA
ATOM      3  N   UNL     1      33.458 -23.312 -15.577  0.00  0.00    -0.264 N 
ATOM      4  C   UNL     1      34.672 -23.634 -16.143  0.00  0.00    +0.402 C 
ATOM      5  H   UNL     1      32.910 -22.620 -16.014  0.00  0.00    +0.153 HD
BRANCH   3   6
ATOM      6  C   UNL     1      32.943 -23.932 -14.377  0.00  0.00    +0.157 C 
BRANCH   6   8
ATOM      7  O   UNL     1      31.163 -23.530 -12.844  0.00  0.00    -0.294 OA
ATOM      8  C   UNL     1      31.558 -23.440 -14.009  0.00  0.00    +0.171 C 
ATOM      9  C   UNL     1      30.673 -22.846 -15.074  0.00  0.00    +0.074 C 
ENDBRANCH   6   8
ENDBRANCH   3   6
ENDBRANCH   1   4
BRANCH   1  10
ATOM     10  C   UNL     1      33.763 -22.786 -18.164  0.00  0.00    +0.237 C 
BRANCH  10  11
ATOM     11  C   UNL     1      34.037 -21.709 -19.172  0.00  0.00    +0.021 C 
ATOM     12  C   UNL     1      32.982 -20.977 -19.715  0.00  0.00    -0.001 C 
ATOM     13  C   UNL     1      35.349 -21.440 -19.565  0.00  0.00    -0.001 C 
ATOM     14  C   UNL     1      33.238 -19.975 -20.652  0.00  0.00    -0.000 C 
ATOM     15  C   UNL     1      35.604 -20.438 -20.502  0.00  0.00    -0.000 C 
ATOM     16  C   UNL     1      34.548 -19.707 -21.045  0.00  0.00    -0.000 C 
ENDBRANCH  10  11
ENDBRANCH   1  10
TORSDOF 5
ENDMDL
MODEL 9
REMARK VINA RESULT:      -7.3      4.895      8.144
REMARK  Name = 22747857
REMARK  5 active torsions:
REMARK  status: ('A' for Active; 'I' for Inactive)
REMARK    1  A    between atoms: O_1  and  C_4
REMARK    2  A    between atoms: O_1  and  C_10
REMARK    3  A    between atoms: N_3  and  C_6
REMARK    4  A    between atoms: C_6  and  C_8
REMARK    5  A    between atoms: C_10  and  C_11
REMARK                            x       y       z     vdW  Elec       q    Type
REMARK                         _______ _______ _______ _____ _____    ______ ____
ROOT
ATOM      1  O   UNL     1      32.823 -22.589 -18.394  0.00  0.00    -0.430 OA
ENDROOT
BRANCH   1   4
ATOM      2  O   UNL     1      31.738 -23.377 -16.529  0.00  0.00    -0.226 OA
ATOM      3  N   UNL     1      34.051 -23.235 -16.630  0.00  0.00    -0.264 N 
ATOM      4  C   UNL     1      32.773 -23.095 -17.125  0.00  0.00    +0.402 C 
ATOM      5  H   UNL     1      34.805 -22.973 -17.208  0.00  0.00    +0.153 HD
BRANCH   3   6
ATOM      6  C   UNL     1      34.349 -23.745 -15.312  0.00  0.00    +0.157 C 
BRANCH   6   8
ATOM      7  O   UNL     1      35.800 -25.619 -15.566  0.00  0.00    -0.294 OA
ATOM      8  C   UNL     1      35.696 -24.435 -15.237  0.00  0.00    +0.171 C 
ATOM      9  C   UNL     1      36.899 -23.665 -14.757  0.00  0.00    +0.074 C 
ENDBRANCH   6   8
ENDBRANCH   3   6
ENDBRANCH   1   4
BRANCH   1  10
ATOM     10  C   UNL     1      34.122 -22.531 -18.994  0.00  0.00    +0.237 C 
BRANCH  10  11
ATOM     11  C   UNL     1      34.239 -21.264 -19.789  0.00  0.00    +0.021 C 
ATOM     12  C   UNL     1      35.494 -20.800 -20.182  0.00  0.00    -0.001 C 
ATOM     13  C   UNL     1      33.091 -20.552 -20.137  0.00  0.00    -0.001 C 
ATOM     14  C   UNL     1      35.601 -19.622 -20.922  0.00  0.00    -0.000 C 
ATOM     15  C   UNL     1      33.199 -19.374 -20.877  0.00  0.00    -0.000 C 
ATOM     16  C   UNL     1      34.454 -18.909 -21.269  0.00  0.00    -0.000 C 
ENDBRANCH  10  11
ENDBRANCH   1  10
TORSDOF 5
ENDMDL
