MODEL 1
REMARK VINA RESULT:     -10.5      0.000      0.000
REMARK  Name = 11987888
REMARK  9 active torsions:
REMARK  status: ('A' for Active; 'I' for Inactive)
REMARK    1  A    between atoms: N_2  and  C_30
REMARK    2  A    between atoms: C_10  and  O_23
REMARK    3  A    between atoms: C_12  and  C_14
REMARK    4  A    between atoms: C_17  and  N_22
REMARK    5  A    between atoms: O_23  and  C_25
REMARK    6  A    between atoms: C_25  and  C_26
REMARK    7  A    between atoms: C_30  and  C_31
REMARK    8  A    between atoms: C_31  and  C_32
REMARK    9  A    between atoms: C_32  and  O_33
REMARK                            x       y       z     vdW  Elec       q    Type
REMARK                         _______ _______ _______ _____ _____    ______ ____
ROOT
ATOM      1  O   UNL     1      38.221 -22.845 -16.163  0.00  0.00    -0.270 OA
ATOM      2  N   UNL     1      34.126 -22.751 -17.383  0.00  0.00    -0.248 N 
ATOM      3  N   UNL     1      36.121 -22.002 -18.013  0.00  0.00    -0.371 NA
ATOM      4  N   UNL     1      35.926 -23.349 -15.989  0.00  0.00    -0.243 N 
ATOM      5  C   UNL     1      34.003 -22.018 -18.541  0.00  0.00    +0.081 C 
ATOM      6  C   UNL     1      35.241 -21.538 -18.956  0.00  0.00    +0.150 C 
ATOM      7  C   UNL     1      35.407 -22.720 -17.094  0.00  0.00    +0.248 C 
ATOM      8  C   UNL     1      32.860 -21.719 -19.303  0.00  0.00    -0.001 C 
ATOM      9  C   UNL     1      35.417 -20.762 -20.104  0.00  0.00    +0.067 C 
ATOM     10  C   UNL     1      34.269 -20.472 -20.850  0.00  0.00    +0.133 C 
ATOM     11  C   UNL     1      33.013 -20.941 -20.458  0.00  0.00    +0.092 C 
ATOM     12  C   UNL     1      37.271 -23.375 -15.596  0.00  0.00    +0.252 C 
ATOM     13  H   UNL     1      35.288 -23.831 -15.414  0.00  0.00    +0.159 HD
ENDROOT
BRANCH  12  14
ATOM     14  C   UNL     1      37.548 -24.109 -14.333  0.00  0.00    +0.055 C 
ATOM     15  C   UNL     1      36.693 -23.964 -13.239  0.00  0.00    +0.029 C 
ATOM     16  C   UNL     1      38.663 -24.942 -14.241  0.00  0.00    +0.005 C 
ATOM     17  C   UNL     1      36.953 -24.653 -12.055  0.00  0.00    +0.143 C 
ATOM     18  C   UNL     1      38.924 -25.631 -13.055  0.00  0.00    +0.002 C 
ATOM     19  C   UNL     1      38.069 -25.486 -11.963  0.00  0.00    +0.024 C 
BRANCH  17  22
ATOM     20  O   UNL     1      34.939 -25.019 -10.994  0.00  0.00    -0.126 OA
ATOM     21  O   UNL     1      36.485 -23.873  -9.936  0.00  0.00    -0.126 OA
ATOM     22  N   UNL     1      36.084 -24.507 -10.942  0.00  0.00    +0.058 N 
ENDBRANCH  17  22
ENDBRANCH  12  14
BRANCH  10  23
ATOM     23  O   UNL     1      34.384 -19.700 -22.007  0.00  0.00    -0.428 OA
BRANCH  23  25
ATOM     24  O   UNL     1      33.571 -17.809 -20.910  0.00  0.00    -0.250 OA
ATOM     25  C   UNL     1      34.276 -18.331 -21.766  0.00  0.00    +0.320 C 
BRANCH  25  26
ATOM     26  C   UNL     1      35.178 -17.563 -22.740  0.00  0.00    +0.090 C 
ATOM     27  C   UNL     1      35.014 -16.055 -22.510  0.00  0.00    +0.011 C 
ATOM     28  C   UNL     1      36.639 -17.982 -22.524  0.00  0.00    +0.011 C 
ATOM     29  C   UNL     1      34.772 -17.897 -24.184  0.00  0.00    +0.011 C 
ENDBRANCH  25  26
ENDBRANCH  23  25
ENDBRANCH  10  23
BRANCH   2  30
ATOM     30  C   UNL     1      33.054 -23.400 -16.665  0.00  0.00    +0.102 C 
BRANCH  30  31
ATOM     31  C   UNL     1      32.887 -22.906 -15.229  0.00  0.00    +0.054 C 
BRANCH  31  32
ATOM     32  C   UNL     1      32.894 -24.030 -14.199  0.00  0.00    +0.139 C 
BRANCH  32  33
ATOM     33  O   UNL     1      33.228 -23.483 -12.929  0.00  0.00    -0.382 OA
ATOM     34  H   UNL     1      33.022 -24.129 -12.235  0.00  0.00    +0.210 HD
ENDBRANCH  32  33
ENDBRANCH  31  32
ENDBRANCH  30  31
ENDBRANCH   2  30
TORSDOF 9
ENDMDL
MODEL 2
REMARK VINA RESULT:     -10.3      8.365     14.808
REMARK  Name = 11987888
REMARK  9 active torsions:
REMARK  status: ('A' for Active; 'I' for Inactive)
REMARK    1  A    between atoms: N_2  and  C_30
REMARK    2  A    between atoms: C_10  and  O_23
REMARK    3  A    between atoms: C_12  and  C_14
REMARK    4  A    between atoms: C_17  and  N_22
REMARK    5  A    between atoms: O_23  and  C_25
REMARK    6  A    between atoms: C_25  and  C_26
REMARK    7  A    between atoms: C_30  and  C_31
REMARK    8  A    between atoms: C_31  and  C_32
REMARK    9  A    between atoms: C_32  and  O_33
REMARK                            x       y       z     vdW  Elec       q    Type
REMARK                         _______ _______ _______ _____ _____    ______ ____
ROOT
ATOM      1  O   UNL     1      34.185  -9.391 -24.563  0.00  0.00    -0.270 OA
ATOM      2  N   UNL     1      32.014 -11.856 -21.828  0.00  0.00    -0.248 N 
ATOM      3  N   UNL     1      33.664 -11.981 -23.313  0.00  0.00    -0.371 NA
ATOM      4  N   UNL     1      32.555  -9.843 -22.924  0.00  0.00    -0.243 N 
ATOM      5  C   UNL     1      32.491 -13.145 -21.886  0.00  0.00    +0.081 C 
ATOM      6  C   UNL     1      33.526 -13.249 -22.810  0.00  0.00    +0.150 C 
ATOM      7  C   UNL     1      32.739 -11.185 -22.695  0.00  0.00    +0.248 C 
ATOM      8  C   UNL     1      32.089 -14.290 -21.175  0.00  0.00    -0.001 C 
ATOM      9  C   UNL     1      34.199 -14.443 -23.077  0.00  0.00    +0.067 C 
ATOM     10  C   UNL     1      33.786 -15.572 -22.362  0.00  0.00    +0.133 C 
ATOM     11  C   UNL     1      32.750 -15.498 -21.427  0.00  0.00    +0.092 C 
ATOM     12  C   UNL     1      33.271  -9.042 -23.823  0.00  0.00    +0.252 C 
ATOM     13  H   UNL     1      31.847  -9.399 -22.403  0.00  0.00    +0.159 HD
ENDROOT
BRANCH  12  14
ATOM     14  C   UNL     1      32.838  -7.622 -23.890  0.00  0.00    +0.055 C 
ATOM     15  C   UNL     1      32.000  -7.100 -22.903  0.00  0.00    +0.029 C 
ATOM     16  C   UNL     1      33.267  -6.810 -24.940  0.00  0.00    +0.005 C 
ATOM     17  C   UNL     1      31.594  -5.768 -22.966  0.00  0.00    +0.143 C 
ATOM     18  C   UNL     1      32.860  -5.477 -25.005  0.00  0.00    +0.002 C 
ATOM     19  C   UNL     1      32.023  -4.956 -24.017  0.00  0.00    +0.024 C 
BRANCH  17  22
ATOM     20  O   UNL     1      30.696  -5.800 -20.843  0.00  0.00    -0.126 OA
ATOM     21  O   UNL     1      30.063  -4.213 -22.221  0.00  0.00    -0.126 OA
ATOM     22  N   UNL     1      30.743  -5.235 -21.962  0.00  0.00    +0.058 N 
ENDBRANCH  17  22
ENDBRANCH  12  14
BRANCH  10  23
ATOM     23  O   UNL     1      34.422 -16.794 -22.587  0.00  0.00    -0.428 OA
BRANCH  23  25
ATOM     24  O   UNL     1      35.327 -16.795 -20.437  0.00  0.00    -0.250 OA
ATOM     25  C   UNL     1      34.897 -17.390 -21.419  0.00  0.00    +0.320 C 
BRANCH  25  26
ATOM     26  C   UNL     1      34.800 -18.915 -21.542  0.00  0.00    +0.090 C 
ATOM     27  C   UNL     1      35.994 -19.563 -20.829  0.00  0.00    +0.011 C 
ATOM     28  C   UNL     1      33.480 -19.396 -20.923  0.00  0.00    +0.011 C 
ATOM     29  C   UNL     1      34.828 -19.311 -23.026  0.00  0.00    +0.011 C 
ENDBRANCH  25  26
ENDBRANCH  23  25
ENDBRANCH  10  23
BRANCH   2  30
ATOM     30  C   UNL     1      30.945 -11.377 -20.983  0.00  0.00    +0.102 C 
BRANCH  30  31
ATOM     31  C   UNL     1      31.411 -10.913 -19.604  0.00  0.00    +0.054 C 
BRANCH  31  32
ATOM     32  C   UNL     1      31.440  -9.396 -19.457  0.00  0.00    +0.139 C 
BRANCH  32  33
ATOM     33  O   UNL     1      32.739  -8.929 -19.800  0.00  0.00    -0.382 OA
ATOM     34  H   UNL     1      32.664  -8.198 -20.433  0.00  0.00    +0.210 HD
ENDBRANCH  32  33
ENDBRANCH  31  32
ENDBRANCH  30  31
ENDBRANCH   2  30
TORSDOF 9
ENDMDL
MODEL 3
REMARK VINA RESULT:     -10.3      8.665     15.203
REMARK  Name = 11987888
REMARK  9 active torsions:
REMARK  status: ('A' for Active; 'I' for Inactive)
REMARK    1  A    between atoms: N_2  and  C_30
REMARK    2  A    between atoms: C_10  and  O_23
REMARK    3  A    between atoms: C_12  and  C_14
REMARK    4  A    between atoms: C_17  and  N_22
REMARK    5  A    between atoms: O_23  and  C_25
REMARK    6  A    between atoms: C_25  and  C_26
REMARK    7  A    between atoms: C_30  and  C_31
REMARK    8  A    between atoms: C_31  and  C_32
REMARK    9  A    between atoms: C_32  and  O_33
REMARK                            x       y       z     vdW  Elec       q    Type
REMARK                         _______ _______ _______ _____ _____    ______ ____
ROOT
ATOM      1  O   UNL     1      33.490  -9.330 -24.429  0.00  0.00    -0.270 OA
ATOM      2  N   UNL     1      31.800 -11.884 -21.448  0.00  0.00    -0.248 N 
ATOM      3  N   UNL     1      33.242 -11.941 -23.138  0.00  0.00    -0.371 NA
ATOM      4  N   UNL     1      32.110  -9.850 -22.592  0.00  0.00    -0.243 N 
ATOM      5  C   UNL     1      32.316 -13.154 -21.577  0.00  0.00    +0.081 C 
ATOM      6  C   UNL     1      33.223 -13.214 -22.630  0.00  0.00    +0.150 C 
ATOM      7  C   UNL     1      32.376 -11.184 -22.399  0.00  0.00    +0.248 C 
ATOM      8  C   UNL     1      32.057 -14.314 -20.827  0.00  0.00    -0.001 C 
ATOM      9  C   UNL     1      33.901 -14.380 -22.992  0.00  0.00    +0.067 C 
ATOM     10  C   UNL     1      33.632 -15.525 -22.235  0.00  0.00    +0.133 C 
ATOM     11  C   UNL     1      32.727 -15.495 -21.172  0.00  0.00    +0.092 C 
ATOM     12  C   UNL     1      32.669  -9.020 -23.573  0.00  0.00    +0.252 C 
ATOM     13  H   UNL     1      31.461  -9.436 -21.979  0.00  0.00    +0.159 HD
ENDROOT
BRANCH  12  14
ATOM     14  C   UNL     1      32.175  -7.617 -23.572  0.00  0.00    +0.055 C 
ATOM     15  C   UNL     1      32.580  -6.734 -24.574  0.00  0.00    +0.029 C 
ATOM     16  C   UNL     1      31.307  -7.185 -22.571  0.00  0.00    +0.005 C 
ATOM     17  C   UNL     1      32.116  -5.419 -24.573  0.00  0.00    +0.143 C 
ATOM     18  C   UNL     1      30.843  -5.868 -22.568  0.00  0.00    +0.002 C 
ATOM     19  C   UNL     1      31.247  -4.986 -23.570  0.00  0.00    +0.024 C 
BRANCH  17  22
ATOM     20  O   UNL     1      33.170  -4.964 -26.573  0.00  0.00    -0.126 OA
ATOM     21  O   UNL     1      32.231  -3.304 -25.485  0.00  0.00    -0.126 OA
ATOM     22  N   UNL     1      32.526  -4.519 -25.592  0.00  0.00    +0.058 N 
ENDBRANCH  17  22
ENDBRANCH  12  14
BRANCH  10  23
ATOM     23  O   UNL     1      34.281 -16.720 -22.551  0.00  0.00    -0.428 OA
BRANCH  23  25
ATOM     24  O   UNL     1      35.341 -16.768 -20.474  0.00  0.00    -0.250 OA
ATOM     25  C   UNL     1      34.858 -17.341 -21.444  0.00  0.00    +0.320 C 
BRANCH  25  26
ATOM     26  C   UNL     1      34.798 -18.863 -21.617  0.00  0.00    +0.090 C 
ATOM     27  C   UNL     1      33.525 -19.406 -20.955  0.00  0.00    +0.011 C 
ATOM     28  C   UNL     1      34.814 -19.210 -23.112  0.00  0.00    +0.011 C 
ATOM     29  C   UNL     1      36.024 -19.503 -20.945  0.00  0.00    +0.011 C 
ENDBRANCH  25  26
ENDBRANCH  23  25
ENDBRANCH  10  23
BRANCH   2  30
ATOM     30  C   UNL     1      30.834 -11.450 -20.465  0.00  0.00    +0.102 C 
BRANCH  30  31
ATOM     31  C   UNL     1      31.462 -10.878 -19.195  0.00  0.00    +0.054 C 
BRANCH  31  32
ATOM     32  C   UNL     1      31.500  -9.355 -19.174  0.00  0.00    +0.139 C 
BRANCH  32  33
ATOM     33  O   UNL     1      32.760  -8.923 -19.673  0.00  0.00    -0.382 OA
ATOM     34  H   UNL     1      33.338  -8.688 -18.931  0.00  0.00    +0.210 HD
ENDBRANCH  32  33
ENDBRANCH  31  32
ENDBRANCH  30  31
ENDBRANCH   2  30
TORSDOF 9
ENDMDL
MODEL 4
REMARK VINA RESULT:     -10.0      8.100     15.119
REMARK  Name = 11987888
REMARK  9 active torsions:
REMARK  status: ('A' for Active; 'I' for Inactive)
REMARK    1  A    between atoms: N_2  and  C_30
REMARK    2  A    between atoms: C_10  and  O_23
REMARK    3  A    between atoms: C_12  and  C_14
REMARK    4  A    between atoms: C_17  and  N_22
REMARK    5  A    between atoms: O_23  and  C_25
REMARK    6  A    between atoms: C_25  and  C_26
REMARK    7  A    between atoms: C_30  and  C_31
REMARK    8  A    between atoms: C_31  and  C_32
REMARK    9  A    between atoms: C_32  and  O_33
REMARK                            x       y       z     vdW  Elec       q    Type
REMARK                         _______ _______ _______ _____ _____    ______ ____
ROOT
ATOM      1  O   UNL     1      31.535  -9.591 -21.299  0.00  0.00    -0.270 OA
ATOM      2  N   UNL     1      33.579 -12.254 -23.945  0.00  0.00    -0.248 N 
ATOM      3  N   UNL     1      32.540 -12.250 -21.980  0.00  0.00    -0.371 NA
ATOM      4  N   UNL     1      32.710 -10.177 -23.255  0.00  0.00    -0.243 N 
ATOM      5  C   UNL     1      33.602 -13.519 -23.404  0.00  0.00    +0.081 C 
ATOM      6  C   UNL     1      32.957 -13.542 -22.172  0.00  0.00    +0.150 C 
ATOM      7  C   UNL     1      32.936 -11.519 -23.066  0.00  0.00    +0.248 C 
ATOM      8  C   UNL     1      34.158 -14.707 -23.910  0.00  0.00    -0.001 C 
ATOM      9  C   UNL     1      32.827 -14.695 -21.395  0.00  0.00    +0.067 C 
ATOM     10  C   UNL     1      33.387 -15.868 -21.912  0.00  0.00    +0.133 C 
ATOM     11  C   UNL     1      34.040 -15.876 -23.147  0.00  0.00    +0.092 C 
ATOM     12  C   UNL     1      32.039  -9.311 -22.382  0.00  0.00    +0.252 C 
ATOM     13  H   UNL     1      33.056  -9.784 -24.090  0.00  0.00    +0.159 HD
ENDROOT
BRANCH  12  14
ATOM     14  C   UNL     1      31.967  -7.894 -22.827  0.00  0.00    +0.055 C 
ATOM     15  C   UNL     1      32.709  -7.470 -23.931  0.00  0.00    +0.029 C 
ATOM     16  C   UNL     1      31.158  -6.988 -22.141  0.00  0.00    +0.005 C 
ATOM     17  C   UNL     1      32.641  -6.141 -24.348  0.00  0.00    +0.143 C 
ATOM     18  C   UNL     1      31.091  -5.658 -22.558  0.00  0.00    +0.002 C 
ATOM     19  C   UNL     1      31.832  -5.235 -23.661  0.00  0.00    +0.024 C 
BRANCH  17  22
ATOM     20  O   UNL     1      34.555  -6.157 -25.633  0.00  0.00    -0.126 OA
ATOM     21  O   UNL     1      32.877  -4.893 -26.272  0.00  0.00    -0.126 OA
ATOM     22  N   UNL     1      33.394  -5.709 -25.471  0.00  0.00    +0.058 N 
ENDBRANCH  17  22
ENDBRANCH  12  14
BRANCH  10  23
ATOM     23  O   UNL     1      33.288 -17.052 -21.179  0.00  0.00    -0.428 OA
BRANCH  23  25
ATOM     24  O   UNL     1      35.527 -17.119 -20.527  0.00  0.00    -0.250 OA
ATOM     25  C   UNL     1      34.521 -17.668 -20.962  0.00  0.00    +0.320 C 
BRANCH  25  26
ATOM     26  C   UNL     1      34.434 -19.148 -21.351  0.00  0.00    +0.090 C 
ATOM     27  C   UNL     1      33.078 -19.715 -20.909  0.00  0.00    +0.011 C 
ATOM     28  C   UNL     1      34.605 -19.290 -22.870  0.00  0.00    +0.011 C 
ATOM     29  C   UNL     1      35.556 -19.928 -20.649  0.00  0.00    +0.011 C 
ENDBRANCH  25  26
ENDBRANCH  23  25
ENDBRANCH  10  23
BRANCH   2  30
ATOM     30  C   UNL     1      34.150 -11.855 -25.210  0.00  0.00    +0.102 C 
BRANCH  30  31
ATOM     31  C   UNL     1      33.204 -12.036 -26.397  0.00  0.00    +0.054 C 
BRANCH  31  32
ATOM     32  C   UNL     1      33.342 -13.393 -27.076  0.00  0.00    +0.139 C 
BRANCH  32  33
ATOM     33  O   UNL     1      34.381 -13.315 -28.045  0.00  0.00    -0.382 OA
ATOM     34  H   UNL     1      35.241 -13.388 -27.603  0.00  0.00    +0.210 HD
ENDBRANCH  32  33
ENDBRANCH  31  32
ENDBRANCH  30  31
ENDBRANCH   2  30
TORSDOF 9
ENDMDL
MODEL 5
REMARK VINA RESULT:     -10.0      8.193     15.033
REMARK  Name = 11987888
REMARK  9 active torsions:
REMARK  status: ('A' for Active; 'I' for Inactive)
REMARK    1  A    between atoms: N_2  and  C_30
REMARK    2  A    between atoms: C_10  and  O_23
REMARK    3  A    between atoms: C_12  and  C_14
REMARK    4  A    between atoms: C_17  and  N_22
REMARK    5  A    between atoms: O_23  and  C_25
REMARK    6  A    between atoms: C_25  and  C_26
REMARK    7  A    between atoms: C_30  and  C_31
REMARK    8  A    between atoms: C_31  and  C_32
REMARK    9  A    between atoms: C_32  and  O_33
REMARK                            x       y       z     vdW  Elec       q    Type
REMARK                         _______ _______ _______ _____ _____    ______ ____
ROOT
ATOM      1  O   UNL     1      31.803  -9.520 -21.474  0.00  0.00    -0.270 OA
ATOM      2  N   UNL     1      33.655 -12.345 -24.094  0.00  0.00    -0.248 N 
ATOM      3  N   UNL     1      32.684 -12.236 -22.097  0.00  0.00    -0.371 NA
ATOM      4  N   UNL     1      32.889 -10.214 -23.447  0.00  0.00    -0.243 N 
ATOM      5  C   UNL     1      33.648 -13.591 -23.512  0.00  0.00    +0.081 C 
ATOM      6  C   UNL     1      33.045 -13.549 -22.259  0.00  0.00    +0.150 C 
ATOM      7  C   UNL     1      33.070 -11.557 -23.220  0.00  0.00    +0.248 C 
ATOM      8  C   UNL     1      34.142 -14.816 -23.995  0.00  0.00    -0.001 C 
ATOM      9  C   UNL     1      32.898 -14.671 -21.440  0.00  0.00    +0.067 C 
ATOM     10  C   UNL     1      33.395 -15.881 -21.936  0.00  0.00    +0.133 C 
ATOM     11  C   UNL     1      34.006 -15.954 -23.190  0.00  0.00    +0.092 C 
ATOM     12  C   UNL     1      32.280  -9.295 -22.582  0.00  0.00    +0.252 C 
ATOM     13  H   UNL     1      33.220  -9.862 -24.304  0.00  0.00    +0.159 HD
ENDROOT
BRANCH  12  14
ATOM     14  C   UNL     1      32.246  -7.891 -23.071  0.00  0.00    +0.055 C 
ATOM     15  C   UNL     1      31.377  -6.969 -22.487  0.00  0.00    +0.029 C 
ATOM     16  C   UNL     1      33.082  -7.497 -24.115  0.00  0.00    +0.005 C 
ATOM     17  C   UNL     1      31.346  -5.653 -22.947  0.00  0.00    +0.143 C 
ATOM     18  C   UNL     1      33.051  -6.180 -24.577  0.00  0.00    +0.002 C 
ATOM     19  C   UNL     1      32.182  -5.258 -23.992  0.00  0.00    +0.024 C 
BRANCH  17  22
ATOM     20  O   UNL     1      29.701  -5.093 -21.431  0.00  0.00    -0.126 OA
ATOM     21  O   UNL     1      30.471  -3.527 -22.764  0.00  0.00    -0.126 OA
ATOM     22  N   UNL     1      30.463  -4.713 -22.353  0.00  0.00    +0.058 N 
ENDBRANCH  17  22
ENDBRANCH  12  14
BRANCH  10  23
ATOM     23  O   UNL     1      33.278 -17.036 -21.161  0.00  0.00    -0.428 OA
BRANCH  23  25
ATOM     24  O   UNL     1      35.516 -17.146 -20.515  0.00  0.00    -0.250 OA
ATOM     25  C   UNL     1      34.497 -17.677 -20.941  0.00  0.00    +0.320 C 
BRANCH  25  26
ATOM     26  C   UNL     1      34.375 -19.159 -21.313  0.00  0.00    +0.090 C 
ATOM     27  C   UNL     1      33.003 -19.687 -20.874  0.00  0.00    +0.011 C 
ATOM     28  C   UNL     1      34.552 -19.322 -22.829  0.00  0.00    +0.011 C 
ATOM     29  C   UNL     1      35.473 -19.959 -20.595  0.00  0.00    +0.011 C 
ENDBRANCH  25  26
ENDBRANCH  23  25
ENDBRANCH  10  23
BRANCH   2  30
ATOM     30  C   UNL     1      34.197 -12.009 -25.390  0.00  0.00    +0.102 C 
BRANCH  30  31
ATOM     31  C   UNL     1      33.202 -12.179 -26.537  0.00  0.00    +0.054 C 
BRANCH  31  32
ATOM     32  C   UNL     1      33.390 -13.478 -27.312  0.00  0.00    +0.139 C 
BRANCH  32  33
ATOM     33  O   UNL     1      34.559 -13.364 -28.115  0.00  0.00    -0.382 OA
ATOM     34  H   UNL     1      35.334 -13.633 -27.597  0.00  0.00    +0.210 HD
ENDBRANCH  32  33
ENDBRANCH  31  32
ENDBRANCH  30  31
ENDBRANCH   2  30
TORSDOF 9
ENDMDL
MODEL 6
REMARK VINA RESULT:     -10.0      5.759     10.033
REMARK  Name = 11987888
REMARK  9 active torsions:
REMARK  status: ('A' for Active; 'I' for Inactive)
REMARK    1  A    between atoms: N_2  and  C_30
REMARK    2  A    between atoms: C_10  and  O_23
REMARK    3  A    between atoms: C_12  and  C_14
REMARK    4  A    between atoms: C_17  and  N_22
REMARK    5  A    between atoms: O_23  and  C_25
REMARK    6  A    between atoms: C_25  and  C_26
REMARK    7  A    between atoms: C_30  and  C_31
REMARK    8  A    between atoms: C_31  and  C_32
REMARK    9  A    between atoms: C_32  and  O_33
REMARK                            x       y       z     vdW  Elec       q    Type
REMARK                         _______ _______ _______ _____ _____    ______ ____
ROOT
ATOM      1  O   UNL     1      35.116 -15.997 -20.417  0.00  0.00    -0.270 OA
ATOM      2  N   UNL     1      33.952 -15.252 -24.463  0.00  0.00    -0.248 N 
ATOM      3  N   UNL     1      34.360 -14.166 -22.567  0.00  0.00    -0.371 NA
ATOM      4  N   UNL     1      34.575 -16.594 -22.632  0.00  0.00    -0.243 N 
ATOM      5  C   UNL     1      33.771 -13.901 -24.652  0.00  0.00    +0.081 C 
ATOM      6  C   UNL     1      34.021 -13.199 -23.478  0.00  0.00    +0.150 C 
ATOM      7  C   UNL     1      34.305 -15.375 -23.202  0.00  0.00    +0.248 C 
ATOM      8  C   UNL     1      33.391 -13.194 -25.807  0.00  0.00    -0.001 C 
ATOM      9  C   UNL     1      33.914 -11.810 -23.377  0.00  0.00    +0.067 C 
ATOM     10  C   UNL     1      33.535 -11.123 -24.535  0.00  0.00    +0.133 C 
ATOM     11  C   UNL     1      33.278 -11.800 -25.729  0.00  0.00    +0.092 C 
ATOM     12  C   UNL     1      34.956 -16.830 -21.304  0.00  0.00    +0.252 C 
ATOM     13  H   UNL     1      34.493 -17.384 -23.215  0.00  0.00    +0.159 HD
ENDROOT
BRANCH  12  14
ATOM     14  C   UNL     1      35.156 -18.259 -20.946  0.00  0.00    +0.055 C 
ATOM     15  C   UNL     1      34.069 -19.037 -20.545  0.00  0.00    +0.029 C 
ATOM     16  C   UNL     1      36.430 -18.823 -21.011  0.00  0.00    +0.005 C 
ATOM     17  C   UNL     1      34.257 -20.378 -20.209  0.00  0.00    +0.143 C 
ATOM     18  C   UNL     1      36.619 -20.164 -20.675  0.00  0.00    +0.002 C 
ATOM     19  C   UNL     1      35.532 -20.941 -20.274  0.00  0.00    +0.024 C 
BRANCH  17  22
ATOM     20  O   UNL     1      33.229 -22.419 -19.905  0.00  0.00    -0.126 OA
ATOM     21  O   UNL     1      32.131 -20.601 -19.347  0.00  0.00    -0.126 OA
ATOM     22  N   UNL     1      33.152 -21.171 -19.802  0.00  0.00    +0.058 N 
ENDBRANCH  17  22
ENDBRANCH  12  14
BRANCH  10  23
ATOM     23  O   UNL     1      33.412  -9.732 -24.494  0.00  0.00    -0.428 OA
BRANCH  23  25
ATOM     24  O   UNL     1      31.660  -9.867 -22.960  0.00  0.00    -0.250 OA
ATOM     25  C   UNL     1      32.627  -9.281 -23.433  0.00  0.00    +0.320 C 
BRANCH  25  26
ATOM     26  C   UNL     1      33.156  -7.931 -22.937  0.00  0.00    +0.090 C 
ATOM     27  C   UNL     1      32.993  -7.844 -21.414  0.00  0.00    +0.011 C 
ATOM     28  C   UNL     1      34.634  -7.785 -23.328  0.00  0.00    +0.011 C 
ATOM     29  C   UNL     1      32.354  -6.796 -23.593  0.00  0.00    +0.011 C 
ENDBRANCH  25  26
ENDBRANCH  23  25
ENDBRANCH  10  23
BRANCH   2  30
ATOM     30  C   UNL     1      33.783 -16.285 -25.458  0.00  0.00    +0.102 C 
BRANCH  30  31
ATOM     31  C   UNL     1      34.817 -17.406 -25.363  0.00  0.00    +0.054 C 
BRANCH  31  32
ATOM     32  C   UNL     1      34.198 -18.779 -25.131  0.00  0.00    +0.139 C 
BRANCH  32  33
ATOM     33  O   UNL     1      34.933 -19.444 -24.111  0.00  0.00    -0.382 OA
ATOM     34  H   UNL     1      34.826 -20.403 -24.208  0.00  0.00    +0.210 HD
ENDBRANCH  32  33
ENDBRANCH  31  32
ENDBRANCH  30  31
ENDBRANCH   2  30
TORSDOF 9
ENDMDL
MODEL 7
REMARK VINA RESULT:      -9.9      8.327     15.187
REMARK  Name = 11987888
REMARK  9 active torsions:
REMARK  status: ('A' for Active; 'I' for Inactive)
REMARK    1  A    between atoms: N_2  and  C_30
REMARK    2  A    between atoms: C_10  and  O_23
REMARK    3  A    between atoms: C_12  and  C_14
REMARK    4  A    between atoms: C_17  and  N_22
REMARK    5  A    between atoms: O_23  and  C_25
REMARK    6  A    between atoms: C_25  and  C_26
REMARK    7  A    between atoms: C_30  and  C_31
REMARK    8  A    between atoms: C_31  and  C_32
REMARK    9  A    between atoms: C_32  and  O_33
REMARK                            x       y       z     vdW  Elec       q    Type
REMARK                         _______ _______ _______ _____ _____    ______ ____
ROOT
ATOM      1  O   UNL     1      31.558  -9.574 -20.737  0.00  0.00    -0.270 OA
ATOM      2  N   UNL     1      33.299 -11.945 -23.840  0.00  0.00    -0.248 N 
ATOM      3  N   UNL     1      32.478 -12.144 -21.784  0.00  0.00    -0.371 NA
ATOM      4  N   UNL     1      32.515  -9.954 -22.857  0.00  0.00    -0.243 N 
ATOM      5  C   UNL     1      33.376 -13.257 -23.433  0.00  0.00    +0.081 C 
ATOM      6  C   UNL     1      32.868 -13.407 -22.147  0.00  0.00    +0.150 C 
ATOM      7  C   UNL     1      32.756 -11.306 -22.828  0.00  0.00    +0.248 C 
ATOM      8  C   UNL     1      33.871 -14.384 -24.111  0.00  0.00    -0.001 C 
ATOM      9  C   UNL     1      32.820 -14.633 -21.480  0.00  0.00    +0.067 C 
ATOM     10  C   UNL     1      33.317 -15.744 -22.168  0.00  0.00    +0.133 C 
ATOM     11  C   UNL     1      33.834 -15.624 -23.461  0.00  0.00    +0.092 C 
ATOM     12  C   UNL     1      31.943  -9.184 -21.835  0.00  0.00    +0.252 C 
ATOM     13  H   UNL     1      32.769  -9.477 -23.680  0.00  0.00    +0.159 HD
ENDROOT
BRANCH  12  14
ATOM     14  C   UNL     1      31.827  -7.731 -22.126  0.00  0.00    +0.055 C 
ATOM     15  C   UNL     1      32.126  -7.248 -23.401  0.00  0.00    +0.029 C 
ATOM     16  C   UNL     1      31.421  -6.849 -21.125  0.00  0.00    +0.005 C 
ATOM     17  C   UNL     1      32.017  -5.885 -23.674  0.00  0.00    +0.143 C 
ATOM     18  C   UNL     1      31.313  -5.485 -21.397  0.00  0.00    +0.002 C 
ATOM     19  C   UNL     1      31.611  -5.003 -22.672  0.00  0.00    +0.024 C 
BRANCH  17  22
ATOM     20  O   UNL     1      31.519  -4.599 -25.522  0.00  0.00    -0.126 OA
ATOM     21  O   UNL     1      33.381  -5.763 -25.530  0.00  0.00    -0.126 OA
ATOM     22  N   UNL     1      32.319  -5.393 -24.971  0.00  0.00    +0.058 N 
ENDBRANCH  17  22
ENDBRANCH  12  14
BRANCH  10  23
ATOM     23  O   UNL     1      33.296 -16.996 -21.551  0.00  0.00    -0.428 OA
BRANCH  23  25
ATOM     24  O   UNL     1      35.359 -16.709 -20.502  0.00  0.00    -0.250 OA
ATOM     25  C   UNL     1      34.550 -17.408 -21.100  0.00  0.00    +0.320 C 
BRANCH  25  26
ATOM     26  C   UNL     1      34.770 -18.881 -21.466  0.00  0.00    +0.090 C 
ATOM     27  C   UNL     1      33.614 -19.725 -20.916  0.00  0.00    +0.011 C 
ATOM     28  C   UNL     1      34.858 -19.022 -22.992  0.00  0.00    +0.011 C 
ATOM     29  C   UNL     1      36.088 -19.370 -20.844  0.00  0.00    +0.011 C 
ENDBRANCH  25  26
ENDBRANCH  23  25
ENDBRANCH  10  23
BRANCH   2  30
ATOM     30  C   UNL     1      33.731 -11.417 -25.113  0.00  0.00    +0.102 C 
BRANCH  30  31
ATOM     31  C   UNL     1      35.079 -10.700 -25.057  0.00  0.00    +0.054 C 
BRANCH  31  32
ATOM     32  C   UNL     1      34.952  -9.182 -24.997  0.00  0.00    +0.139 C 
BRANCH  32  33
ATOM     33  O   UNL     1      35.136  -8.763 -23.650  0.00  0.00    -0.382 OA
ATOM     34  H   UNL     1      34.903  -9.489 -23.051  0.00  0.00    +0.210 HD
ENDBRANCH  32  33
ENDBRANCH  31  32
ENDBRANCH  30  31
ENDBRANCH   2  30
TORSDOF 9
ENDMDL
MODEL 8
REMARK VINA RESULT:      -9.5      2.695      9.758
REMARK  Name = 11987888
REMARK  9 active torsions:
REMARK  status: ('A' for Active; 'I' for Inactive)
REMARK    1  A    between atoms: N_2  and  C_30
REMARK    2  A    between atoms: C_10  and  O_23
REMARK    3  A    between atoms: C_12  and  C_14
REMARK    4  A    between atoms: C_17  and  N_22
REMARK    5  A    between atoms: O_23  and  C_25
REMARK    6  A    between atoms: C_25  and  C_26
REMARK    7  A    between atoms: C_30  and  C_31
REMARK    8  A    between atoms: C_31  and  C_32
REMARK    9  A    between atoms: C_32  and  O_33
REMARK                            x       y       z     vdW  Elec       q    Type
REMARK                         _______ _______ _______ _____ _____    ______ ____
ROOT
ATOM      1  O   UNL     1      37.138 -19.009 -20.769  0.00  0.00    -0.270 OA
ATOM      2  N   UNL     1      34.729 -21.936 -18.793  0.00  0.00    -0.248 N 
ATOM      3  N   UNL     1      36.699 -20.923 -18.604  0.00  0.00    -0.371 NA
ATOM      4  N   UNL     1      35.231 -20.360 -20.468  0.00  0.00    -0.243 N 
ATOM      5  C   UNL     1      35.387 -22.403 -17.678  0.00  0.00    +0.081 C 
ATOM      6  C   UNL     1      36.625 -21.783 -17.538  0.00  0.00    +0.150 C 
ATOM      7  C   UNL     1      35.543 -21.051 -19.324  0.00  0.00    +0.248 C 
ATOM      8  C   UNL     1      34.989 -23.362 -16.730  0.00  0.00    -0.001 C 
ATOM      9  C   UNL     1      37.509 -22.063 -16.494  0.00  0.00    +0.067 C 
ATOM     10  C   UNL     1      37.098 -23.020 -15.561  0.00  0.00    +0.133 C 
ATOM     11  C   UNL     1      35.861 -23.659 -15.675  0.00  0.00    +0.092 C 
ATOM     12  C   UNL     1      36.026 -19.401 -21.110  0.00  0.00    +0.252 C 
ATOM     13  H   UNL     1      34.358 -20.557 -20.880  0.00  0.00    +0.159 HD
ENDROOT
BRANCH  12  14
ATOM     14  C   UNL     1      35.450 -18.831 -22.356  0.00  0.00    +0.055 C 
ATOM     15  C   UNL     1      35.194 -17.462 -22.444  0.00  0.00    +0.029 C 
ATOM     16  C   UNL     1      35.165 -19.664 -23.437  0.00  0.00    +0.005 C 
ATOM     17  C   UNL     1      34.653 -16.928 -23.613  0.00  0.00    +0.143 C 
ATOM     18  C   UNL     1      34.623 -19.130 -24.607  0.00  0.00    +0.002 C 
ATOM     19  C   UNL     1      34.367 -17.762 -24.695  0.00  0.00    +0.024 C 
BRANCH  17  22
ATOM     20  O   UNL     1      33.680 -15.110 -24.646  0.00  0.00    -0.126 OA
ATOM     21  O   UNL     1      34.881 -14.767 -22.840  0.00  0.00    -0.126 OA
ATOM     22  N   UNL     1      34.393 -15.535 -23.705  0.00  0.00    +0.058 N 
ENDBRANCH  17  22
ENDBRANCH  12  14
BRANCH  10  23
ATOM     23  O   UNL     1      37.941 -23.341 -14.495  0.00  0.00    -0.428 OA
BRANCH  23  25
ATOM     24  O   UNL     1      39.773 -24.113 -15.716  0.00  0.00    -0.250 OA
ATOM     25  C   UNL     1      38.932 -24.261 -14.837  0.00  0.00    +0.320 C 
BRANCH  25  26
ATOM     26  C   UNL     1      38.814 -25.501 -13.941  0.00  0.00    +0.090 C 
ATOM     27  C   UNL     1      40.189 -26.169 -13.808  0.00  0.00    +0.011 C 
ATOM     28  C   UNL     1      38.283 -25.087 -12.562  0.00  0.00    +0.011 C 
ATOM     29  C   UNL     1      37.832 -26.498 -14.575  0.00  0.00    +0.011 C 
ENDBRANCH  25  26
ENDBRANCH  23  25
ENDBRANCH  10  23
BRANCH   2  30
ATOM     30  C   UNL     1      33.424 -22.351 -19.251  0.00  0.00    +0.102 C 
BRANCH  30  31
ATOM     31  C   UNL     1      32.273 -21.801 -18.411  0.00  0.00    +0.054 C 
BRANCH  31  32
ATOM     32  C   UNL     1      31.834 -22.745 -17.298  0.00  0.00    +0.139 C 
BRANCH  32  33
ATOM     33  O   UNL     1      30.459 -22.513 -17.018  0.00  0.00    -0.382 OA
ATOM     34  H   UNL     1      30.194 -21.657 -17.389  0.00  0.00    +0.210 HD
ENDBRANCH  32  33
ENDBRANCH  31  32
ENDBRANCH  30  31
ENDBRANCH   2  30
TORSDOF 9
ENDMDL
MODEL 9
REMARK VINA RESULT:      -9.2      5.931     10.437
REMARK  Name = 11987888
REMARK  9 active torsions:
REMARK  status: ('A' for Active; 'I' for Inactive)
REMARK    1  A    between atoms: N_2  and  C_30
REMARK    2  A    between atoms: C_10  and  O_23
REMARK    3  A    between atoms: C_12  and  C_14
REMARK    4  A    between atoms: C_17  and  N_22
REMARK    5  A    between atoms: O_23  and  C_25
REMARK    6  A    between atoms: C_25  and  C_26
REMARK    7  A    between atoms: C_30  and  C_31
REMARK    8  A    between atoms: C_31  and  C_32
REMARK    9  A    between atoms: C_32  and  O_33
REMARK                            x       y       z     vdW  Elec       q    Type
REMARK                         _______ _______ _______ _____ _____    ______ ____
ROOT
ATOM      1  O   UNL     1      33.965 -15.794 -20.379  0.00  0.00    -0.270 OA
ATOM      2  N   UNL     1      33.735 -14.899 -24.552  0.00  0.00    -0.248 N 
ATOM      3  N   UNL     1      33.816 -13.877 -22.580  0.00  0.00    -0.371 NA
ATOM      4  N   UNL     1      33.858 -16.314 -22.674  0.00  0.00    -0.243 N 
ATOM      5  C   UNL     1      33.699 -13.536 -24.733  0.00  0.00    +0.081 C 
ATOM      6  C   UNL     1      33.748 -12.873 -23.511  0.00  0.00    +0.150 C 
ATOM      7  C   UNL     1      33.805 -15.069 -23.251  0.00  0.00    +0.248 C 
ATOM      8  C   UNL     1      33.624 -12.784 -25.919  0.00  0.00    -0.001 C 
ATOM      9  C   UNL     1      33.726 -11.482 -23.392  0.00  0.00    +0.067 C 
ATOM     10  C   UNL     1      33.651 -10.749 -24.581  0.00  0.00    +0.133 C 
ATOM     11  C   UNL     1      33.600 -11.387 -25.823  0.00  0.00    +0.092 C 
ATOM     12  C   UNL     1      33.934 -16.599 -21.304  0.00  0.00    +0.252 C 
ATOM     13  H   UNL     1      33.842 -17.086 -23.286  0.00  0.00    +0.159 HD
ENDROOT
BRANCH  12  14
ATOM     14  C   UNL     1      33.947 -18.045 -20.957  0.00  0.00    +0.055 C 
ATOM     15  C   UNL     1      35.162 -18.706 -20.768  0.00  0.00    +0.029 C 
ATOM     16  C   UNL     1      32.746 -18.740 -20.823  0.00  0.00    +0.005 C 
ATOM     17  C   UNL     1      35.174 -20.062 -20.443  0.00  0.00    +0.143 C 
ATOM     18  C   UNL     1      32.758 -20.098 -20.498  0.00  0.00    +0.002 C 
ATOM     19  C   UNL     1      33.972 -20.758 -20.308  0.00  0.00    +0.024 C 
BRANCH  17  22
ATOM     20  O   UNL     1      36.396 -21.958 -19.965  0.00  0.00    -0.126 OA
ATOM     21  O   UNL     1      37.478 -20.090 -20.368  0.00  0.00    -0.126 OA
ATOM     22  N   UNL     1      36.409 -20.735 -20.248  0.00  0.00    +0.058 N 
ENDBRANCH  17  22
ENDBRANCH  12  14
BRANCH  10  23
ATOM     23  O   UNL     1      33.625  -9.354 -24.524  0.00  0.00    -0.428 OA
BRANCH  23  25
ATOM     24  O   UNL     1      31.588  -9.330 -23.387  0.00  0.00    -0.250 OA
ATOM     25  C   UNL     1      32.699  -8.859 -23.607  0.00  0.00    +0.320 C 
BRANCH  25  26
ATOM     26  C   UNL     1      33.277  -7.626 -22.904  0.00  0.00    +0.090 C 
ATOM     27  C   UNL     1      33.070  -7.755 -21.389  0.00  0.00    +0.011 C 
ATOM     28  C   UNL     1      34.772  -7.503 -23.232  0.00  0.00    +0.011 C 
ATOM     29  C   UNL     1      32.553  -6.366 -23.403  0.00  0.00    +0.011 C 
ENDBRANCH  25  26
ENDBRANCH  23  25
ENDBRANCH  10  23
BRANCH   2  30
ATOM     30  C   UNL     1      33.702 -15.901 -25.593  0.00  0.00    +0.102 C 
BRANCH  30  31
ATOM     31  C   UNL     1      34.792 -16.964 -25.458  0.00  0.00    +0.054 C 
BRANCH  31  32
ATOM     32  C   UNL     1      34.241 -18.364 -25.211  0.00  0.00    +0.139 C 
BRANCH  32  33
ATOM     33  O   UNL     1      34.978 -18.963 -24.152  0.00  0.00    -0.382 OA
ATOM     34  H   UNL     1      34.461 -18.918 -23.332  0.00  0.00    +0.210 HD
ENDBRANCH  32  33
ENDBRANCH  31  32
ENDBRANCH  30  31
ENDBRANCH   2  30
TORSDOF 9
ENDMDL
