MODEL 1
REMARK VINA RESULT:     -10.3      0.000      0.000
REMARK  Name = 26248
REMARK  6 active torsions:
REMARK  status: ('A' for Active; 'I' for Inactive)
REMARK    1  A    between atoms: C_9  and  O_21
REMARK    2  A    between atoms: C_11  and  O_25
REMARK    3  A    between atoms: C_12  and  C_18
REMARK    4  A    between atoms: C_18  and  O_19
REMARK    5  A    between atoms: O_21  and  C_23
REMARK    6  A    between atoms: O_25  and  C_27
REMARK                            x       y       z     vdW  Elec       q    Type
REMARK                         _______ _______ _______ _____ _____    ______ ____
ROOT
ATOM      1  O   UNL     1      36.229 -23.735 -16.362  0.00  0.00    -0.286 OA
ATOM      2  O   UNL     1      32.858 -23.507 -12.221  0.00  0.00    -0.287 OA
ATOM      3  C   UNL     1      34.009 -23.488 -15.635  0.00  0.00    +0.077 C 
ATOM      4  C   UNL     1      33.128 -23.429 -14.553  0.00  0.00    +0.045 C 
ATOM      5  C   UNL     1      35.959 -23.811 -14.029  0.00  0.00    +0.077 C 
ATOM      6  C   UNL     1      35.078 -23.750 -12.948  0.00  0.00    +0.045 C 
ATOM      7  C   UNL     1      35.457 -23.682 -15.413  0.00  0.00    +0.202 C 
ATOM      8  C   UNL     1      33.631 -23.559 -13.171  0.00  0.00    +0.196 C 
ATOM      9  C   UNL     1      33.521 -23.364 -16.941  0.00  0.00    +0.152 C 
ATOM     10  C   UNL     1      31.758 -23.245 -14.777  0.00  0.00    +0.010 C 
ATOM     11  C   UNL     1      37.329 -23.993 -13.806  0.00  0.00    +0.152 C 
ATOM     12  C   UNL     1      31.276 -23.121 -16.081  0.00  0.00    +0.079 C 
ATOM     13  C   UNL     1      35.567 -23.873 -11.642  0.00  0.00    +0.003 C 
ATOM     14  C   UNL     1      32.155 -23.181 -17.160  0.00  0.00    +0.044 C 
ATOM     15  C   UNL     1      37.812 -24.114 -12.502  0.00  0.00    +0.038 C 
ATOM     16  C   UNL     1      36.934 -24.054 -11.423  0.00  0.00    +0.003 C 
ENDROOT
BRANCH  12  18
ATOM     17  O   UNL     1      29.360 -22.260 -17.226  0.00  0.00    -0.245 OA
ATOM     18  C   UNL     1      29.853 -22.929 -16.313  0.00  0.00    +0.338 C 
BRANCH  18  19
ATOM     19  O   UNL     1      29.085 -23.578 -15.395  0.00  0.00    -0.477 OA
ATOM     20  H   UNL     1      29.247 -24.481 -15.203  0.00  0.00    +0.295 HD
ENDBRANCH  18  19
ENDBRANCH  12  18
BRANCH   9  21
ATOM     21  O   UNL     1      34.323 -23.413 -18.043  0.00  0.00    -0.424 OA
BRANCH  21  23
ATOM     22  O   UNL     1      33.075 -22.141 -19.560  0.00  0.00    -0.250 OA
ATOM     23  C   UNL     1      34.112 -22.363 -18.950  0.00  0.00    +0.322 C 
ATOM     24  C   UNL     1      35.358 -21.538 -19.075  0.00  0.00    +0.122 C 
ENDBRANCH  21  23
ENDBRANCH   9  21
BRANCH  11  25
ATOM     25  O   UNL     1      38.245 -24.059 -14.814  0.00  0.00    -0.424 OA
BRANCH  25  27
ATOM     26  O   UNL     1      38.247 -26.377 -15.141  0.00  0.00    -0.250 OA
ATOM     27  C   UNL     1      38.839 -25.321 -14.963  0.00  0.00    +0.322 C 
ATOM     28  C   UNL     1      40.332 -25.198 -14.871  0.00  0.00    +0.122 C 
ENDBRANCH  25  27
ENDBRANCH  11  25
TORSDOF 6
ENDMDL
MODEL 2
REMARK VINA RESULT:     -10.1      1.792      6.552
REMARK  Name = 26248
REMARK  6 active torsions:
REMARK  status: ('A' for Active; 'I' for Inactive)
REMARK    1  A    between atoms: C_9  and  O_21
REMARK    2  A    between atoms: C_11  and  O_25
REMARK    3  A    between atoms: C_12  and  C_18
REMARK    4  A    between atoms: C_18  and  O_19
REMARK    5  A    between atoms: O_21  and  C_23
REMARK    6  A    between atoms: O_25  and  C_27
REMARK                            x       y       z     vdW  Elec       q    Type
REMARK                         _______ _______ _______ _____ _____    ______ ____
ROOT
ATOM      1  O   UNL     1      31.804 -22.508 -17.542  0.00  0.00    -0.286 OA
ATOM      2  O   UNL     1      33.347 -24.978 -13.061  0.00  0.00    -0.287 OA
ATOM      3  C   UNL     1      33.590 -23.175 -16.171  0.00  0.00    +0.077 C 
ATOM      4  C   UNL     1      33.993 -23.820 -15.000  0.00  0.00    +0.045 C 
ATOM      5  C   UNL     1      31.157 -23.668 -15.604  0.00  0.00    +0.077 C 
ATOM      6  C   UNL     1      31.560 -24.314 -14.434  0.00  0.00    +0.045 C 
ATOM      7  C   UNL     1      32.157 -23.075 -16.516  0.00  0.00    +0.202 C 
ATOM      8  C   UNL     1      32.993 -24.412 -14.089  0.00  0.00    +0.196 C 
ATOM      9  C   UNL     1      34.548 -22.618 -17.027  0.00  0.00    +0.152 C 
ATOM     10  C   UNL     1      35.355 -23.909 -14.685  0.00  0.00    +0.010 C 
ATOM     11  C   UNL     1      29.796 -23.580 -15.921  0.00  0.00    +0.152 C 
ATOM     12  C   UNL     1      36.306 -23.353 -15.541  0.00  0.00    +0.079 C 
ATOM     13  C   UNL     1      30.603 -24.872 -13.579  0.00  0.00    +0.003 C 
ATOM     14  C   UNL     1      35.904 -22.709 -16.709  0.00  0.00    +0.044 C 
ATOM     15  C   UNL     1      28.845 -24.139 -15.067  0.00  0.00    +0.038 C 
ATOM     16  C   UNL     1      29.247 -24.783 -13.899  0.00  0.00    +0.003 C 
ENDROOT
BRANCH  12  18
ATOM     17  O   UNL     1      38.181 -23.814 -14.128  0.00  0.00    -0.245 OA
ATOM     18  C   UNL     1      37.720 -23.446 -15.213  0.00  0.00    +0.338 C 
BRANCH  18  19
ATOM     19  O   UNL     1      38.519 -23.077 -16.251  0.00  0.00    -0.477 OA
ATOM     20  H   UNL     1      38.458 -22.212 -16.606  0.00  0.00    +0.295 HD
ENDBRANCH  18  19
ENDBRANCH  12  18
BRANCH   9  21
ATOM     21  O   UNL     1      34.225 -21.974 -18.185  0.00  0.00    -0.424 OA
BRANCH  21  23
ATOM     22  O   UNL     1      34.264 -23.738 -19.722  0.00  0.00    -0.250 OA
ATOM     23  C   UNL     1      34.649 -22.640 -19.346  0.00  0.00    +0.322 C 
ATOM     24  C   UNL     1      35.660 -21.805 -20.073  0.00  0.00    +0.122 C 
ENDBRANCH  21  23
ENDBRANCH   9  21
BRANCH  11  25
ATOM     25  O   UNL     1      29.332 -22.967 -17.047  0.00  0.00    -0.424 OA
BRANCH  25  27
ATOM     26  O   UNL     1      27.534 -24.345 -17.641  0.00  0.00    -0.250 OA
ATOM     27  C   UNL     1      27.989 -23.249 -17.338  0.00  0.00    +0.322 C 
ATOM     28  C   UNL     1      27.168 -21.998 -17.228  0.00  0.00    +0.122 C 
ENDBRANCH  25  27
ENDBRANCH  11  25
TORSDOF 6
ENDMDL
MODEL 3
REMARK VINA RESULT:      -9.7      2.054      6.389
REMARK  Name = 26248
REMARK  6 active torsions:
REMARK  status: ('A' for Active; 'I' for Inactive)
REMARK    1  A    between atoms: C_9  and  O_21
REMARK    2  A    between atoms: C_11  and  O_25
REMARK    3  A    between atoms: C_12  and  C_18
REMARK    4  A    between atoms: C_18  and  O_19
REMARK    5  A    between atoms: O_21  and  C_23
REMARK    6  A    between atoms: O_25  and  C_27
REMARK                            x       y       z     vdW  Elec       q    Type
REMARK                         _______ _______ _______ _____ _____    ______ ____
ROOT
ATOM      1  O   UNL     1      33.059 -23.492 -16.979  0.00  0.00    -0.286 OA
ATOM      2  O   UNL     1      37.980 -22.229 -15.322  0.00  0.00    -0.287 OA
ATOM      3  C   UNL     1      34.624 -23.536 -15.229  0.00  0.00    +0.077 C 
ATOM      4  C   UNL     1      35.910 -23.207 -14.796  0.00  0.00    +0.045 C 
ATOM      5  C   UNL     1      35.128 -22.512 -17.505  0.00  0.00    +0.077 C 
ATOM      6  C   UNL     1      36.414 -22.181 -17.072  0.00  0.00    +0.045 C 
ATOM      7  C   UNL     1      34.186 -23.202 -16.599  0.00  0.00    +0.202 C 
ATOM      8  C   UNL     1      36.852 -22.518 -15.702  0.00  0.00    +0.196 C 
ATOM      9  C   UNL     1      33.741 -24.190 -14.361  0.00  0.00    +0.152 C 
ATOM     10  C   UNL     1      36.313 -23.529 -13.494  0.00  0.00    +0.010 C 
ATOM     11  C   UNL     1      34.724 -22.188 -18.806  0.00  0.00    +0.152 C 
ATOM     12  C   UNL     1      35.429 -24.180 -12.632  0.00  0.00    +0.079 C 
ATOM     13  C   UNL     1      37.296 -21.527 -17.939  0.00  0.00    +0.003 C 
ATOM     14  C   UNL     1      34.146 -24.509 -13.064  0.00  0.00    +0.044 C 
ATOM     15  C   UNL     1      35.607 -21.535 -19.667  0.00  0.00    +0.038 C 
ATOM     16  C   UNL     1      36.890 -21.206 -19.235  0.00  0.00    +0.003 C 
ENDROOT
BRANCH  12  18
ATOM     17  O   UNL     1      35.144 -25.060 -10.426  0.00  0.00    -0.245 OA
ATOM     18  C   UNL     1      35.848 -24.513 -11.280  0.00  0.00    +0.338 C 
BRANCH  18  19
ATOM     19  O   UNL     1      37.138 -24.154 -11.033  0.00  0.00    -0.477 OA
ATOM     20  H   UNL     1      37.400 -23.258 -11.119  0.00  0.00    +0.295 HD
ENDBRANCH  18  19
ENDBRANCH  12  18
BRANCH   9  21
ATOM     21  O   UNL     1      32.473 -24.541 -14.718  0.00  0.00    -0.424 OA
BRANCH  21  23
ATOM     22  O   UNL     1      30.930 -24.555 -12.958  0.00  0.00    -0.250 OA
ATOM     23  C   UNL     1      31.476 -23.992 -13.897  0.00  0.00    +0.322 C 
ATOM     24  C   UNL     1      31.162 -22.593 -14.339  0.00  0.00    +0.122 C 
ENDBRANCH  21  23
ENDBRANCH   9  21
BRANCH  11  25
ATOM     25  O   UNL     1      33.484 -22.479 -19.294  0.00  0.00    -0.424 OA
BRANCH  25  27
ATOM     26  O   UNL     1      31.765 -21.096 -18.511  0.00  0.00    -0.250 OA
ATOM     27  C   UNL     1      32.618 -21.376 -19.343  0.00  0.00    +0.322 C 
ATOM     28  C   UNL     1      32.885 -20.571 -20.581  0.00  0.00    +0.122 C 
ENDBRANCH  25  27
ENDBRANCH  11  25
TORSDOF 6
ENDMDL
MODEL 4
REMARK VINA RESULT:      -9.4      1.634      6.061
REMARK  Name = 26248
REMARK  6 active torsions:
REMARK  status: ('A' for Active; 'I' for Inactive)
REMARK    1  A    between atoms: C_9  and  O_21
REMARK    2  A    between atoms: C_11  and  O_25
REMARK    3  A    between atoms: C_12  and  C_18
REMARK    4  A    between atoms: C_18  and  O_19
REMARK    5  A    between atoms: O_21  and  C_23
REMARK    6  A    between atoms: O_25  and  C_27
REMARK                            x       y       z     vdW  Elec       q    Type
REMARK                         _______ _______ _______ _____ _____    ______ ____
ROOT
ATOM      1  O   UNL     1      36.929 -23.210 -16.572  0.00  0.00    -0.286 OA
ATOM      2  O   UNL     1      32.275 -23.428 -13.954  0.00  0.00    -0.287 OA
ATOM      3  C   UNL     1      35.826 -23.609 -14.537  0.00  0.00    +0.077 C 
ATOM      4  C   UNL     1      34.610 -23.665 -13.853  0.00  0.00    +0.045 C 
ATOM      5  C   UNL     1      34.593 -22.974 -16.674  0.00  0.00    +0.077 C 
ATOM      6  C   UNL     1      33.378 -23.032 -15.990  0.00  0.00    +0.045 C 
ATOM      7  C   UNL     1      35.862 -23.261 -15.972  0.00  0.00    +0.202 C 
ATOM      8  C   UNL     1      33.342 -23.378 -14.554  0.00  0.00    +0.196 C 
ATOM      9  C   UNL     1      37.021 -23.882 -13.862  0.00  0.00    +0.152 C 
ATOM     10  C   UNL     1      34.588 -23.997 -12.493  0.00  0.00    +0.010 C 
ATOM     11  C   UNL     1      34.615 -22.644 -18.034  0.00  0.00    +0.152 C 
ATOM     12  C   UNL     1      35.782 -24.270 -11.823  0.00  0.00    +0.079 C 
ATOM     13  C   UNL     1      32.183 -22.759 -16.666  0.00  0.00    +0.003 C 
ATOM     14  C   UNL     1      36.995 -24.213 -12.506  0.00  0.00    +0.044 C 
ATOM     15  C   UNL     1      33.421 -22.375 -18.705  0.00  0.00    +0.038 C 
ATOM     16  C   UNL     1      32.208 -22.432 -18.022  0.00  0.00    +0.003 C 
ENDROOT
BRANCH  12  18
ATOM     17  O   UNL     1      35.012 -25.449  -9.889  0.00  0.00    -0.245 OA
ATOM     18  C   UNL     1      35.759 -24.615 -10.411  0.00  0.00    +0.338 C 
BRANCH  18  19
ATOM     19  O   UNL     1      36.670 -23.907  -9.688  0.00  0.00    -0.477 OA
ATOM     20  H   UNL     1      37.538 -23.785 -10.019  0.00  0.00    +0.295 HD
ENDBRANCH  18  19
ENDBRANCH  12  18
BRANCH   9  21
ATOM     21  O   UNL     1      38.242 -23.845 -14.467  0.00  0.00    -0.424 OA
BRANCH  21  23
ATOM     22  O   UNL     1      38.249 -26.105 -15.073  0.00  0.00    -0.250 OA
ATOM     23  C   UNL     1      38.823 -25.108 -14.659  0.00  0.00    +0.322 C 
ATOM     24  C   UNL     1      40.273 -25.067 -14.276  0.00  0.00    +0.122 C 
ENDBRANCH  21  23
ENDBRANCH   9  21
BRANCH  11  25
ATOM     25  O   UNL     1      35.765 -22.572 -18.764  0.00  0.00    -0.424 OA
BRANCH  25  27
ATOM     26  O   UNL     1      36.820 -20.524 -18.342  0.00  0.00    -0.250 OA
ATOM     27  C   UNL     1      36.166 -21.262 -19.068  0.00  0.00    +0.322 C 
ATOM     28  C   UNL     1      35.671 -20.879 -20.431  0.00  0.00    +0.122 C 
ENDBRANCH  25  27
ENDBRANCH  11  25
TORSDOF 6
ENDMDL
MODEL 5
REMARK VINA RESULT:      -9.3      9.952     13.857
REMARK  Name = 26248
REMARK  6 active torsions:
REMARK  status: ('A' for Active; 'I' for Inactive)
REMARK    1  A    between atoms: C_9  and  O_21
REMARK    2  A    between atoms: C_11  and  O_25
REMARK    3  A    between atoms: C_12  and  C_18
REMARK    4  A    between atoms: C_18  and  O_19
REMARK    5  A    between atoms: O_21  and  C_23
REMARK    6  A    between atoms: O_25  and  C_27
REMARK                            x       y       z     vdW  Elec       q    Type
REMARK                         _______ _______ _______ _____ _____    ______ ____
ROOT
ATOM      1  O   UNL     1      33.064 -12.215 -24.387  0.00  0.00    -0.286 OA
ATOM      2  O   UNL     1      32.687 -14.798 -19.723  0.00  0.00    -0.287 OA
ATOM      3  C   UNL     1      33.480 -14.189 -23.185  0.00  0.00    +0.077 C 
ATOM      4  C   UNL     1      33.382 -14.864 -21.966  0.00  0.00    +0.045 C 
ATOM      5  C   UNL     1      32.368 -12.149 -22.144  0.00  0.00    +0.077 C 
ATOM      6  C   UNL     1      32.268 -12.824 -20.926  0.00  0.00    +0.045 C 
ATOM      7  C   UNL     1      32.977 -12.807 -23.318  0.00  0.00    +0.202 C 
ATOM      8  C   UNL     1      32.774 -14.206 -20.792  0.00  0.00    +0.196 C 
ATOM      9  C   UNL     1      34.059 -14.824 -24.290  0.00  0.00    +0.152 C 
ATOM     10  C   UNL     1      33.862 -16.175 -21.853  0.00  0.00    +0.010 C 
ATOM     11  C   UNL     1      31.886 -10.839 -22.258  0.00  0.00    +0.152 C 
ATOM     12  C   UNL     1      34.438 -16.803 -22.958  0.00  0.00    +0.079 C 
ATOM     13  C   UNL     1      31.688 -12.190 -19.821  0.00  0.00    +0.003 C 
ATOM     14  C   UNL     1      34.536 -16.130 -24.173  0.00  0.00    +0.044 C 
ATOM     15  C   UNL     1      31.307 -10.211 -21.155  0.00  0.00    +0.038 C 
ATOM     16  C   UNL     1      31.209 -10.884 -19.939  0.00  0.00    +0.003 C 
ENDROOT
BRANCH  12  18
ATOM     17  O   UNL     1      34.262 -19.148 -22.517  0.00  0.00    -0.245 OA
ATOM     18  C   UNL     1      34.936 -18.165 -22.839  0.00  0.00    +0.338 C 
BRANCH  18  19
ATOM     19  O   UNL     1      36.263 -18.260 -23.127  0.00  0.00    -0.477 OA
ATOM     20  H   UNL     1      36.547 -18.745 -23.876  0.00  0.00    +0.295 HD
ENDBRANCH  18  19
ENDBRANCH  12  18
BRANCH   9  21
ATOM     21  O   UNL     1      34.187 -14.225 -25.508  0.00  0.00    -0.424 OA
BRANCH  21  23
ATOM     22  O   UNL     1      32.782 -15.782 -26.546  0.00  0.00    -0.250 OA
ATOM     23  C   UNL     1      33.247 -14.654 -26.458  0.00  0.00    +0.322 C 
ATOM     24  C   UNL     1      32.887 -13.519 -27.370  0.00  0.00    +0.122 C 
ENDBRANCH  21  23
ENDBRANCH   9  21
BRANCH  11  25
ATOM     25  O   UNL     1      31.948 -10.122 -23.417  0.00  0.00    -0.424 OA
BRANCH  25  27
ATOM     26  O   UNL     1      33.672  -8.624 -22.901  0.00  0.00    -0.250 OA
ATOM     27  C   UNL     1      32.528  -8.853 -23.271  0.00  0.00    +0.322 C 
ATOM     28  C   UNL     1      31.532  -7.791 -23.636  0.00  0.00    +0.122 C 
ENDBRANCH  25  27
ENDBRANCH  11  25
TORSDOF 6
ENDMDL
MODEL 6
REMARK VINA RESULT:      -9.2      1.620      6.112
REMARK  Name = 26248
REMARK  6 active torsions:
REMARK  status: ('A' for Active; 'I' for Inactive)
REMARK    1  A    between atoms: C_9  and  O_21
REMARK    2  A    between atoms: C_11  and  O_25
REMARK    3  A    between atoms: C_12  and  C_18
REMARK    4  A    between atoms: C_18  and  O_19
REMARK    5  A    between atoms: O_21  and  C_23
REMARK    6  A    between atoms: O_25  and  C_27
REMARK                            x       y       z     vdW  Elec       q    Type
REMARK                         _______ _______ _______ _____ _____    ______ ____
ROOT
ATOM      1  O   UNL     1      34.721 -23.652 -17.033  0.00  0.00    -0.286 OA
ATOM      2  O   UNL     1      31.853 -23.176 -12.548  0.00  0.00    -0.287 OA
ATOM      3  C   UNL     1      34.693 -23.763 -14.687  0.00  0.00    +0.077 C 
ATOM      4  C   UNL     1      33.944 -23.639 -13.515  0.00  0.00    +0.045 C 
ATOM      5  C   UNL     1      32.630 -23.191 -16.066  0.00  0.00    +0.077 C 
ATOM      6  C   UNL     1      31.881 -23.068 -14.895  0.00  0.00    +0.045 C 
ATOM      7  C   UNL     1      34.064 -23.544 -16.005  0.00  0.00    +0.202 C 
ATOM      8  C   UNL     1      32.511 -23.285 -13.576  0.00  0.00    +0.196 C 
ATOM      9  C   UNL     1      36.050 -24.098 -14.616  0.00  0.00    +0.152 C 
ATOM     10  C   UNL     1      34.551 -23.850 -12.271  0.00  0.00    +0.010 C 
ATOM     11  C   UNL     1      32.022 -22.982 -17.310  0.00  0.00    +0.152 C 
ATOM     12  C   UNL     1      35.905 -24.184 -12.206  0.00  0.00    +0.079 C 
ATOM     13  C   UNL     1      30.523 -22.734 -14.966  0.00  0.00    +0.003 C 
ATOM     14  C   UNL     1      36.653 -24.308 -13.375  0.00  0.00    +0.044 C 
ATOM     15  C   UNL     1      30.668 -22.651 -17.377  0.00  0.00    +0.038 C 
ATOM     16  C   UNL     1      29.921 -22.527 -16.208  0.00  0.00    +0.003 C 
ENDROOT
BRANCH  12  18
ATOM     17  O   UNL     1      35.962 -24.361  -9.820  0.00  0.00    -0.245 OA
ATOM     18  C   UNL     1      36.535 -24.404 -10.914  0.00  0.00    +0.338 C 
BRANCH  18  19
ATOM     19  O   UNL     1      37.866 -24.671 -11.023  0.00  0.00    -0.477 OA
ATOM     20  H   UNL     1      38.496 -24.022 -10.778  0.00  0.00    +0.295 HD
ENDBRANCH  18  19
ENDBRANCH  12  18
BRANCH   9  21
ATOM     21  O   UNL     1      36.841 -24.235 -15.718  0.00  0.00    -0.424 OA
BRANCH  21  23
ATOM     22  O   UNL     1      39.102 -23.693 -15.455  0.00  0.00    -0.250 OA
ATOM     23  C   UNL     1      37.953 -23.379 -15.735  0.00  0.00    +0.322 C 
ATOM     24  C   UNL     1      37.531 -22.000 -16.146  0.00  0.00    +0.122 C 
ENDBRANCH  21  23
ENDBRANCH   9  21
BRANCH  11  25
ATOM     25  O   UNL     1      32.693 -23.088 -18.493  0.00  0.00    -0.424 OA
BRANCH  25  27
ATOM     26  O   UNL     1      32.381 -20.872 -19.180  0.00  0.00    -0.250 OA
ATOM     27  C   UNL     1      33.093 -21.857 -19.034  0.00  0.00    +0.322 C 
ATOM     28  C   UNL     1      34.542 -21.914 -19.419  0.00  0.00    +0.122 C 
ENDBRANCH  25  27
ENDBRANCH  11  25
TORSDOF 6
ENDMDL
MODEL 7
REMARK VINA RESULT:      -9.2      9.292     13.194
REMARK  Name = 26248
REMARK  6 active torsions:
REMARK  status: ('A' for Active; 'I' for Inactive)
REMARK    1  A    between atoms: C_9  and  O_21
REMARK    2  A    between atoms: C_11  and  O_25
REMARK    3  A    between atoms: C_12  and  C_18
REMARK    4  A    between atoms: C_18  and  O_19
REMARK    5  A    between atoms: O_21  and  C_23
REMARK    6  A    between atoms: O_25  and  C_27
REMARK                            x       y       z     vdW  Elec       q    Type
REMARK                         _______ _______ _______ _____ _____    ______ ____
ROOT
ATOM      1  O   UNL     1      33.704 -13.028 -24.183  0.00  0.00    -0.286 OA
ATOM      2  O   UNL     1      32.235 -14.532 -19.270  0.00  0.00    -0.287 OA
ATOM      3  C   UNL     1      33.694 -14.724 -22.558  0.00  0.00    +0.077 C 
ATOM      4  C   UNL     1      33.311 -15.117 -21.275  0.00  0.00    +0.045 C 
ATOM      5  C   UNL     1      32.626 -12.444 -22.179  0.00  0.00    +0.077 C 
ATOM      6  C   UNL     1      32.241 -12.837 -20.896  0.00  0.00    +0.045 C 
ATOM      7  C   UNL     1      33.366 -13.373 -23.058  0.00  0.00    +0.202 C 
ATOM      8  C   UNL     1      32.572 -14.187 -20.397  0.00  0.00    +0.196 C 
ATOM      9  C   UNL     1      34.395 -15.613 -23.381  0.00  0.00    +0.152 C 
ATOM     10  C   UNL     1      33.627 -16.400 -20.813  0.00  0.00    +0.010 C 
ATOM     11  C   UNL     1      32.308 -11.161 -22.642  0.00  0.00    +0.152 C 
ATOM     12  C   UNL     1      34.326 -17.284 -21.637  0.00  0.00    +0.079 C 
ATOM     13  C   UNL     1      31.539 -11.948 -20.074  0.00  0.00    +0.003 C 
ATOM     14  C   UNL     1      34.709 -16.892 -22.918  0.00  0.00    +0.044 C 
ATOM     15  C   UNL     1      31.607 -10.278 -21.820  0.00  0.00    +0.038 C 
ATOM     16  C   UNL     1      31.224 -10.670 -20.539  0.00  0.00    +0.003 C 
ENDROOT
BRANCH  12  18
ATOM     17  O   UNL     1      33.920 -19.608 -21.235  0.00  0.00    -0.245 OA
ATOM     18  C   UNL     1      34.654 -18.617 -21.157  0.00  0.00    +0.338 C 
BRANCH  18  19
ATOM     19  O   UNL     1      35.890 -18.677 -20.592  0.00  0.00    -0.477 OA
ATOM     20  H   UNL     1      36.055 -19.268 -19.884  0.00  0.00    +0.295 HD
ENDBRANCH  18  19
ENDBRANCH  12  18
BRANCH   9  21
ATOM     21  O   UNL     1      34.800 -15.296 -24.644  0.00  0.00    -0.424 OA
BRANCH  21  23
ATOM     22  O   UNL     1      34.748 -17.233 -25.957  0.00  0.00    -0.250 OA
ATOM     23  C   UNL     1      34.289 -16.145 -25.638  0.00  0.00    +0.322 C 
ATOM     24  C   UNL     1      33.081 -15.520 -26.271  0.00  0.00    +0.122 C 
ENDBRANCH  21  23
ENDBRANCH   9  21
BRANCH  11  25
ATOM     25  O   UNL     1      32.649 -10.712 -23.884  0.00  0.00    -0.424 OA
BRANCH  25  27
ATOM     26  O   UNL     1      32.945  -8.405 -23.614  0.00  0.00    -0.250 OA
ATOM     27  C   UNL     1      33.385  -9.517 -23.875  0.00  0.00    +0.322 C 
ATOM     28  C   UNL     1      34.813  -9.793 -24.241  0.00  0.00    +0.122 C 
ENDBRANCH  25  27
ENDBRANCH  11  25
TORSDOF 6
ENDMDL
MODEL 8
REMARK VINA RESULT:      -9.2      2.658      6.308
REMARK  Name = 26248
REMARK  6 active torsions:
REMARK  status: ('A' for Active; 'I' for Inactive)
REMARK    1  A    between atoms: C_9  and  O_21
REMARK    2  A    between atoms: C_11  and  O_25
REMARK    3  A    between atoms: C_12  and  C_18
REMARK    4  A    between atoms: C_18  and  O_19
REMARK    5  A    between atoms: O_21  and  C_23
REMARK    6  A    between atoms: O_25  and  C_27
REMARK                            x       y       z     vdW  Elec       q    Type
REMARK                         _______ _______ _______ _____ _____    ______ ____
ROOT
ATOM      1  O   UNL     1      32.081 -21.655 -18.979  0.00  0.00    -0.286 OA
ATOM      2  O   UNL     1      36.340 -23.187 -16.137  0.00  0.00    -0.287 OA
ATOM      3  C   UNL     1      32.885 -22.734 -17.054  0.00  0.00    +0.077 C 
ATOM      4  C   UNL     1      33.998 -23.134 -16.311  0.00  0.00    +0.045 C 
ATOM      5  C   UNL     1      34.424 -21.706 -18.804  0.00  0.00    +0.077 C 
ATOM      6  C   UNL     1      35.536 -22.105 -18.061  0.00  0.00    +0.045 C 
ATOM      7  C   UNL     1      33.057 -22.005 -18.327  0.00  0.00    +0.202 C 
ATOM      8  C   UNL     1      35.363 -22.836 -16.788  0.00  0.00    +0.196 C 
ATOM      9  C   UNL     1      31.596 -23.023 -16.592  0.00  0.00    +0.152 C 
ATOM     10  C   UNL     1      33.822 -23.824 -15.105  0.00  0.00    +0.010 C 
ATOM     11  C   UNL     1      34.599 -21.015 -20.009  0.00  0.00    +0.152 C 
ATOM     12  C   UNL     1      32.534 -24.110 -14.648  0.00  0.00    +0.079 C 
ATOM     13  C   UNL     1      36.825 -21.815 -18.522  0.00  0.00    +0.003 C 
ATOM     14  C   UNL     1      31.424 -23.711 -15.389  0.00  0.00    +0.044 C 
ATOM     15  C   UNL     1      35.886 -20.726 -20.465  0.00  0.00    +0.038 C 
ATOM     16  C   UNL     1      36.996 -21.125 -19.724  0.00  0.00    +0.003 C 
ENDROOT
BRANCH  12  18
ATOM     17  O   UNL     1      31.282 -25.280 -12.979  0.00  0.00    -0.245 OA
ATOM     18  C   UNL     1      32.352 -24.826 -13.395  0.00  0.00    +0.338 C 
BRANCH  18  19
ATOM     19  O   UNL     1      33.513 -24.954 -12.697  0.00  0.00    -0.477 OA
ATOM     20  H   UNL     1      34.105 -24.230 -12.633  0.00  0.00    +0.295 HD
ENDBRANCH  18  19
ENDBRANCH  12  18
BRANCH   9  21
ATOM     21  O   UNL     1      30.467 -22.663 -17.265  0.00  0.00    -0.424 OA
BRANCH  21  23
ATOM     22  O   UNL     1      28.986 -21.964 -15.593  0.00  0.00    -0.250 OA
ATOM     23  C   UNL     1      29.295 -22.731 -16.494  0.00  0.00    +0.322 C 
ATOM     24  C   UNL     1      28.461 -23.896 -16.934  0.00  0.00    +0.122 C 
ENDBRANCH  21  23
ENDBRANCH   9  21
BRANCH  11  25
ATOM     25  O   UNL     1      33.559 -20.593 -20.783  0.00  0.00    -0.424 OA
BRANCH  25  27
ATOM     26  O   UNL     1      33.395 -18.257 -20.733  0.00  0.00    -0.250 OA
ATOM     27  C   UNL     1      33.718 -19.296 -21.295  0.00  0.00    +0.322 C 
ATOM     28  C   UNL     1      34.350 -19.357 -22.654  0.00  0.00    +0.122 C 
ENDBRANCH  25  27
ENDBRANCH  11  25
TORSDOF 6
ENDMDL
MODEL 9
REMARK VINA RESULT:      -9.1     12.048     14.958
REMARK  Name = 26248
REMARK  6 active torsions:
REMARK  status: ('A' for Active; 'I' for Inactive)
REMARK    1  A    between atoms: C_9  and  O_21
REMARK    2  A    between atoms: C_11  and  O_25
REMARK    3  A    between atoms: C_12  and  C_18
REMARK    4  A    between atoms: C_18  and  O_19
REMARK    5  A    between atoms: O_21  and  C_23
REMARK    6  A    between atoms: O_25  and  C_27
REMARK                            x       y       z     vdW  Elec       q    Type
REMARK                         _______ _______ _______ _____ _____    ______ ____
ROOT
ATOM      1  O   UNL     1      32.566 -10.151 -23.796  0.00  0.00    -0.286 OA
ATOM      2  O   UNL     1      32.542 -14.390 -20.543  0.00  0.00    -0.287 OA
ATOM      3  C   UNL     1      32.987 -12.448 -23.544  0.00  0.00    +0.077 C 
ATOM      4  C   UNL     1      32.980 -13.555 -22.694  0.00  0.00    +0.045 C 
ATOM      5  C   UNL     1      32.126 -10.986 -21.645  0.00  0.00    +0.077 C 
ATOM      6  C   UNL     1      32.119 -12.094 -20.795  0.00  0.00    +0.045 C 
ATOM      7  C   UNL     1      32.560 -11.122 -23.050  0.00  0.00    +0.202 C 
ATOM      8  C   UNL     1      32.548 -13.419 -21.289  0.00  0.00    +0.196 C 
ATOM      9  C   UNL     1      33.400 -12.589 -24.874  0.00  0.00    +0.152 C 
ATOM     10  C   UNL     1      33.387 -14.806 -23.174  0.00  0.00    +0.010 C 
ATOM     11  C   UNL     1      31.718  -9.735 -21.166  0.00  0.00    +0.152 C 
ATOM     12  C   UNL     1      33.798 -14.943 -24.501  0.00  0.00    +0.079 C 
ATOM     13  C   UNL     1      31.705 -11.952 -19.466  0.00  0.00    +0.003 C 
ATOM     14  C   UNL     1      33.804 -13.838 -25.349  0.00  0.00    +0.044 C 
ATOM     15  C   UNL     1      31.304  -9.598 -19.840  0.00  0.00    +0.038 C 
ATOM     16  C   UNL     1      31.298 -10.704 -18.992  0.00  0.00    +0.003 C 
ENDROOT
BRANCH  12  18
ATOM     17  O   UNL     1      33.656 -16.886 -25.891  0.00  0.00    -0.245 OA
ATOM     18  C   UNL     1      34.219 -16.243 -24.999  0.00  0.00    +0.338 C 
BRANCH  18  19
ATOM     19  O   UNL     1      35.333 -16.705 -24.368  0.00  0.00    -0.477 OA
ATOM     20  H   UNL     1      35.324 -17.548 -23.957  0.00  0.00    +0.295 HD
ENDBRANCH  18  19
ENDBRANCH  12  18
BRANCH   9  21
ATOM     21  O   UNL     1      33.431 -11.552 -25.758  0.00  0.00    -0.424 OA
BRANCH  21  23
ATOM     22  O   UNL     1      35.184 -11.716 -27.300  0.00  0.00    -0.250 OA
ATOM     23  C   UNL     1      34.710 -11.270 -26.264  0.00  0.00    +0.322 C 
ATOM     24  C   UNL     1      35.430 -10.333 -25.341  0.00  0.00    +0.122 C 
ENDBRANCH  21  23
ENDBRANCH   9  21
BRANCH  11  25
ATOM     25  O   UNL     1      31.697  -8.613 -21.940  0.00  0.00    -0.424 OA
BRANCH  25  27
ATOM     26  O   UNL     1      33.839  -7.762 -21.526  0.00  0.00    -0.250 OA
ATOM     27  C   UNL     1      32.622  -7.633 -21.548  0.00  0.00    +0.322 C 
ATOM     28  C   UNL     1      31.901  -6.380 -21.147  0.00  0.00    +0.122 C 
ENDBRANCH  25  27
ENDBRANCH  11  25
TORSDOF 6
ENDMDL
