MODEL 1
REMARK VINA RESULT:     -10.9      0.000      0.000
REMARK  Name = 3534
REMARK  3 active torsions:
REMARK  status: ('A' for Active; 'I' for Inactive)
REMARK    1  A    between atoms: C_5  and  S_17
REMARK    2  A    between atoms: S_17  and  C_21
REMARK    3  A    between atoms: C_18  and  N_25
REMARK                            x       y       z     vdW  Elec       q    Type
REMARK                         _______ _______ _______ _____ _____    ______ ____
ROOT
ATOM      1  N   UNL     1      33.891 -13.331 -22.768  0.00  0.00    -0.332 NA
ATOM      2  N   UNL     1      33.726 -14.319 -24.959  0.00  0.00    -0.317 NA
ATOM      3  N   UNL     1      34.063 -16.566 -25.324  0.00  0.00    -0.335 N 
ATOM      4  N   UNL     1      33.375 -12.024 -24.647  0.00  0.00    -0.283 N 
ATOM      5  C   UNL     1      34.565 -16.937 -22.473  0.00  0.00    +0.022 C 
ATOM      6  C   UNL     1      34.260 -15.685 -23.037  0.00  0.00    +0.149 C 
ATOM      7  C   UNL     1      34.182 -14.532 -22.239  0.00  0.00    +0.135 C 
ATOM      8  C   UNL     1      34.794 -17.046 -21.105  0.00  0.00    +0.003 C 
ATOM      9  C   UNL     1      34.020 -15.507 -24.397  0.00  0.00    +0.178 C 
ATOM     10  C   UNL     1      34.416 -14.671 -20.873  0.00  0.00    +0.029 C 
ATOM     11  C   UNL     1      34.719 -15.911 -20.304  0.00  0.00    +0.003 C 
ATOM     12  C   UNL     1      33.680 -13.290 -24.099  0.00  0.00    +0.197 C 
ATOM     13  H   UNL     1      33.886 -16.394 -26.277  0.00  0.00    +0.144 HD
ATOM     14  H   UNL     1      34.269 -17.479 -25.019  0.00  0.00    +0.144 HD
ATOM     15  H   UNL     1      33.327 -11.233 -24.063  0.00  0.00    +0.156 HD
ATOM     16  H   UNL     1      33.210 -11.933 -25.613  0.00  0.00    +0.156 HD
ENDROOT
BRANCH   5  17
ATOM     17  S   UNL     1      34.713 -18.527 -23.309  0.00  0.00    -0.090 S 
BRANCH  17  21
ATOM     18  C   UNL     1      34.719 -21.133 -19.552  0.00  0.00    +0.048 C 
ATOM     19  C   UNL     1      35.925 -20.755 -20.141  0.00  0.00    +0.015 C 
ATOM     20  C   UNL     1      33.510 -20.716 -20.109  0.00  0.00    +0.015 C 
ATOM     21  C   UNL     1      34.715 -19.542 -21.844  0.00  0.00    +0.029 C 
ATOM     22  C   UNL     1      35.924 -19.959 -21.287  0.00  0.00    +0.008 C 
ATOM     23  C   UNL     1      33.508 -19.920 -21.255  0.00  0.00    +0.008 C 
BRANCH  18  25
ATOM     24  O   UNL     1      34.864 -23.721 -16.242  0.00  0.00    -0.350 OA
ATOM     25  N   UNL     1      34.721 -21.930 -18.404  0.00  0.00    -0.303 N 
ATOM     26  C   UNL     1      36.008 -22.205 -17.752  0.00  0.00    +0.123 C 
ATOM     27  C   UNL     1      33.699 -22.970 -18.233  0.00  0.00    +0.123 C 
ATOM     28  C   UNL     1      35.773 -22.622 -16.304  0.00  0.00    +0.164 C 
ATOM     29  C   UNL     1      33.588 -23.346 -16.760  0.00  0.00    +0.164 C 
ENDBRANCH  18  25
ENDBRANCH  17  21
ENDBRANCH   5  17
TORSDOF 3
ENDMDL
MODEL 2
REMARK VINA RESULT:     -10.6      5.412     10.989
REMARK  Name = 3534
REMARK  3 active torsions:
REMARK  status: ('A' for Active; 'I' for Inactive)
REMARK    1  A    between atoms: C_5  and  S_17
REMARK    2  A    between atoms: S_17  and  C_21
REMARK    3  A    between atoms: C_18  and  N_25
REMARK                            x       y       z     vdW  Elec       q    Type
REMARK                         _______ _______ _______ _____ _____    ______ ____
ROOT
ATOM      1  N   UNL     1      39.485 -25.163 -13.168  0.00  0.00    -0.332 NA
ATOM      2  N   UNL     1      38.544 -26.680 -14.787  0.00  0.00    -0.317 NA
ATOM      3  N   UNL     1      36.311 -26.658 -15.342  0.00  0.00    -0.335 N 
ATOM      4  N   UNL     1      40.826 -26.749 -14.260  0.00  0.00    -0.283 N 
ATOM      5  C   UNL     1      35.883 -24.465 -13.465  0.00  0.00    +0.022 C 
ATOM      6  C   UNL     1      37.143 -25.055 -13.674  0.00  0.00    +0.149 C 
ATOM      7  C   UNL     1      38.276 -24.607 -12.976  0.00  0.00    +0.135 C 
ATOM      8  C   UNL     1      35.747 -23.422 -12.555  0.00  0.00    +0.003 C 
ATOM      9  C   UNL     1      37.348 -26.101 -14.569  0.00  0.00    +0.178 C 
ATOM     10  C   UNL     1      38.109 -23.561 -12.071  0.00  0.00    +0.029 C 
ATOM     11  C   UNL     1      36.861 -22.969 -11.857  0.00  0.00    +0.003 C 
ATOM     12  C   UNL     1      39.553 -26.170 -14.063  0.00  0.00    +0.197 C 
ATOM     13  H   UNL     1      36.502 -27.398 -15.963  0.00  0.00    +0.144 HD
ATOM     14  H   UNL     1      35.395 -26.308 -15.261  0.00  0.00    +0.144 HD
ATOM     15  H   UNL     1      41.602 -26.415 -13.756  0.00  0.00    +0.156 HD
ATOM     16  H   UNL     1      40.936 -27.488 -14.901  0.00  0.00    +0.156 HD
ENDROOT
BRANCH   5  17
ATOM     17  S   UNL     1      34.315 -24.884 -14.249  0.00  0.00    -0.090 S 
BRANCH  17  21
ATOM     18  C   UNL     1      34.801 -22.208 -17.924  0.00  0.00    +0.048 C 
ATOM     19  C   UNL     1      33.603 -22.889 -17.710  0.00  0.00    +0.015 C 
ATOM     20  C   UNL     1      35.852 -22.343 -17.017  0.00  0.00    +0.015 C 
ATOM     21  C   UNL     1      34.505 -23.840 -15.681  0.00  0.00    +0.029 C 
ATOM     22  C   UNL     1      33.454 -23.705 -16.589  0.00  0.00    +0.008 C 
ATOM     23  C   UNL     1      35.703 -23.159 -15.895  0.00  0.00    +0.008 C 
BRANCH  18  25
ATOM     24  O   UNL     1      35.212 -19.973 -21.462  0.00  0.00    -0.350 OA
ATOM     25  N   UNL     1      34.950 -21.390 -19.049  0.00  0.00    -0.303 N 
ATOM     26  C   UNL     1      33.790 -21.205 -19.931  0.00  0.00    +0.123 C 
ATOM     27  C   UNL     1      36.257 -21.280 -19.705  0.00  0.00    +0.123 C 
ATOM     28  C   UNL     1      33.970 -19.938 -20.760  0.00  0.00    +0.164 C 
ATOM     29  C   UNL     1      36.307 -20.009 -20.546  0.00  0.00    +0.164 C 
ENDBRANCH  18  25
ENDBRANCH  17  21
ENDBRANCH   5  17
TORSDOF 3
ENDMDL
MODEL 3
REMARK VINA RESULT:     -10.2      3.432      8.312
REMARK  Name = 3534
REMARK  3 active torsions:
REMARK  status: ('A' for Active; 'I' for Inactive)
REMARK    1  A    between atoms: C_5  and  S_17
REMARK    2  A    between atoms: S_17  and  C_21
REMARK    3  A    between atoms: C_18  and  N_25
REMARK                            x       y       z     vdW  Elec       q    Type
REMARK                         _______ _______ _______ _____ _____    ______ ____
ROOT
ATOM      1  N   UNL     1      34.964 -21.635 -18.728  0.00  0.00    -0.332 NA
ATOM      2  N   UNL     1      37.207 -20.869 -19.160  0.00  0.00    -0.317 NA
ATOM      3  N   UNL     1      37.696 -19.381 -20.846  0.00  0.00    -0.335 N 
ATOM      4  N   UNL     1      36.769 -22.387 -17.430  0.00  0.00    -0.283 N 
ATOM      5  C   UNL     1      34.869 -19.295 -21.566  0.00  0.00    +0.022 C 
ATOM      6  C   UNL     1      35.363 -20.082 -20.511  0.00  0.00    +0.149 C 
ATOM      7  C   UNL     1      34.502 -20.879 -19.739  0.00  0.00    +0.135 C 
ATOM      8  C   UNL     1      33.509 -19.298 -21.859  0.00  0.00    +0.003 C 
ATOM      9  C   UNL     1      36.711 -20.124 -20.166  0.00  0.00    +0.178 C 
ATOM     10  C   UNL     1      33.145 -20.863 -20.054  0.00  0.00    +0.029 C 
ATOM     11  C   UNL     1      32.646 -20.084 -21.102  0.00  0.00    +0.003 C 
ATOM     12  C   UNL     1      36.291 -21.589 -18.494  0.00  0.00    +0.197 C 
ATOM     13  H   UNL     1      38.638 -19.441 -20.568  0.00  0.00    +0.144 HD
ATOM     14  H   UNL     1      37.442 -18.801 -21.600  0.00  0.00    +0.144 HD
ATOM     15  H   UNL     1      36.142 -22.935 -16.907  0.00  0.00    +0.156 HD
ATOM     16  H   UNL     1      37.728 -22.393 -17.212  0.00  0.00    +0.156 HD
ENDROOT
BRANCH   5  17
ATOM     17  S   UNL     1      35.792 -18.210 -22.671  0.00  0.00    -0.090 S 
BRANCH  17  21
ATOM     18  C   UNL     1      33.422 -14.396 -21.808  0.00  0.00    +0.048 C 
ATOM     19  C   UNL     1      34.009 -15.105 -20.761  0.00  0.00    +0.015 C 
ATOM     20  C   UNL     1      33.558 -14.851 -23.120  0.00  0.00    +0.015 C 
ATOM     21  C   UNL     1      34.868 -16.723 -22.335  0.00  0.00    +0.029 C 
ATOM     22  C   UNL     1      34.732 -16.268 -21.023  0.00  0.00    +0.008 C 
ATOM     23  C   UNL     1      34.282 -16.014 -23.384  0.00  0.00    +0.008 C 
BRANCH  18  25
ATOM     24  O   UNL     1      31.012 -11.042 -21.021  0.00  0.00    -0.350 OA
ATOM     25  N   UNL     1      32.697 -13.230 -21.545  0.00  0.00    -0.303 N 
ATOM     26  C   UNL     1      31.992 -13.127 -20.260  0.00  0.00    +0.123 C 
ATOM     27  C   UNL     1      32.094 -12.477 -22.651  0.00  0.00    +0.123 C 
ATOM     28  C   UNL     1      31.711 -11.662 -19.943  0.00  0.00    +0.164 C 
ATOM     29  C   UNL     1      31.808 -11.047 -22.206  0.00  0.00    +0.164 C 
ENDBRANCH  18  25
ENDBRANCH  17  21
ENDBRANCH   5  17
TORSDOF 3
ENDMDL
MODEL 4
REMARK VINA RESULT:     -10.1      3.482      9.293
REMARK  Name = 3534
REMARK  3 active torsions:
REMARK  status: ('A' for Active; 'I' for Inactive)
REMARK    1  A    between atoms: C_5  and  S_17
REMARK    2  A    between atoms: S_17  and  C_21
REMARK    3  A    between atoms: C_18  and  N_25
REMARK                            x       y       z     vdW  Elec       q    Type
REMARK                         _______ _______ _______ _____ _____    ______ ____
ROOT
ATOM      1  N   UNL     1      36.251 -23.043 -14.069  0.00  0.00    -0.332 NA
ATOM      2  N   UNL     1      34.022 -23.952 -14.175  0.00  0.00    -0.317 NA
ATOM      3  N   UNL     1      32.773 -23.924 -16.107  0.00  0.00    -0.335 N 
ATOM      4  N   UNL     1      35.248 -24.006 -12.179  0.00  0.00    -0.283 N 
ATOM      5  C   UNL     1      34.975 -22.600 -17.492  0.00  0.00    +0.022 C 
ATOM      6  C   UNL     1      35.036 -22.963 -16.134  0.00  0.00    +0.149 C 
ATOM      7  C   UNL     1      36.182 -22.700 -15.367  0.00  0.00    +0.135 C 
ATOM      8  C   UNL     1      36.060 -21.971 -18.093  0.00  0.00    +0.003 C 
ATOM      9  C   UNL     1      33.986 -23.595 -15.473  0.00  0.00    +0.178 C 
ATOM     10  C   UNL     1      37.253 -22.069 -15.995  0.00  0.00    +0.029 C 
ATOM     11  C   UNL     1      37.201 -21.705 -17.343  0.00  0.00    +0.003 C 
ATOM     12  C   UNL     1      35.167 -23.649 -13.543  0.00  0.00    +0.197 C 
ATOM     13  H   UNL     1      32.057 -24.371 -15.600  0.00  0.00    +0.144 HD
ATOM     14  H   UNL     1      32.640 -23.707 -17.058  0.00  0.00    +0.144 HD
ATOM     15  H   UNL     1      36.064 -23.809 -11.666  0.00  0.00    +0.156 HD
ATOM     16  H   UNL     1      34.487 -24.453 -11.742  0.00  0.00    +0.156 HD
ENDROOT
BRANCH   5  17
ATOM     17  S   UNL     1      33.613 -22.843 -18.647  0.00  0.00    -0.090 S 
BRANCH  17  21
ATOM     18  C   UNL     1      34.352 -19.103 -21.172  0.00  0.00    +0.048 C 
ATOM     19  C   UNL     1      33.084 -19.351 -20.646  0.00  0.00    +0.015 C 
ATOM     20  C   UNL     1      35.395 -19.997 -20.928  0.00  0.00    +0.015 C 
ATOM     21  C   UNL     1      33.901 -21.385 -19.631  0.00  0.00    +0.029 C 
ATOM     22  C   UNL     1      32.858 -20.492 -19.876  0.00  0.00    +0.008 C 
ATOM     23  C   UNL     1      35.170 -21.137 -20.157  0.00  0.00    +0.008 C 
BRANCH  18  25
ATOM     24  O   UNL     1      35.301 -15.706 -23.460  0.00  0.00    -0.350 OA
ATOM     25  N   UNL     1      34.578 -17.960 -21.945  0.00  0.00    -0.303 N 
ATOM     26  C   UNL     1      35.241 -18.122 -23.245  0.00  0.00    +0.123 C 
ATOM     27  C   UNL     1      34.793 -16.665 -21.290  0.00  0.00    +0.123 C 
ATOM     28  C   UNL     1      34.944 -16.915 -24.129  0.00  0.00    +0.164 C 
ATOM     29  C   UNL     1      34.520 -15.536 -22.277  0.00  0.00    +0.164 C 
ENDBRANCH  18  25
ENDBRANCH  17  21
ENDBRANCH   5  17
TORSDOF 3
ENDMDL
MODEL 5
REMARK VINA RESULT:     -10.0      3.239      8.782
REMARK  Name = 3534
REMARK  3 active torsions:
REMARK  status: ('A' for Active; 'I' for Inactive)
REMARK    1  A    between atoms: C_5  and  S_17
REMARK    2  A    between atoms: S_17  and  C_21
REMARK    3  A    between atoms: C_18  and  N_25
REMARK                            x       y       z     vdW  Elec       q    Type
REMARK                         _______ _______ _______ _____ _____    ______ ____
ROOT
ATOM      1  N   UNL     1      33.368 -22.799 -17.721  0.00  0.00    -0.332 NA
ATOM      2  N   UNL     1      35.720 -22.730 -17.205  0.00  0.00    -0.317 NA
ATOM      3  N   UNL     1      37.205 -21.440 -18.400  0.00  0.00    -0.335 N 
ATOM      4  N   UNL     1      34.255 -24.063 -15.955  0.00  0.00    -0.283 N 
ATOM      5  C   UNL     1      35.014 -20.512 -20.089  0.00  0.00    +0.022 C 
ATOM      6  C   UNL     1      34.829 -21.419 -19.030  0.00  0.00    +0.149 C 
ATOM      7  C   UNL     1      33.556 -21.931 -18.731  0.00  0.00    +0.135 C 
ATOM      8  C   UNL     1      33.926 -20.109 -20.857  0.00  0.00    +0.003 C 
ATOM      9  C   UNL     1      35.873 -21.862 -18.224  0.00  0.00    +0.178 C 
ATOM     10  C   UNL     1      32.486 -21.510 -19.517  0.00  0.00    +0.029 C 
ATOM     11  C   UNL     1      32.661 -20.609 -20.571  0.00  0.00    +0.003 C 
ATOM     12  C   UNL     1      34.460 -23.151 -17.014  0.00  0.00    +0.197 C 
ATOM     13  H   UNL     1      37.913 -21.780 -17.806  0.00  0.00    +0.144 HD
ATOM     14  H   UNL     1      37.429 -20.805 -19.118  0.00  0.00    +0.144 HD
ATOM     15  H   UNL     1      33.351 -24.406 -15.769  0.00  0.00    +0.156 HD
ATOM     16  H   UNL     1      35.016 -24.356 -15.403  0.00  0.00    +0.156 HD
ENDROOT
BRANCH   5  17
ATOM     17  S   UNL     1      36.548 -19.741 -20.638  0.00  0.00    -0.090 S 
BRANCH  17  21
ATOM     18  C   UNL     1      34.643 -16.512 -23.255  0.00  0.00    +0.048 C 
ATOM     19  C   UNL     1      35.147 -17.674 -23.837  0.00  0.00    +0.015 C 
ATOM     20  C   UNL     1      34.721 -16.334 -21.873  0.00  0.00    +0.015 C 
ATOM     21  C   UNL     1      35.805 -18.482 -21.658  0.00  0.00    +0.029 C 
ATOM     22  C   UNL     1      35.728 -18.660 -23.039  0.00  0.00    +0.008 C 
ATOM     23  C   UNL     1      35.301 -17.319 -21.074  0.00  0.00    +0.008 C 
BRANCH  18  25
ATOM     24  O   UNL     1      33.140 -13.505 -25.780  0.00  0.00    -0.350 OA
ATOM     25  N   UNL     1      34.061 -15.524 -24.055  0.00  0.00    -0.303 N 
ATOM     26  C   UNL     1      33.961 -15.771 -25.500  0.00  0.00    +0.123 C 
ATOM     27  C   UNL     1      34.168 -14.112 -23.668  0.00  0.00    +0.123 C 
ATOM     28  C   UNL     1      32.886 -14.872 -26.102  0.00  0.00    +0.164 C 
ATOM     29  C   UNL     1      33.083 -13.302 -24.369  0.00  0.00    +0.164 C 
ENDBRANCH  18  25
ENDBRANCH  17  21
ENDBRANCH   5  17
TORSDOF 3
ENDMDL
MODEL 6
REMARK VINA RESULT:      -9.7      4.400      7.230
REMARK  Name = 3534
REMARK  3 active torsions:
REMARK  status: ('A' for Active; 'I' for Inactive)
REMARK    1  A    between atoms: C_5  and  S_17
REMARK    2  A    between atoms: S_17  and  C_21
REMARK    3  A    between atoms: C_18  and  N_25
REMARK                            x       y       z     vdW  Elec       q    Type
REMARK                         _______ _______ _______ _____ _____    ______ ____
ROOT
ATOM      1  N   UNL     1      31.956  -8.523 -19.831  0.00  0.00    -0.332 NA
ATOM      2  N   UNL     1      33.199  -7.339 -21.522  0.00  0.00    -0.317 NA
ATOM      3  N   UNL     1      33.776  -8.306 -23.529  0.00  0.00    -0.335 N 
ATOM      4  N   UNL     1      32.641  -6.303 -19.497  0.00  0.00    -0.283 N 
ATOM      5  C   UNL     1      32.453 -10.772 -22.701  0.00  0.00    +0.022 C 
ATOM      6  C   UNL     1      32.505  -9.625 -21.889  0.00  0.00    +0.149 C 
ATOM      7  C   UNL     1      31.912  -9.614 -20.616  0.00  0.00    +0.135 C 
ATOM      8  C   UNL     1      31.805 -11.917 -22.248  0.00  0.00    +0.003 C 
ATOM      9  C   UNL     1      33.136  -8.449 -22.283  0.00  0.00    +0.178 C 
ATOM     10  C   UNL     1      31.271 -10.774 -20.188  0.00  0.00    +0.029 C 
ATOM     11  C   UNL     1      31.214 -11.918 -20.989  0.00  0.00    +0.003 C 
ATOM     12  C   UNL     1      32.598  -7.445 -20.327  0.00  0.00    +0.197 C 
ATOM     13  H   UNL     1      34.210  -7.455 -23.766  0.00  0.00    +0.144 HD
ATOM     14  H   UNL     1      33.790  -9.059 -24.164  0.00  0.00    +0.144 HD
ATOM     15  H   UNL     1      32.216  -6.324 -18.609  0.00  0.00    +0.156 HD
ATOM     16  H   UNL     1      33.095  -5.487 -19.806  0.00  0.00    +0.156 HD
ENDROOT
BRANCH   5  17
ATOM     17  S   UNL     1      33.142 -10.999 -24.351  0.00  0.00    -0.090 S 
BRANCH  17  21
ATOM     18  C   UNL     1      34.049 -15.464 -23.968  0.00  0.00    +0.048 C 
ATOM     19  C   UNL     1      34.400 -14.589 -22.940  0.00  0.00    +0.015 C 
ATOM     20  C   UNL     1      33.420 -14.976 -25.114  0.00  0.00    +0.015 C 
ATOM     21  C   UNL     1      33.495 -12.739 -24.202  0.00  0.00    +0.029 C 
ATOM     22  C   UNL     1      34.124 -13.227 -23.057  0.00  0.00    +0.008 C 
ATOM     23  C   UNL     1      33.143 -13.613 -25.231  0.00  0.00    +0.008 C 
BRANCH  18  25
ATOM     24  O   UNL     1      35.153 -19.506 -23.624  0.00  0.00    -0.350 OA
ATOM     25  N   UNL     1      34.327 -16.829 -23.851  0.00  0.00    -0.303 N 
ATOM     26  C   UNL     1      34.986 -17.301 -22.627  0.00  0.00    +0.123 C 
ATOM     27  C   UNL     1      34.597 -17.626 -25.053  0.00  0.00    +0.123 C 
ATOM     28  C   UNL     1      34.744 -18.796 -22.455  0.00  0.00    +0.164 C 
ATOM     29  C   UNL     1      34.377 -19.104 -24.753  0.00  0.00    +0.164 C 
ENDBRANCH  18  25
ENDBRANCH  17  21
ENDBRANCH   5  17
TORSDOF 3
ENDMDL
MODEL 7
REMARK VINA RESULT:      -9.7      4.856      9.644
REMARK  Name = 3534
REMARK  3 active torsions:
REMARK  status: ('A' for Active; 'I' for Inactive)
REMARK    1  A    between atoms: C_5  and  S_17
REMARK    2  A    between atoms: S_17  and  C_21
REMARK    3  A    between atoms: C_18  and  N_25
REMARK                            x       y       z     vdW  Elec       q    Type
REMARK                         _______ _______ _______ _____ _____    ______ ____
ROOT
ATOM      1  N   UNL     1      35.263 -18.252 -20.825  0.00  0.00    -0.332 NA
ATOM      2  N   UNL     1      34.994 -18.976 -23.107  0.00  0.00    -0.317 NA
ATOM      3  N   UNL     1      34.318 -17.548 -24.780  0.00  0.00    -0.335 N 
ATOM      4  N   UNL     1      35.683 -20.476 -21.445  0.00  0.00    -0.283 N 
ATOM      5  C   UNL     1      34.168 -15.373 -22.838  0.00  0.00    +0.022 C 
ATOM      6  C   UNL     1      34.554 -16.680 -22.491  0.00  0.00    +0.149 C 
ATOM      7  C   UNL     1      34.893 -17.006 -21.168  0.00  0.00    +0.135 C 
ATOM      8  C   UNL     1      34.117 -14.381 -21.865  0.00  0.00    +0.003 C 
ATOM      9  C   UNL     1      34.626 -17.718 -23.416  0.00  0.00    +0.178 C 
ATOM     10  C   UNL     1      34.833 -15.993 -20.214  0.00  0.00    +0.029 C 
ATOM     11  C   UNL     1      34.450 -14.692 -20.550  0.00  0.00    +0.003 C 
ATOM     12  C   UNL     1      35.293 -19.169 -21.813  0.00  0.00    +0.197 C 
ATOM     13  H   UNL     1      34.382 -18.310 -25.398  0.00  0.00    +0.144 HD
ATOM     14  H   UNL     1      34.037 -16.665 -25.114  0.00  0.00    +0.144 HD
ATOM     15  H   UNL     1      35.915 -20.676 -20.509  0.00  0.00    +0.156 HD
ATOM     16  H   UNL     1      35.724 -21.187 -22.124  0.00  0.00    +0.156 HD
ENDROOT
BRANCH   5  17
ATOM     17  S   UNL     1      33.698 -14.747 -24.462  0.00  0.00    -0.090 S 
BRANCH  17  21
ATOM     18  C   UNL     1      32.632 -10.504 -23.135  0.00  0.00    +0.048 C 
ATOM     19  C   UNL     1      31.946 -11.595 -22.603  0.00  0.00    +0.015 C 
ATOM     20  C   UNL     1      33.644 -10.707 -24.073  0.00  0.00    +0.015 C 
ATOM     21  C   UNL     1      33.283 -13.093 -23.944  0.00  0.00    +0.029 C 
ATOM     22  C   UNL     1      32.271 -12.889 -23.007  0.00  0.00    +0.008 C 
ATOM     23  C   UNL     1      33.970 -12.002 -24.477  0.00  0.00    +0.008 C 
BRANCH  18  25
ATOM     24  O   UNL     1      31.405  -6.697 -21.839  0.00  0.00    -0.350 OA
ATOM     25  N   UNL     1      32.306  -9.206 -22.730  0.00  0.00    -0.303 N 
ATOM     26  C   UNL     1      32.096  -8.958 -21.297  0.00  0.00    +0.123 C 
ATOM     27  C   UNL     1      31.558  -8.324 -23.633  0.00  0.00    +0.123 C 
ATOM     28  C   UNL     1      32.262  -7.471 -21.002  0.00  0.00    +0.164 C 
ATOM     29  C   UNL     1      31.752  -6.871 -23.213  0.00  0.00    +0.164 C 
ENDBRANCH  18  25
ENDBRANCH  17  21
ENDBRANCH   5  17
TORSDOF 3
ENDMDL
MODEL 8
REMARK VINA RESULT:      -9.5      3.292      5.308
REMARK  Name = 3534
REMARK  3 active torsions:
REMARK  status: ('A' for Active; 'I' for Inactive)
REMARK    1  A    between atoms: C_5  and  S_17
REMARK    2  A    between atoms: S_17  and  C_21
REMARK    3  A    between atoms: C_18  and  N_25
REMARK                            x       y       z     vdW  Elec       q    Type
REMARK                         _______ _______ _______ _____ _____    ______ ____
ROOT
ATOM      1  N   UNL     1      31.894  -9.098 -21.381  0.00  0.00    -0.332 NA
ATOM      2  N   UNL     1      33.276  -8.543 -23.274  0.00  0.00    -0.317 NA
ATOM      3  N   UNL     1      34.144 -10.147 -24.677  0.00  0.00    -0.335 N 
ATOM      4  N   UNL     1      32.421  -6.867 -21.879  0.00  0.00    -0.283 N 
ATOM      5  C   UNL     1      32.852 -12.219 -23.079  0.00  0.00    +0.022 C 
ATOM      6  C   UNL     1      32.747 -10.849 -22.780  0.00  0.00    +0.149 C 
ATOM      7  C   UNL     1      32.000 -10.406 -21.676  0.00  0.00    +0.135 C 
ATOM      8  C   UNL     1      32.210 -13.157 -22.277  0.00  0.00    +0.003 C 
ATOM      9  C   UNL     1      33.363  -9.860 -23.541  0.00  0.00    +0.178 C 
ATOM     10  C   UNL     1      31.369 -11.367 -20.890  0.00  0.00    +0.029 C 
ATOM     11  C   UNL     1      31.468 -12.731 -21.181  0.00  0.00    +0.003 C 
ATOM     12  C   UNL     1      32.538  -8.238 -22.196  0.00  0.00    +0.197 C 
ATOM     13  H   UNL     1      34.561  -9.415 -25.186  0.00  0.00    +0.144 HD
ATOM     14  H   UNL     1      34.273 -11.080 -24.962  0.00  0.00    +0.144 HD
ATOM     15  H   UNL     1      31.891  -6.585 -21.099  0.00  0.00    +0.156 HD
ATOM     16  H   UNL     1      32.869  -6.193 -22.439  0.00  0.00    +0.156 HD
ENDROOT
BRANCH   5  17
ATOM     17  S   UNL     1      33.750 -12.996 -24.435  0.00  0.00    -0.090 S 
BRANCH  17  21
ATOM     18  C   UNL     1      34.696 -16.925 -22.297  0.00  0.00    +0.048 C 
ATOM     19  C   UNL     1      34.340 -16.932 -23.645  0.00  0.00    +0.015 C 
ATOM     20  C   UNL     1      34.763 -15.718 -21.600  0.00  0.00    +0.015 C 
ATOM     21  C   UNL     1      34.119 -14.527 -23.602  0.00  0.00    +0.029 C 
ATOM     22  C   UNL     1      34.052 -15.734 -24.298  0.00  0.00    +0.008 C 
ATOM     23  C   UNL     1      34.475 -14.519 -22.253  0.00  0.00    +0.008 C 
BRANCH  18  25
ATOM     24  O   UNL     1      35.633 -20.643 -20.574  0.00  0.00    -0.350 OA
ATOM     25  N   UNL     1      34.985 -18.126 -21.643  0.00  0.00    -0.303 N 
ATOM     26  C   UNL     1      36.380 -18.584 -21.617  0.00  0.00    +0.123 C 
ATOM     27  C   UNL     1      33.976 -19.191 -21.590  0.00  0.00    +0.123 C 
ATOM     28  C   UNL     1      36.575 -19.576 -20.475  0.00  0.00    +0.164 C 
ATOM     29  C   UNL     1      34.299 -20.150 -20.450  0.00  0.00    +0.164 C 
ENDBRANCH  18  25
ENDBRANCH  17  21
ENDBRANCH   5  17
TORSDOF 3
ENDMDL
MODEL 9
REMARK VINA RESULT:      -9.2      2.141      3.486
REMARK  Name = 3534
REMARK  3 active torsions:
REMARK  status: ('A' for Active; 'I' for Inactive)
REMARK    1  A    between atoms: C_5  and  S_17
REMARK    2  A    between atoms: S_17  and  C_21
REMARK    3  A    between atoms: C_18  and  N_25
REMARK                            x       y       z     vdW  Elec       q    Type
REMARK                         _______ _______ _______ _____ _____    ______ ____
ROOT
ATOM      1  N   UNL     1      32.040 -10.952 -22.061  0.00  0.00    -0.332 NA
ATOM      2  N   UNL     1      33.287 -10.684 -24.105  0.00  0.00    -0.317 NA
ATOM      3  N   UNL     1      34.347 -12.446 -25.139  0.00  0.00    -0.335 N 
ATOM      4  N   UNL     1      32.230  -8.854 -23.095  0.00  0.00    -0.283 N 
ATOM      5  C   UNL     1      33.400 -14.230 -23.033  0.00  0.00    +0.022 C 
ATOM      6  C   UNL     1      33.106 -12.855 -23.057  0.00  0.00    +0.149 C 
ATOM      7  C   UNL     1      32.327 -12.265 -22.048  0.00  0.00    +0.135 C 
ATOM      8  C   UNL     1      32.918 -15.027 -22.000  0.00  0.00    +0.003 C 
ATOM      9  C   UNL     1      33.557 -12.003 -24.061  0.00  0.00    +0.178 C 
ATOM     10  C   UNL     1      31.858 -13.087 -21.026  0.00  0.00    +0.029 C 
ATOM     11  C   UNL     1      32.146 -14.454 -20.995  0.00  0.00    +0.003 C 
ATOM     12  C   UNL     1      32.536 -10.233 -23.088  0.00  0.00    +0.197 C 
ATOM     13  H   UNL     1      34.644 -11.808 -25.827  0.00  0.00    +0.144 HD
ATOM     14  H   UNL     1      34.603 -13.394 -25.205  0.00  0.00    +0.144 HD
ATOM     15  H   UNL     1      31.682  -8.468 -22.375  0.00  0.00    +0.156 HD
ATOM     16  H   UNL     1      32.564  -8.280 -23.821  0.00  0.00    +0.156 HD
ENDROOT
BRANCH   5  17
ATOM     17  S   UNL     1      34.372 -15.180 -24.217  0.00  0.00    -0.090 S 
BRANCH  17  21
ATOM     18  C   UNL     1      35.016 -18.860 -21.581  0.00  0.00    +0.048 C 
ATOM     19  C   UNL     1      34.592 -19.012 -22.901  0.00  0.00    +0.015 C 
ATOM     20  C   UNL     1      35.244 -17.584 -21.065  0.00  0.00    +0.015 C 
ATOM     21  C   UNL     1      34.624 -16.615 -23.190  0.00  0.00    +0.029 C 
ATOM     22  C   UNL     1      34.396 -17.890 -23.705  0.00  0.00    +0.008 C 
ATOM     23  C   UNL     1      35.048 -16.461 -21.869  0.00  0.00    +0.008 C 
BRANCH  18  25
ATOM     24  O   UNL     1      35.545 -22.086 -18.938  0.00  0.00    -0.350 OA
ATOM     25  N   UNL     1      35.213 -19.985 -20.775  0.00  0.00    -0.303 N 
ATOM     26  C   UNL     1      34.053 -20.540 -20.064  0.00  0.00    +0.123 C 
ATOM     27  C   UNL     1      36.508 -20.199 -20.119  0.00  0.00    +0.123 C 
ATOM     28  C   UNL     1      34.330 -21.990 -19.680  0.00  0.00    +0.164 C 
ATOM     29  C   UNL     1      36.654 -21.666 -19.731  0.00  0.00    +0.164 C 
ENDBRANCH  18  25
ENDBRANCH  17  21
ENDBRANCH   5  17
TORSDOF 3
ENDMDL
