MODEL 1
REMARK VINA RESULT:     -11.8      0.000      0.000
REMARK  Name = 12087505
REMARK  3 active torsions:
REMARK  status: ('A' for Active; 'I' for Inactive)
REMARK    1  A    between atoms: C_1  and  S_18
REMARK    2  A    between atoms: C_4  and  N_9
REMARK    3  A    between atoms: S_18  and  N_21
REMARK                            x       y       z     vdW  Elec       q    Type
REMARK                         _______ _______ _______ _____ _____    ______ ____
ROOT
ATOM      1  C   UNL     1      34.765 -19.530 -21.615  0.00  0.00    +0.123 C 
ATOM      2  C   UNL     1      35.538 -20.123 -20.631  0.00  0.00    +0.035 C 
ATOM      3  C   UNL     1      33.386 -19.652 -21.621  0.00  0.00    +0.020 C 
ATOM      4  C   UNL     1      34.914 -20.859 -19.623  0.00  0.00    +0.053 C 
ATOM      5  C   UNL     1      32.761 -20.388 -20.613  0.00  0.00    +0.003 C 
ATOM      6  C   UNL     1      33.526 -20.990 -19.614  0.00  0.00    +0.015 C 
ENDROOT
BRANCH   4   9
ATOM      7  S   UNL     1      37.853 -23.811 -14.956  0.00  0.00    -0.051 S 
ATOM      8  O   UNL     1      34.103 -22.729 -17.445  0.00  0.00    -0.252 OA
ATOM      9  N   UNL     1      35.678 -21.461 -18.624  0.00  0.00    -0.268 N 
ATOM     10  N   UNL     1      36.359 -22.713 -16.809  0.00  0.00    -0.248 N 
ATOM     11  N   UNL     1      35.308 -24.184 -15.216  0.00  0.00    -0.222 NA
ATOM     12  C   UNL     1      35.259 -22.348 -17.601  0.00  0.00    +0.310 C 
ATOM     13  C   UNL     1      36.342 -23.570 -15.706  0.00  0.00    +0.167 C 
ATOM     14  C   UNL     1      37.077 -24.853 -13.837  0.00  0.00    +0.059 C 
ATOM     15  C   UNL     1      35.731 -24.928 -14.132  0.00  0.00    +0.108 C 
ATOM     16  H   UNL     1      36.638 -21.239 -18.629  0.00  0.00    +0.156 HD
ATOM     17  H   UNL     1      37.230 -22.326 -17.055  0.00  0.00    +0.158 HD
ENDBRANCH   4   9
BRANCH   1  18
ATOM     18  S   UNL     1      35.556 -18.600 -22.892  0.00  0.00    +0.063 S 
ATOM     19  O   UNL     1      36.908 -18.318 -22.462  0.00  0.00    -0.153 OA
ATOM     20  O   UNL     1      35.295 -19.263 -24.152  0.00  0.00    -0.153 OA
BRANCH  18  21
ATOM     21  N   UNL     1      34.635 -17.157 -22.822  0.00  0.00    -0.152 NA
ATOM     22  N   UNL     1      33.658 -14.497 -22.732  0.00  0.00    -0.290 N 
ATOM     23  C   UNL     1      34.825 -16.337 -21.592  0.00  0.00    +0.117 C 
ATOM     24  C   UNL     1      34.683 -16.307 -24.044  0.00  0.00    +0.117 C 
ATOM     25  C   UNL     1      33.715 -15.294 -21.500  0.00  0.00    +0.111 C 
ATOM     26  C   UNL     1      33.574 -15.260 -23.983  0.00  0.00    +0.111 C 
ATOM     27  N   UNL     1      32.093 -12.973 -21.745  0.00  0.00    -0.229 NA
ATOM     28  C   UNL     1      33.081 -13.223 -22.658  0.00  0.00    +0.132 C 
ATOM     29  C   UNL     1      33.539 -12.231 -23.534  0.00  0.00    +0.034 C 
ATOM     30  C   UNL     1      32.975 -10.961 -23.473  0.00  0.00    +0.004 C 
ATOM     31  C   UNL     1      31.570 -11.727 -21.714  0.00  0.00    +0.100 C 
ATOM     32  C   UNL     1      31.973 -10.696 -22.548  0.00  0.00    +0.021 C 
ENDBRANCH  18  21
ENDBRANCH   1  18
TORSDOF 3
ENDMDL
MODEL 2
REMARK VINA RESULT:     -11.8      2.575     10.926
REMARK  Name = 12087505
REMARK  3 active torsions:
REMARK  status: ('A' for Active; 'I' for Inactive)
REMARK    1  A    between atoms: C_1  and  S_18
REMARK    2  A    between atoms: C_4  and  N_9
REMARK    3  A    between atoms: S_18  and  N_21
REMARK                            x       y       z     vdW  Elec       q    Type
REMARK                         _______ _______ _______ _____ _____    ______ ____
ROOT
ATOM      1  C   UNL     1      35.009 -21.391 -19.734  0.00  0.00    +0.123 C 
ATOM      2  C   UNL     1      34.508 -20.213 -20.263  0.00  0.00    +0.035 C 
ATOM      3  C   UNL     1      36.369 -21.644 -19.697  0.00  0.00    +0.020 C 
ATOM      4  C   UNL     1      35.394 -19.261 -20.769  0.00  0.00    +0.053 C 
ATOM      5  C   UNL     1      37.256 -20.693 -20.202  0.00  0.00    +0.003 C 
ATOM      6  C   UNL     1      36.767 -19.501 -20.737  0.00  0.00    +0.015 C 
ENDROOT
BRANCH   4   9
ATOM      7  S   UNL     1      33.258 -14.159 -23.692  0.00  0.00    -0.051 S 
ATOM      8  O   UNL     1      34.886 -18.491 -23.606  0.00  0.00    -0.252 OA
ATOM      9  N   UNL     1      34.906 -18.069 -21.304  0.00  0.00    -0.268 N 
ATOM     10  N   UNL     1      34.179 -16.426 -22.753  0.00  0.00    -0.248 N 
ATOM     11  N   UNL     1      33.911 -16.202 -25.136  0.00  0.00    -0.222 NA
ATOM     12  C   UNL     1      34.676 -17.736 -22.662  0.00  0.00    +0.310 C 
ATOM     13  C   UNL     1      33.835 -15.747 -23.923  0.00  0.00    +0.167 C 
ATOM     14  C   UNL     1      33.078 -14.030 -25.392  0.00  0.00    +0.059 C 
ATOM     15  C   UNL     1      33.473 -15.209 -25.991  0.00  0.00    +0.108 C 
ATOM     16  H   UNL     1      34.693 -17.364 -20.650  0.00  0.00    +0.156 HD
ATOM     17  H   UNL     1      34.062 -15.938 -21.906  0.00  0.00    +0.158 HD
ENDBRANCH   4   9
BRANCH   1  18
ATOM     18  S   UNL     1      33.888 -22.597 -19.096  0.00  0.00    +0.063 S 
ATOM     19  O   UNL     1      32.665 -21.916 -18.730  0.00  0.00    -0.153 OA
ATOM     20  O   UNL     1      33.873 -23.719 -20.009  0.00  0.00    -0.153 OA
BRANCH  18  21
ATOM     21  N   UNL     1      34.721 -23.052 -17.669  0.00  0.00    -0.152 NA
ATOM     22  N   UNL     1      35.784 -23.346 -15.057  0.00  0.00    -0.290 N 
ATOM     23  C   UNL     1      35.679 -22.040 -17.139  0.00  0.00    +0.117 C 
ATOM     24  C   UNL     1      33.870 -23.605 -16.579  0.00  0.00    +0.117 C 
ATOM     25  C   UNL     1      36.586 -22.695 -16.101  0.00  0.00    +0.111 C 
ATOM     26  C   UNL     1      34.752 -24.276 -15.531  0.00  0.00    +0.111 C 
ATOM     27  N   UNL     1      37.735 -23.750 -13.726  0.00  0.00    -0.229 NA
ATOM     28  C   UNL     1      36.384 -23.554 -13.809  0.00  0.00    +0.132 C 
ATOM     29  C   UNL     1      35.570 -23.555 -12.669  0.00  0.00    +0.034 C 
ATOM     30  C   UNL     1      36.151 -23.761 -11.423  0.00  0.00    +0.004 C 
ATOM     31  C   UNL     1      38.265 -23.945 -12.497  0.00  0.00    +0.100 C 
ATOM     32  C   UNL     1      37.523 -23.960 -11.326  0.00  0.00    +0.021 C 
ENDBRANCH  18  21
ENDBRANCH   1  18
TORSDOF 3
ENDMDL
MODEL 3
REMARK VINA RESULT:     -10.8      4.789      8.099
REMARK  Name = 12087505
REMARK  3 active torsions:
REMARK  status: ('A' for Active; 'I' for Inactive)
REMARK    1  A    between atoms: C_1  and  S_18
REMARK    2  A    between atoms: C_4  and  N_9
REMARK    3  A    between atoms: S_18  and  N_21
REMARK                            x       y       z     vdW  Elec       q    Type
REMARK                         _______ _______ _______ _____ _____    ______ ____
ROOT
ATOM      1  C   UNL     1      32.277 -12.083 -21.972  0.00  0.00    +0.123 C 
ATOM      2  C   UNL     1      32.333 -13.412 -21.585  0.00  0.00    +0.035 C 
ATOM      3  C   UNL     1      32.834 -11.656 -23.166  0.00  0.00    +0.020 C 
ATOM      4  C   UNL     1      32.963 -14.339 -22.415  0.00  0.00    +0.053 C 
ATOM      5  C   UNL     1      33.464 -12.583 -23.997  0.00  0.00    +0.003 C 
ATOM      6  C   UNL     1      33.527 -13.925 -23.621  0.00  0.00    +0.015 C 
ENDROOT
BRANCH   4   9
ATOM      7  S   UNL     1      33.817 -20.283 -20.659  0.00  0.00    -0.051 S 
ATOM      8  O   UNL     1      35.300 -15.995 -21.577  0.00  0.00    -0.252 OA
ATOM      9  N   UNL     1      33.027 -15.682 -22.039  0.00  0.00    -0.268 N 
ATOM     10  N   UNL     1      33.769 -17.756 -21.353  0.00  0.00    -0.248 N 
ATOM     11  N   UNL     1      35.884 -18.731 -20.737  0.00  0.00    -0.222 NA
ATOM     12  C   UNL     1      34.158 -16.439 -21.645  0.00  0.00    +0.310 C 
ATOM     13  C   UNL     1      34.602 -18.795 -20.933  0.00  0.00    +0.167 C 
ATOM     14  C   UNL     1      35.337 -20.949 -20.225  0.00  0.00    +0.059 C 
ATOM     15  C   UNL     1      36.313 -19.978 -20.327  0.00  0.00    +0.108 C 
ATOM     16  H   UNL     1      32.170 -16.168 -22.051  0.00  0.00    +0.156 HD
ATOM     17  H   UNL     1      32.813 -17.968 -21.454  0.00  0.00    +0.158 HD
ENDBRANCH   4   9
BRANCH   1  18
ATOM     18  S   UNL     1      31.482 -10.909 -20.920  0.00  0.00    +0.063 S 
ATOM     19  O   UNL     1      30.063 -11.190 -20.934  0.00  0.00    -0.153 OA
ATOM     20  O   UNL     1      32.221 -10.853 -19.677  0.00  0.00    -0.153 OA
BRANCH  18  21
ATOM     21  N   UNL     1      31.775  -9.472 -21.806  0.00  0.00    -0.152 NA
ATOM     22  N   UNL     1      31.728  -6.914 -23.030  0.00  0.00    -0.290 N 
ATOM     23  C   UNL     1      30.814  -9.194 -22.910  0.00  0.00    +0.117 C 
ATOM     24  C   UNL     1      32.013  -8.251 -20.985  0.00  0.00    +0.117 C 
ATOM     25  C   UNL     1      31.381  -8.105 -23.816  0.00  0.00    +0.111 C 
ATOM     26  C   UNL     1      32.592  -7.147 -21.866  0.00  0.00    +0.111 C 
ATOM     27  N   UNL     1      32.129  -5.643 -25.021  0.00  0.00    -0.229 NA
ATOM     28  C   UNL     1      31.783  -5.685 -23.698  0.00  0.00    +0.132 C 
ATOM     29  C   UNL     1      31.479  -4.521 -22.981  0.00  0.00    +0.034 C 
ATOM     30  C   UNL     1      31.530  -3.293 -23.631  0.00  0.00    +0.004 C 
ATOM     31  C   UNL     1      32.167  -4.431 -25.620  0.00  0.00    +0.100 C 
ATOM     32  C   UNL     1      31.879  -3.238 -24.975  0.00  0.00    +0.021 C 
ENDBRANCH  18  21
ENDBRANCH   1  18
TORSDOF 3
ENDMDL
MODEL 4
REMARK VINA RESULT:     -10.3      1.140      1.247
REMARK  Name = 12087505
REMARK  3 active torsions:
REMARK  status: ('A' for Active; 'I' for Inactive)
REMARK    1  A    between atoms: C_1  and  S_18
REMARK    2  A    between atoms: C_4  and  N_9
REMARK    3  A    between atoms: S_18  and  N_21
REMARK                            x       y       z     vdW  Elec       q    Type
REMARK                         _______ _______ _______ _____ _____    ______ ____
ROOT
ATOM      1  C   UNL     1      34.592 -19.943 -20.768  0.00  0.00    +0.123 C 
ATOM      2  C   UNL     1      35.078 -20.884 -19.876  0.00  0.00    +0.035 C 
ATOM      3  C   UNL     1      33.235 -19.689 -20.881  0.00  0.00    +0.020 C 
ATOM      4  C   UNL     1      34.181 -21.592 -19.074  0.00  0.00    +0.053 C 
ATOM      5  C   UNL     1      32.338 -20.395 -20.079  0.00  0.00    +0.003 C 
ATOM      6  C   UNL     1      32.813 -21.346 -19.175  0.00  0.00    +0.015 C 
ENDROOT
BRANCH   4   9
ATOM      7  S   UNL     1      36.644 -25.442 -14.803  0.00  0.00    -0.051 S 
ATOM      8  O   UNL     1      36.205 -21.337 -16.896  0.00  0.00    -0.252 OA
ATOM      9  N   UNL     1      34.655 -22.543 -18.170  0.00  0.00    -0.268 N 
ATOM     10  N   UNL     1      35.798 -23.606 -16.471  0.00  0.00    -0.248 N 
ATOM     11  N   UNL     1      37.461 -22.989 -14.840  0.00  0.00    -0.222 NA
ATOM     12  C   UNL     1      35.620 -22.388 -17.144  0.00  0.00    +0.310 C 
ATOM     13  C   UNL     1      36.665 -23.847 -15.402  0.00  0.00    +0.167 C 
ATOM     14  C   UNL     1      37.828 -24.973 -13.654  0.00  0.00    +0.059 C 
ATOM     15  C   UNL     1      38.136 -23.639 -13.826  0.00  0.00    +0.108 C 
ATOM     16  H   UNL     1      34.267 -23.444 -18.258  0.00  0.00    +0.156 HD
ATOM     17  H   UNL     1      35.257 -24.367 -16.783  0.00  0.00    +0.158 HD
ENDBRANCH   4   9
BRANCH   1  18
ATOM     18  S   UNL     1      35.726 -19.049 -21.785  0.00  0.00    +0.063 S 
ATOM     19  O   UNL     1      36.906 -18.771 -20.995  0.00  0.00    -0.153 OA
ATOM     20  O   UNL     1      35.822 -19.736 -23.055  0.00  0.00    -0.153 OA
BRANCH  18  21
ATOM     21  N   UNL     1      34.846 -17.596 -22.004  0.00  0.00    -0.152 NA
ATOM     22  N   UNL     1      33.945 -14.937 -22.405  0.00  0.00    -0.290 N 
ATOM     23  C   UNL     1      34.992 -16.589 -20.914  0.00  0.00    +0.117 C 
ATOM     24  C   UNL     1      34.987 -16.957 -23.343  0.00  0.00    +0.117 C 
ATOM     25  C   UNL     1      33.910 -15.523 -21.058  0.00  0.00    +0.111 C 
ATOM     26  C   UNL     1      33.908 -15.892 -23.518  0.00  0.00    +0.111 C 
ATOM     27  N   UNL     1      32.374 -13.241 -21.771  0.00  0.00    -0.229 NA
ATOM     28  C   UNL     1      33.403 -13.657 -22.572  0.00  0.00    +0.132 C 
ATOM     29  C   UNL     1      33.938 -12.831 -23.569  0.00  0.00    +0.034 C 
ATOM     30  C   UNL     1      33.410 -11.557 -23.747  0.00  0.00    +0.004 C 
ATOM     31  C   UNL     1      31.888 -11.996 -21.974  0.00  0.00    +0.100 C 
ATOM     32  C   UNL     1      32.366 -11.123 -22.939  0.00  0.00    +0.021 C 
ENDBRANCH  18  21
ENDBRANCH   1  18
TORSDOF 3
ENDMDL
MODEL 5
REMARK VINA RESULT:     -10.1      5.591     10.012
REMARK  Name = 12087505
REMARK  3 active torsions:
REMARK  status: ('A' for Active; 'I' for Inactive)
REMARK    1  A    between atoms: C_1  and  S_18
REMARK    2  A    between atoms: C_4  and  N_9
REMARK    3  A    between atoms: S_18  and  N_21
REMARK                            x       y       z     vdW  Elec       q    Type
REMARK                         _______ _______ _______ _____ _____    ______ ____
ROOT
ATOM      1  C   UNL     1      32.811 -10.309 -22.978  0.00  0.00    +0.123 C 
ATOM      2  C   UNL     1      32.878 -11.663 -23.262  0.00  0.00    +0.035 C 
ATOM      3  C   UNL     1      33.627  -9.395 -23.623  0.00  0.00    +0.020 C 
ATOM      4  C   UNL     1      33.786 -12.115 -24.220  0.00  0.00    +0.053 C 
ATOM      5  C   UNL     1      34.535  -9.846 -24.582  0.00  0.00    +0.003 C 
ATOM      6  C   UNL     1      34.613 -11.207 -24.880  0.00  0.00    +0.015 C 
ENDROOT
BRANCH   4   9
ATOM      7  S   UNL     1      34.325 -18.297 -25.018  0.00  0.00    -0.051 S 
ATOM      8  O   UNL     1      34.621 -14.415 -22.513  0.00  0.00    -0.252 OA
ATOM      9  N   UNL     1      33.865 -13.476 -24.519  0.00  0.00    -0.268 N 
ATOM     10  N   UNL     1      34.199 -15.755 -24.389  0.00  0.00    -0.248 N 
ATOM     11  N   UNL     1      34.932 -17.314 -22.705  0.00  0.00    -0.222 NA
ATOM     12  C   UNL     1      34.268 -14.545 -23.681  0.00  0.00    +0.310 C 
ATOM     13  C   UNL     1      34.516 -17.024 -23.900  0.00  0.00    +0.167 C 
ATOM     14  C   UNL     1      34.850 -19.382 -23.798  0.00  0.00    +0.059 C 
ATOM     15  C   UNL     1      35.126 -18.680 -22.643  0.00  0.00    +0.108 C 
ATOM     16  H   UNL     1      33.608 -13.726 -25.436  0.00  0.00    +0.156 HD
ATOM     17  H   UNL     1      33.896 -15.704 -25.325  0.00  0.00    +0.158 HD
ENDBRANCH   4   9
BRANCH   1  18
ATOM     18  S   UNL     1      31.664  -9.737 -21.763  0.00  0.00    +0.063 S 
ATOM     19  O   UNL     1      30.463 -10.536 -21.877  0.00  0.00    -0.153 OA
ATOM     20  O   UNL     1      32.368  -9.623 -20.504  0.00  0.00    -0.153 OA
BRANCH  18  21
ATOM     21  N   UNL     1      31.349  -8.166 -22.369  0.00  0.00    -0.152 NA
ATOM     22  N   UNL     1      31.403  -5.601 -23.578  0.00  0.00    -0.290 N 
ATOM     23  C   UNL     1      32.149  -7.070 -21.752  0.00  0.00    +0.117 C 
ATOM     24  C   UNL     1      31.333  -8.044 -23.854  0.00  0.00    +0.117 C 
ATOM     25  C   UNL     1      31.534  -5.723 -22.120  0.00  0.00    +0.111 C 
ATOM     26  C   UNL     1      30.712  -6.707 -24.251  0.00  0.00    +0.111 C 
ATOM     27  N   UNL     1      30.800  -3.289 -23.390  0.00  0.00    -0.229 NA
ATOM     28  C   UNL     1      31.339  -4.312 -24.121  0.00  0.00    +0.132 C 
ATOM     29  C   UNL     1      31.837  -4.108 -25.414  0.00  0.00    +0.034 C 
ATOM     30  C   UNL     1      31.781  -2.833 -25.967  0.00  0.00    +0.004 C 
ATOM     31  C   UNL     1      30.763  -2.064 -23.960  0.00  0.00    +0.100 C 
ATOM     32  C   UNL     1      31.236  -1.786 -25.233  0.00  0.00    +0.021 C 
ENDBRANCH  18  21
ENDBRANCH   1  18
TORSDOF 3
ENDMDL
MODEL 6
REMARK VINA RESULT:      -9.9      4.054     11.616
REMARK  Name = 12087505
REMARK  3 active torsions:
REMARK  status: ('A' for Active; 'I' for Inactive)
REMARK    1  A    between atoms: C_1  and  S_18
REMARK    2  A    between atoms: C_4  and  N_9
REMARK    3  A    between atoms: S_18  and  N_21
REMARK                            x       y       z     vdW  Elec       q    Type
REMARK                         _______ _______ _______ _____ _____    ______ ____
ROOT
ATOM      1  C   UNL     1      33.440 -14.491 -23.256  0.00  0.00    +0.123 C 
ATOM      2  C   UNL     1      33.490 -13.189 -23.724  0.00  0.00    +0.035 C 
ATOM      3  C   UNL     1      32.738 -14.819 -22.108  0.00  0.00    +0.020 C 
ATOM      4  C   UNL     1      32.819 -12.186 -23.025  0.00  0.00    +0.053 C 
ATOM      5  C   UNL     1      32.066 -13.816 -21.409  0.00  0.00    +0.003 C 
ATOM      6  C   UNL     1      32.107 -12.499 -21.868  0.00  0.00    +0.015 C 
ENDROOT
BRANCH   4   9
ATOM      7  S   UNL     1      32.647  -6.146 -24.646  0.00  0.00    -0.051 S 
ATOM      8  O   UNL     1      31.489  -9.735 -21.962  0.00  0.00    -0.252 OA
ATOM      9  N   UNL     1      32.860 -10.869 -23.484  0.00  0.00    -0.268 N 
ATOM     10  N   UNL     1      32.528  -8.598 -23.729  0.00  0.00    -0.248 N 
ATOM     11  N   UNL     1      31.293  -6.885 -22.571  0.00  0.00    -0.222 NA
ATOM     12  C   UNL     1      32.213  -9.725 -22.953  0.00  0.00    +0.310 C 
ATOM     13  C   UNL     1      32.079  -7.292 -23.520  0.00  0.00    +0.167 C 
ATOM     14  C   UNL     1      31.758  -4.948 -23.800  0.00  0.00    +0.059 C 
ATOM     15  C   UNL     1      31.104  -5.526 -22.730  0.00  0.00    +0.108 C 
ATOM     16  H   UNL     1      33.411 -10.713 -24.286  0.00  0.00    +0.156 HD
ATOM     17  H   UNL     1      33.124  -8.744 -24.499  0.00  0.00    +0.158 HD
ENDBRANCH   4   9
BRANCH   1  18
ATOM     18  S   UNL     1      34.291 -15.761 -24.140  0.00  0.00    +0.063 S 
ATOM     19  O   UNL     1      33.435 -16.199 -25.221  0.00  0.00    -0.153 OA
ATOM     20  O   UNL     1      35.639 -15.300 -24.394  0.00  0.00    -0.153 OA
BRANCH  18  21
ATOM     21  N   UNL     1      34.338 -16.980 -22.937  0.00  0.00    -0.152 NA
ATOM     22  N   UNL     1      34.931 -19.164 -21.227  0.00  0.00    -0.290 N 
ATOM     23  C   UNL     1      34.183 -18.376 -23.434  0.00  0.00    +0.117 C 
ATOM     24  C   UNL     1      35.465 -16.880 -21.968  0.00  0.00    +0.117 C 
ATOM     25  C   UNL     1      33.895 -19.306 -22.259  0.00  0.00    +0.111 C 
ATOM     26  C   UNL     1      35.197 -17.793 -20.774  0.00  0.00    +0.111 C 
ATOM     27  N   UNL     1      34.074 -21.050 -20.022  0.00  0.00    -0.229 NA
ATOM     28  C   UNL     1      35.124 -20.234 -20.346  0.00  0.00    +0.132 C 
ATOM     29  C   UNL     1      36.404 -20.439 -19.815  0.00  0.00    +0.034 C 
ATOM     30  C   UNL     1      36.611 -21.498 -18.938  0.00  0.00    +0.004 C 
ATOM     31  C   UNL     1      34.314 -22.069 -19.168  0.00  0.00    +0.100 C 
ATOM     32  C   UNL     1      35.552 -22.333 -18.603  0.00  0.00    +0.021 C 
ENDBRANCH  18  21
ENDBRANCH   1  18
TORSDOF 3
ENDMDL
MODEL 7
REMARK VINA RESULT:      -9.8      4.733     10.326
REMARK  Name = 12087505
REMARK  3 active torsions:
REMARK  status: ('A' for Active; 'I' for Inactive)
REMARK    1  A    between atoms: C_1  and  S_18
REMARK    2  A    between atoms: C_4  and  N_9
REMARK    3  A    between atoms: S_18  and  N_21
REMARK                            x       y       z     vdW  Elec       q    Type
REMARK                         _______ _______ _______ _____ _____    ______ ____
ROOT
ATOM      1  C   UNL     1      36.980 -24.087 -13.878  0.00  0.00    +0.123 C 
ATOM      2  C   UNL     1      36.807 -23.200 -14.928  0.00  0.00    +0.035 C 
ATOM      3  C   UNL     1      38.095 -24.904 -13.800  0.00  0.00    +0.020 C 
ATOM      4  C   UNL     1      37.779 -23.127 -15.927  0.00  0.00    +0.053 C 
ATOM      5  C   UNL     1      39.067 -24.831 -14.798  0.00  0.00    +0.003 C 
ATOM      6  C   UNL     1      38.908 -23.942 -15.861  0.00  0.00    +0.015 C 
ENDROOT
BRANCH   4   9
ATOM      7  S   UNL     1      36.526 -19.334 -20.741  0.00  0.00    -0.051 S 
ATOM      8  O   UNL     1      35.403 -22.591 -17.650  0.00  0.00    -0.252 OA
ATOM      9  N   UNL     1      37.620 -22.238 -16.990  0.00  0.00    -0.268 N 
ATOM     10  N   UNL     1      36.754 -21.025 -18.751  0.00  0.00    -0.248 N 
ATOM     11  N   UNL     1      34.642 -20.892 -19.901  0.00  0.00    -0.222 NA
ATOM     12  C   UNL     1      36.474 -22.008 -17.790  0.00  0.00    +0.310 C 
ATOM     13  C   UNL     1      35.875 -20.531 -19.718  0.00  0.00    +0.167 C 
ATOM     14  C   UNL     1      35.011 -19.261 -21.540  0.00  0.00    +0.059 C 
ATOM     15  C   UNL     1      34.138 -20.157 -20.957  0.00  0.00    +0.108 C 
ATOM     16  H   UNL     1      38.413 -21.699 -17.216  0.00  0.00    +0.156 HD
ATOM     17  H   UNL     1      37.663 -20.645 -18.744  0.00  0.00    +0.158 HD
ENDBRANCH   4   9
BRANCH   1  18
ATOM     18  S   UNL     1      35.749 -24.180 -12.615  0.00  0.00    +0.063 S 
ATOM     19  O   UNL     1      35.915 -25.443 -11.928  0.00  0.00    -0.153 OA
ATOM     20  O   UNL     1      35.759 -22.928 -11.889  0.00  0.00    -0.153 OA
BRANCH  18  21
ATOM     21  N   UNL     1      34.337 -24.252 -13.581  0.00  0.00    -0.152 NA
ATOM     22  N   UNL     1      31.813 -23.908 -14.828  0.00  0.00    -0.290 N 
ATOM     23  C   UNL     1      33.093 -24.660 -12.868  0.00  0.00    +0.117 C 
ATOM     24  C   UNL     1      34.091 -23.064 -14.445  0.00  0.00    +0.117 C 
ATOM     25  C   UNL     1      32.016 -25.018 -13.887  0.00  0.00    +0.111 C 
ATOM     26  C   UNL     1      33.023 -23.397 -15.484  0.00  0.00    +0.111 C 
ATOM     27  N   UNL     1      29.883 -24.977 -15.765  0.00  0.00    -0.229 NA
ATOM     28  C   UNL     1      30.582 -23.833 -15.491  0.00  0.00    +0.132 C 
ATOM     29  C   UNL     1      30.098 -22.571 -15.859  0.00  0.00    +0.034 C 
ATOM     30  C   UNL     1      28.877 -22.480 -16.519  0.00  0.00    +0.004 C 
ATOM     31  C   UNL     1      28.700 -24.849 -16.406  0.00  0.00    +0.100 C 
ATOM     32  C   UNL     1      28.158 -23.635 -16.801  0.00  0.00    +0.021 C 
ENDBRANCH  18  21
ENDBRANCH   1  18
TORSDOF 3
ENDMDL
MODEL 8
REMARK VINA RESULT:      -9.6      2.306      2.891
REMARK  Name = 12087505
REMARK  3 active torsions:
REMARK  status: ('A' for Active; 'I' for Inactive)
REMARK    1  A    between atoms: C_1  and  S_18
REMARK    2  A    between atoms: C_4  and  N_9
REMARK    3  A    between atoms: S_18  and  N_21
REMARK                            x       y       z     vdW  Elec       q    Type
REMARK                         _______ _______ _______ _____ _____    ______ ____
ROOT
ATOM      1  C   UNL     1      34.976 -18.385 -23.454  0.00  0.00    +0.123 C 
ATOM      2  C   UNL     1      34.175 -19.088 -22.569  0.00  0.00    +0.035 C 
ATOM      3  C   UNL     1      36.305 -18.122 -23.169  0.00  0.00    +0.020 C 
ATOM      4  C   UNL     1      34.718 -19.541 -21.367  0.00  0.00    +0.053 C 
ATOM      5  C   UNL     1      36.850 -18.575 -21.967  0.00  0.00    +0.003 C 
ATOM      6  C   UNL     1      36.055 -19.285 -21.066  0.00  0.00    +0.015 C 
ENDROOT
BRANCH   4   9
ATOM      7  S   UNL     1      31.646 -22.954 -17.118  0.00  0.00    -0.051 S 
ATOM      8  O   UNL     1      35.491 -21.472 -19.228  0.00  0.00    -0.252 OA
ATOM      9  N   UNL     1      33.924 -20.251 -20.466  0.00  0.00    -0.268 N 
ATOM     10  N   UNL     1      33.197 -21.650 -18.781  0.00  0.00    -0.248 N 
ATOM     11  N   UNL     1      34.225 -23.133 -17.185  0.00  0.00    -0.222 NA
ATOM     12  C   UNL     1      34.325 -21.164 -19.459  0.00  0.00    +0.310 C 
ATOM     13  C   UNL     1      33.190 -22.566 -17.728  0.00  0.00    +0.167 C 
ATOM     14  C   UNL     1      32.407 -24.002 -15.994  0.00  0.00    +0.059 C 
ATOM     15  C   UNL     1      33.774 -23.966 -16.180  0.00  0.00    +0.108 C 
ATOM     16  H   UNL     1      32.954 -20.098 -20.541  0.00  0.00    +0.156 HD
ATOM     17  H   UNL     1      32.322 -21.311 -19.079  0.00  0.00    +0.158 HD
ENDBRANCH   4   9
BRANCH   1  18
ATOM     18  S   UNL     1      34.288 -17.810 -24.975  0.00  0.00    +0.063 S 
ATOM     19  O   UNL     1      35.381 -17.562 -25.890  0.00  0.00    -0.153 OA
ATOM     20  O   UNL     1      33.199 -18.694 -25.333  0.00  0.00    -0.153 OA
BRANCH  18  21
ATOM     21  N   UNL     1      33.641 -16.310 -24.459  0.00  0.00    -0.152 NA
ATOM     22  N   UNL     1      33.149 -13.639 -23.644  0.00  0.00    -0.290 N 
ATOM     23  C   UNL     1      34.087 -15.850 -23.114  0.00  0.00    +0.117 C 
ATOM     24  C   UNL     1      33.715 -15.204 -25.454  0.00  0.00    +0.117 C 
ATOM     25  C   UNL     1      33.188 -14.712 -22.641  0.00  0.00    +0.111 C 
ATOM     26  C   UNL     1      32.814 -14.055 -25.011  0.00  0.00    +0.111 C 
ATOM     27  N   UNL     1      31.974 -12.192 -22.138  0.00  0.00    -0.229 NA
ATOM     28  C   UNL     1      32.810 -12.352 -23.209  0.00  0.00    +0.132 C 
ATOM     29  C   UNL     1      33.345 -11.254 -23.894  0.00  0.00    +0.034 C 
ATOM     30  C   UNL     1      33.017  -9.969 -23.474  0.00  0.00    +0.004 C 
ATOM     31  C   UNL     1      31.679 -10.929 -21.758  0.00  0.00    +0.100 C 
ATOM     32  C   UNL     1      32.169  -9.795 -22.386  0.00  0.00    +0.021 C 
ENDBRANCH  18  21
ENDBRANCH   1  18
TORSDOF 3
ENDMDL
MODEL 9
REMARK VINA RESULT:      -9.1      4.933     12.260
REMARK  Name = 12087505
REMARK  3 active torsions:
REMARK  status: ('A' for Active; 'I' for Inactive)
REMARK    1  A    between atoms: C_1  and  S_18
REMARK    2  A    between atoms: C_4  and  N_9
REMARK    3  A    between atoms: S_18  and  N_21
REMARK                            x       y       z     vdW  Elec       q    Type
REMARK                         _______ _______ _______ _____ _____    ______ ____
ROOT
ATOM      1  C   UNL     1      32.583 -12.679 -22.581  0.00  0.00    +0.123 C 
ATOM      2  C   UNL     1      32.389 -11.319 -22.758  0.00  0.00    +0.035 C 
ATOM      3  C   UNL     1      32.220 -13.313 -21.405  0.00  0.00    +0.020 C 
ATOM      4  C   UNL     1      31.816 -10.572 -21.728  0.00  0.00    +0.053 C 
ATOM      5  C   UNL     1      31.646 -12.566 -20.375  0.00  0.00    +0.003 C 
ATOM      6  C   UNL     1      31.444 -11.196 -20.538  0.00  0.00    +0.015 C 
ENDROOT
BRANCH   4   9
ATOM      7  S   UNL     1      31.131  -4.482 -22.986  0.00  0.00    -0.051 S 
ATOM      8  O   UNL     1      32.397  -8.803 -24.060  0.00  0.00    -0.252 OA
ATOM      9  N   UNL     1      31.614  -9.201 -21.890  0.00  0.00    -0.268 N 
ATOM     10  N   UNL     1      31.538  -7.060 -22.749  0.00  0.00    -0.248 N 
ATOM     11  N   UNL     1      32.152  -5.993 -24.819  0.00  0.00    -0.222 NA
ATOM     12  C   UNL     1      31.902  -8.389 -23.016  0.00  0.00    +0.310 C 
ATOM     13  C   UNL     1      31.671  -5.972 -23.614  0.00  0.00    +0.167 C 
ATOM     14  C   UNL     1      31.578  -3.750 -24.471  0.00  0.00    +0.059 C 
ATOM     15  C   UNL     1      32.100  -4.706 -25.319  0.00  0.00    +0.108 C 
ATOM     16  H   UNL     1      31.218  -8.734 -21.118  0.00  0.00    +0.156 HD
ATOM     17  H   UNL     1      31.151  -6.877 -21.862  0.00  0.00    +0.158 HD
ENDBRANCH   4   9
BRANCH   1  18
ATOM     18  S   UNL     1      33.311 -13.624 -23.883  0.00  0.00    +0.063 S 
ATOM     19  O   UNL     1      32.283 -13.888 -24.868  0.00  0.00    -0.153 OA
ATOM     20  O   UNL     1      34.555 -12.986 -24.255  0.00  0.00    -0.153 OA
BRANCH  18  21
ATOM     21  N   UNL     1      33.659 -15.073 -23.039  0.00  0.00    -0.152 NA
ATOM     22  N   UNL     1      34.773 -17.433 -21.927  0.00  0.00    -0.290 N 
ATOM     23  C   UNL     1      33.840 -16.283 -23.891  0.00  0.00    +0.117 C 
ATOM     24  C   UNL     1      34.737 -14.975 -22.015  0.00  0.00    +0.117 C 
ATOM     25  C   UNL     1      33.793 -17.532 -23.017  0.00  0.00    +0.111 C 
ATOM     26  C   UNL     1      34.706 -16.210 -21.118  0.00  0.00    +0.111 C 
ATOM     27  N   UNL     1      34.405 -19.718 -21.306  0.00  0.00    -0.229 NA
ATOM     28  C   UNL     1      35.225 -18.623 -21.346  0.00  0.00    +0.132 C 
ATOM     29  C   UNL     1      36.521 -18.657 -20.816  0.00  0.00    +0.034 C 
ATOM     30  C   UNL     1      36.983 -19.833 -20.234  0.00  0.00    +0.004 C 
ATOM     31  C   UNL     1      34.890 -20.843 -20.735  0.00  0.00    +0.100 C 
ATOM     32  C   UNL     1      36.159 -20.951 -20.190  0.00  0.00    +0.021 C 
ENDBRANCH  18  21
ENDBRANCH   1  18
TORSDOF 3
ENDMDL
