MODEL 1
REMARK VINA RESULT:      -6.0      0.000      0.000
REMARK  Name = 8163
REMARK  8 active torsions:
REMARK  status: ('A' for Active; 'I' for Inactive)
REMARK    1  A    between atoms: C_1  and  C_2
REMARK    2  A    between atoms: C_1  and  C_7
REMARK    3  A    between atoms: C_2  and  C_3
REMARK    4  A    between atoms: C_3  and  C_4
REMARK    5  A    between atoms: C_4  and  C_5
REMARK    6  A    between atoms: C_7  and  C_8
REMARK    7  A    between atoms: C_8  and  C_9
REMARK    8  A    between atoms: C_9  and  C_11
REMARK                            x       y       z     vdW  Elec       q    Type
REMARK                         _______ _______ _______ _____ _____    ______ ____
ROOT
ATOM      1  C   UNL     1      35.380 -17.912 -21.176  0.00  0.00    +0.000 C 
ENDROOT
BRANCH   1   2
ATOM      2  C   UNL     1      35.024 -19.397 -21.062  0.00  0.00    +0.000 C 
BRANCH   2   3
ATOM      3  C   UNL     1      33.532 -19.737 -21.163  0.00  0.00    +0.000 C 
BRANCH   3   4
ATOM      4  C   UNL     1      33.023 -20.594 -20.002  0.00  0.00    +0.000 C 
BRANCH   4   5
ATOM      5  C   UNL     1      34.112 -21.538 -19.492  0.00  0.00    +0.000 C 
ATOM      6  C   UNL     1      33.556 -22.538 -18.492  0.00  0.00    +0.000 C 
ENDBRANCH   4   5
ENDBRANCH   3   4
ENDBRANCH   2   3
ENDBRANCH   1   2
BRANCH   1   7
ATOM      7  C   UNL     1      34.159 -17.000 -21.322  0.00  0.00    +0.000 C 
BRANCH   7   8
ATOM      8  C   UNL     1      34.265 -16.134 -22.582  0.00  0.00    +0.008 C 
BRANCH   8   9
ATOM      9  C   UNL     1      35.324 -16.648 -23.555  0.00  0.00    +0.065 C 
BRANCH   9  11
ATOM     10  O   UNL     1      34.573 -16.619 -25.855  0.00  0.00    -0.296 OA
ATOM     11  C   UNL     1      34.748 -17.262 -24.821  0.00  0.00    +0.151 C 
ATOM     12  C   UNL     1      34.423 -18.732 -24.757  0.00  0.00    +0.072 C 
ENDBRANCH   9  11
ENDBRANCH   8   9
ENDBRANCH   7   8
ENDBRANCH   1   7
TORSDOF 8
ENDMDL
MODEL 2
REMARK VINA RESULT:      -5.9      1.844      3.067
REMARK  Name = 8163
REMARK  8 active torsions:
REMARK  status: ('A' for Active; 'I' for Inactive)
REMARK    1  A    between atoms: C_1  and  C_2
REMARK    2  A    between atoms: C_1  and  C_7
REMARK    3  A    between atoms: C_2  and  C_3
REMARK    4  A    between atoms: C_3  and  C_4
REMARK    5  A    between atoms: C_4  and  C_5
REMARK    6  A    between atoms: C_7  and  C_8
REMARK    7  A    between atoms: C_8  and  C_9
REMARK    8  A    between atoms: C_9  and  C_11
REMARK                            x       y       z     vdW  Elec       q    Type
REMARK                         _______ _______ _______ _____ _____    ______ ____
ROOT
ATOM      1  C   UNL     1      34.893 -18.669 -24.230  0.00  0.00    +0.000 C 
ENDROOT
BRANCH   1   2
ATOM      2  C   UNL     1      35.503 -18.652 -22.825  0.00  0.00    +0.000 C 
BRANCH   2   3
ATOM      3  C   UNL     1      34.885 -19.625 -21.815  0.00  0.00    +0.000 C 
BRANCH   3   4
ATOM      4  C   UNL     1      33.738 -19.017 -21.005  0.00  0.00    +0.000 C 
BRANCH   4   5
ATOM      5  C   UNL     1      32.777 -20.098 -20.510  0.00  0.00    +0.000 C 
ATOM      6  C   UNL     1      33.507 -21.169 -19.716  0.00  0.00    +0.000 C 
ENDBRANCH   4   5
ENDBRANCH   3   4
ENDBRANCH   2   3
ENDBRANCH   1   2
BRANCH   1   7
ATOM      7  C   UNL     1      34.583 -17.274 -24.778  0.00  0.00    +0.000 C 
BRANCH   7   8
ATOM      8  C   UNL     1      34.912 -16.190 -23.746  0.00  0.00    +0.008 C 
BRANCH   8   9
ATOM      9  C   UNL     1      33.722 -15.277 -23.462  0.00  0.00    +0.065 C 
BRANCH   9  11
ATOM     10  O   UNL     1      32.184 -15.050 -21.608  0.00  0.00    -0.296 OA
ATOM     11  C   UNL     1      33.342 -15.203 -21.992  0.00  0.00    +0.151 C 
ATOM     12  C   UNL     1      34.471 -15.362 -21.007  0.00  0.00    +0.072 C 
ENDBRANCH   9  11
ENDBRANCH   8   9
ENDBRANCH   7   8
ENDBRANCH   1   7
TORSDOF 8
ENDMDL
MODEL 3
REMARK VINA RESULT:      -5.9      2.776      5.523
REMARK  Name = 8163
REMARK  8 active torsions:
REMARK  status: ('A' for Active; 'I' for Inactive)
REMARK    1  A    between atoms: C_1  and  C_2
REMARK    2  A    between atoms: C_1  and  C_7
REMARK    3  A    between atoms: C_2  and  C_3
REMARK    4  A    between atoms: C_3  and  C_4
REMARK    5  A    between atoms: C_4  and  C_5
REMARK    6  A    between atoms: C_7  and  C_8
REMARK    7  A    between atoms: C_8  and  C_9
REMARK    8  A    between atoms: C_9  and  C_11
REMARK                            x       y       z     vdW  Elec       q    Type
REMARK                         _______ _______ _______ _____ _____    ______ ____
ROOT
ATOM      1  C   UNL     1      35.285 -18.154 -23.524  0.00  0.00    +0.000 C 
ENDROOT
BRANCH   1   2
ATOM      2  C   UNL     1      35.322 -16.900 -22.645  0.00  0.00    +0.000 C 
BRANCH   2   3
ATOM      3  C   UNL     1      34.690 -15.640 -23.248  0.00  0.00    +0.000 C 
BRANCH   3   4
ATOM      4  C   UNL     1      34.461 -14.524 -22.227  0.00  0.00    +0.000 C 
BRANCH   4   5
ATOM      5  C   UNL     1      34.199 -15.095 -20.833  0.00  0.00    +0.000 C 
ATOM      6  C   UNL     1      32.710 -15.264 -20.574  0.00  0.00    +0.000 C 
ENDBRANCH   4   5
ENDBRANCH   3   4
ENDBRANCH   2   3
ENDBRANCH   1   2
BRANCH   1   7
ATOM      7  C   UNL     1      34.747 -19.390 -22.800  0.00  0.00    +0.000 C 
BRANCH   7   8
ATOM      8  C   UNL     1      34.453 -19.084 -21.327  0.00  0.00    +0.008 C 
BRANCH   8   9
ATOM      9  C   UNL     1      33.232 -19.841 -20.808  0.00  0.00    +0.065 C 
BRANCH   9  11
ATOM     10  O   UNL     1      32.727 -21.800 -19.481  0.00  0.00    -0.296 OA
ATOM     11  C   UNL     1      33.576 -21.026 -19.920  0.00  0.00    +0.151 C 
ATOM     12  C   UNL     1      35.039 -21.229 -19.624  0.00  0.00    +0.072 C 
ENDBRANCH   9  11
ENDBRANCH   8   9
ENDBRANCH   7   8
ENDBRANCH   1   7
TORSDOF 8
ENDMDL
MODEL 4
REMARK VINA RESULT:      -5.9      1.249      2.173
REMARK  Name = 8163
REMARK  8 active torsions:
REMARK  status: ('A' for Active; 'I' for Inactive)
REMARK    1  A    between atoms: C_1  and  C_2
REMARK    2  A    between atoms: C_1  and  C_7
REMARK    3  A    between atoms: C_2  and  C_3
REMARK    4  A    between atoms: C_3  and  C_4
REMARK    5  A    between atoms: C_4  and  C_5
REMARK    6  A    between atoms: C_7  and  C_8
REMARK    7  A    between atoms: C_8  and  C_9
REMARK    8  A    between atoms: C_9  and  C_11
REMARK                            x       y       z     vdW  Elec       q    Type
REMARK                         _______ _______ _______ _____ _____    ______ ____
ROOT
ATOM      1  C   UNL     1      35.628 -18.302 -22.899  0.00  0.00    +0.000 C 
ENDROOT
BRANCH   1   2
ATOM      2  C   UNL     1      35.309 -18.509 -21.415  0.00  0.00    +0.000 C 
BRANCH   2   3
ATOM      3  C   UNL     1      34.825 -19.910 -21.024  0.00  0.00    +0.000 C 
BRANCH   3   4
ATOM      4  C   UNL     1      33.366 -19.944 -20.562  0.00  0.00    +0.000 C 
BRANCH   4   5
ATOM      5  C   UNL     1      33.124 -21.092 -19.581  0.00  0.00    +0.000 C 
ATOM      6  C   UNL     1      34.408 -21.848 -19.282  0.00  0.00    +0.000 C 
ENDBRANCH   4   5
ENDBRANCH   3   4
ENDBRANCH   2   3
ENDBRANCH   1   2
BRANCH   1   7
ATOM      7  C   UNL     1      34.669 -19.037 -23.838  0.00  0.00    +0.000 C 
BRANCH   7   8
ATOM      8  C   UNL     1      34.437 -18.239 -25.126  0.00  0.00    +0.008 C 
BRANCH   8   9
ATOM      9  C   UNL     1      34.875 -16.782 -24.994  0.00  0.00    +0.065 C 
BRANCH   9  11
ATOM     10  O   UNL     1      33.310 -15.771 -26.538  0.00  0.00    -0.296 OA
ATOM     11  C   UNL     1      33.811 -15.781 -25.415  0.00  0.00    +0.151 C 
ATOM     12  C   UNL     1      33.369 -14.801 -24.359  0.00  0.00    +0.072 C 
ENDBRANCH   9  11
ENDBRANCH   8   9
ENDBRANCH   7   8
ENDBRANCH   1   7
TORSDOF 8
ENDMDL
MODEL 5
REMARK VINA RESULT:      -5.8      2.532      5.050
REMARK  Name = 8163
REMARK  8 active torsions:
REMARK  status: ('A' for Active; 'I' for Inactive)
REMARK    1  A    between atoms: C_1  and  C_2
REMARK    2  A    between atoms: C_1  and  C_7
REMARK    3  A    between atoms: C_2  and  C_3
REMARK    4  A    between atoms: C_3  and  C_4
REMARK    5  A    between atoms: C_4  and  C_5
REMARK    6  A    between atoms: C_7  and  C_8
REMARK    7  A    between atoms: C_8  and  C_9
REMARK    8  A    between atoms: C_9  and  C_11
REMARK                            x       y       z     vdW  Elec       q    Type
REMARK                         _______ _______ _______ _____ _____    ______ ____
ROOT
ATOM      1  C   UNL     1      34.966 -16.604 -24.290  0.00  0.00    +0.000 C 
ENDROOT
BRANCH   1   2
ATOM      2  C   UNL     1      33.855 -15.550 -24.317  0.00  0.00    +0.000 C 
BRANCH   2   3
ATOM      3  C   UNL     1      33.942 -14.457 -23.245  0.00  0.00    +0.000 C 
BRANCH   3   4
ATOM      4  C   UNL     1      32.829 -14.539 -22.199  0.00  0.00    +0.000 C 
BRANCH   4   5
ATOM      5  C   UNL     1      33.099 -15.655 -21.190  0.00  0.00    +0.000 C 
ATOM      6  C   UNL     1      34.425 -15.448 -20.474  0.00  0.00    +0.000 C 
ENDBRANCH   4   5
ENDBRANCH   3   4
ENDBRANCH   2   3
ENDBRANCH   1   2
BRANCH   1   7
ATOM      7  C   UNL     1      34.501 -17.992 -24.737  0.00  0.00    +0.000 C 
BRANCH   7   8
ATOM      8  C   UNL     1      34.940 -19.069 -23.738  0.00  0.00    +0.008 C 
BRANCH   8   9
ATOM      9  C   UNL     1      35.615 -18.477 -22.503  0.00  0.00    +0.065 C 
BRANCH   9  11
ATOM     10  O   UNL     1      36.033 -19.475 -20.339  0.00  0.00    -0.296 OA
ATOM     11  C   UNL     1      35.218 -19.155 -21.202  0.00  0.00    +0.151 C 
ATOM     12  C   UNL     1      33.743 -19.394 -21.003  0.00  0.00    +0.072 C 
ENDBRANCH   9  11
ENDBRANCH   8   9
ENDBRANCH   7   8
ENDBRANCH   1   7
TORSDOF 8
ENDMDL
MODEL 6
REMARK VINA RESULT:      -5.7      2.758      4.292
REMARK  Name = 8163
REMARK  8 active torsions:
REMARK  status: ('A' for Active; 'I' for Inactive)
REMARK    1  A    between atoms: C_1  and  C_2
REMARK    2  A    between atoms: C_1  and  C_7
REMARK    3  A    between atoms: C_2  and  C_3
REMARK    4  A    between atoms: C_3  and  C_4
REMARK    5  A    between atoms: C_4  and  C_5
REMARK    6  A    between atoms: C_7  and  C_8
REMARK    7  A    between atoms: C_8  and  C_9
REMARK    8  A    between atoms: C_9  and  C_11
REMARK                            x       y       z     vdW  Elec       q    Type
REMARK                         _______ _______ _______ _____ _____    ______ ____
ROOT
ATOM      1  C   UNL     1      35.728 -18.232 -22.799  0.00  0.00    +0.000 C 
ENDROOT
BRANCH   1   2
ATOM      2  C   UNL     1      35.342 -17.635 -21.442  0.00  0.00    +0.000 C 
BRANCH   2   3
ATOM      3  C   UNL     1      34.071 -16.778 -21.425  0.00  0.00    +0.000 C 
BRANCH   3   4
ATOM      4  C   UNL     1      34.254 -15.431 -20.724  0.00  0.00    +0.000 C 
BRANCH   4   5
ATOM      5  C   UNL     1      32.910 -14.852 -20.281  0.00  0.00    +0.000 C 
ATOM      6  C   UNL     1      32.463 -13.723 -21.196  0.00  0.00    +0.000 C 
ENDBRANCH   4   5
ENDBRANCH   3   4
ENDBRANCH   2   3
ENDBRANCH   1   2
BRANCH   1   7
ATOM      7  C   UNL     1      34.549 -18.857 -23.549  0.00  0.00    +0.000 C 
BRANCH   7   8
ATOM      8  C   UNL     1      34.428 -18.282 -24.965  0.00  0.00    +0.008 C 
BRANCH   8   9
ATOM      9  C   UNL     1      34.888 -16.828 -25.044  0.00  0.00    +0.065 C 
BRANCH   9  11
ATOM     10  O   UNL     1      33.203 -15.965 -26.551  0.00  0.00    -0.296 OA
ATOM     11  C   UNL     1      33.799 -15.862 -25.480  0.00  0.00    +0.151 C 
ATOM     12  C   UNL     1      33.453 -14.768 -24.503  0.00  0.00    +0.072 C 
ENDBRANCH   9  11
ENDBRANCH   8   9
ENDBRANCH   7   8
ENDBRANCH   1   7
TORSDOF 8
ENDMDL
MODEL 7
REMARK VINA RESULT:      -5.7      2.719      5.633
REMARK  Name = 8163
REMARK  8 active torsions:
REMARK  status: ('A' for Active; 'I' for Inactive)
REMARK    1  A    between atoms: C_1  and  C_2
REMARK    2  A    between atoms: C_1  and  C_7
REMARK    3  A    between atoms: C_2  and  C_3
REMARK    4  A    between atoms: C_3  and  C_4
REMARK    5  A    between atoms: C_4  and  C_5
REMARK    6  A    between atoms: C_7  and  C_8
REMARK    7  A    between atoms: C_8  and  C_9
REMARK    8  A    between atoms: C_9  and  C_11
REMARK                            x       y       z     vdW  Elec       q    Type
REMARK                         _______ _______ _______ _____ _____    ______ ____
ROOT
ATOM      1  C   UNL     1      34.959 -16.960 -21.267  0.00  0.00    +0.000 C 
ENDROOT
BRANCH   1   2
ATOM      2  C   UNL     1      34.562 -15.636 -21.927  0.00  0.00    +0.000 C 
BRANCH   2   3
ATOM      3  C   UNL     1      34.090 -15.729 -23.382  0.00  0.00    +0.000 C 
BRANCH   3   4
ATOM      4  C   UNL     1      35.041 -16.520 -24.282  0.00  0.00    +0.000 C 
BRANCH   4   5
ATOM      5  C   UNL     1      34.279 -17.535 -25.135  0.00  0.00    +0.000 C 
ATOM      6  C   UNL     1      34.525 -18.957 -24.658  0.00  0.00    +0.000 C 
ENDBRANCH   4   5
ENDBRANCH   3   4
ENDBRANCH   2   3
ENDBRANCH   1   2
BRANCH   1   7
ATOM      7  C   UNL     1      33.778 -17.908 -21.041  0.00  0.00    +0.000 C 
BRANCH   7   8
ATOM      8  C   UNL     1      34.244 -19.367 -20.987  0.00  0.00    +0.008 C 
BRANCH   8   9
ATOM      9  C   UNL     1      33.121 -20.322 -20.586  0.00  0.00    +0.065 C 
BRANCH   9  11
ATOM     10  O   UNL     1      32.747 -22.094 -18.982  0.00  0.00    -0.296 OA
ATOM     11  C   UNL     1      33.549 -21.389 -19.592  0.00  0.00    +0.151 C 
ATOM     12  C   UNL     1      35.035 -21.568 -19.410  0.00  0.00    +0.072 C 
ENDBRANCH   9  11
ENDBRANCH   8   9
ENDBRANCH   7   8
ENDBRANCH   1   7
TORSDOF 8
ENDMDL
MODEL 8
REMARK VINA RESULT:      -5.7      1.977      2.983
REMARK  Name = 8163
REMARK  8 active torsions:
REMARK  status: ('A' for Active; 'I' for Inactive)
REMARK    1  A    between atoms: C_1  and  C_2
REMARK    2  A    between atoms: C_1  and  C_7
REMARK    3  A    between atoms: C_2  and  C_3
REMARK    4  A    between atoms: C_3  and  C_4
REMARK    5  A    between atoms: C_4  and  C_5
REMARK    6  A    between atoms: C_7  and  C_8
REMARK    7  A    between atoms: C_8  and  C_9
REMARK    8  A    between atoms: C_9  and  C_11
REMARK                            x       y       z     vdW  Elec       q    Type
REMARK                         _______ _______ _______ _____ _____    ______ ____
ROOT
ATOM      1  C   UNL     1      34.587 -18.914 -23.522  0.00  0.00    +0.000 C 
ENDROOT
BRANCH   1   2
ATOM      2  C   UNL     1      35.091 -18.891 -22.075  0.00  0.00    +0.000 C 
BRANCH   2   3
ATOM      3  C   UNL     1      34.065 -19.273 -21.003  0.00  0.00    +0.000 C 
BRANCH   3   4
ATOM      4  C   UNL     1      34.409 -20.569 -20.265  0.00  0.00    +0.000 C 
BRANCH   4   5
ATOM      5  C   UNL     1      35.920 -20.722 -20.091  0.00  0.00    +0.000 C 
ATOM      6  C   UNL     1      36.256 -21.575 -18.878  0.00  0.00    +0.000 C 
ENDBRANCH   4   5
ENDBRANCH   3   4
ENDBRANCH   2   3
ENDBRANCH   1   2
BRANCH   1   7
ATOM      7  C   UNL     1      34.781 -17.586 -24.257  0.00  0.00    +0.000 C 
BRANCH   7   8
ATOM      8  C   UNL     1      35.126 -16.458 -23.279  0.00  0.00    +0.008 C 
BRANCH   8   9
ATOM      9  C   UNL     1      34.003 -15.429 -23.158  0.00  0.00    +0.065 C 
BRANCH   9  11
ATOM     10  O   UNL     1      32.205 -15.209 -21.555  0.00  0.00    -0.296 OA
ATOM     11  C   UNL     1      33.411 -15.328 -21.762  0.00  0.00    +0.151 C 
ATOM     12  C   UNL     1      34.390 -15.412 -20.619  0.00  0.00    +0.072 C 
ENDBRANCH   9  11
ENDBRANCH   8   9
ENDBRANCH   7   8
ENDBRANCH   1   7
TORSDOF 8
ENDMDL
MODEL 9
REMARK VINA RESULT:      -5.6      3.300      6.662
REMARK  Name = 8163
REMARK  8 active torsions:
REMARK  status: ('A' for Active; 'I' for Inactive)
REMARK    1  A    between atoms: C_1  and  C_2
REMARK    2  A    between atoms: C_1  and  C_7
REMARK    3  A    between atoms: C_2  and  C_3
REMARK    4  A    between atoms: C_3  and  C_4
REMARK    5  A    between atoms: C_4  and  C_5
REMARK    6  A    between atoms: C_7  and  C_8
REMARK    7  A    between atoms: C_8  and  C_9
REMARK    8  A    between atoms: C_9  and  C_11
REMARK                            x       y       z     vdW  Elec       q    Type
REMARK                         _______ _______ _______ _____ _____    ______ ____
ROOT
ATOM      1  C   UNL     1      33.738 -19.650 -21.271  0.00  0.00    +0.000 C 
ENDROOT
BRANCH   1   2
ATOM      2  C   UNL     1      35.260 -19.494 -21.199  0.00  0.00    +0.000 C 
BRANCH   2   3
ATOM      3  C   UNL     1      35.880 -18.515 -22.202  0.00  0.00    +0.000 C 
BRANCH   3   4
ATOM      4  C   UNL     1      34.897 -17.458 -22.710  0.00  0.00    +0.000 C 
BRANCH   4   5
ATOM      5  C   UNL     1      34.850 -17.437 -24.239  0.00  0.00    +0.000 C 
ATOM      6  C   UNL     1      34.449 -18.792 -24.801  0.00  0.00    +0.000 C 
ENDBRANCH   4   5
ENDBRANCH   3   4
ENDBRANCH   2   3
ENDBRANCH   1   2
BRANCH   1   7
ATOM      7  C   UNL     1      33.160 -20.518 -20.150  0.00  0.00    +0.000 C 
BRANCH   7   8
ATOM      8  C   UNL     1      34.255 -21.354 -19.479  0.00  0.00    +0.008 C 
BRANCH   8   9
ATOM      9  C   UNL     1      33.771 -22.752 -19.101  0.00  0.00    +0.065 C 
BRANCH   9  11
ATOM     10  O   UNL     1      34.871 -23.132 -16.980  0.00  0.00    -0.296 OA
ATOM     11  C   UNL     1      33.818 -23.036 -17.609  0.00  0.00    +0.151 C 
ATOM     12  C   UNL     1      32.487 -23.166 -16.916  0.00  0.00    +0.072 C 
ENDBRANCH   9  11
ENDBRANCH   8   9
ENDBRANCH   7   8
ENDBRANCH   1   7
TORSDOF 8
ENDMDL
