MODEL 1
REMARK VINA RESULT:      -7.6      0.000      0.000
REMARK  Name = 447027
REMARK  11 active torsions:
REMARK  status: ('A' for Active; 'I' for Inactive)
REMARK    1  A    between atoms: C_2  and  O_7
REMARK    2  A    between atoms: C_3  and  O_9
REMARK    3  A    between atoms: C_4  and  O_11
REMARK    4  A    between atoms: C_5  and  C_20
REMARK    5  A    between atoms: C_6  and  O_13
REMARK    6  A    between atoms: O_13  and  C_14
REMARK    7  A    between atoms: C_14  and  C_15
REMARK    8  A    between atoms: C_15  and  C_16
REMARK    9  A    between atoms: C_16  and  C_17
REMARK   10  A    between atoms: C_17  and  C_18
REMARK   11  A    between atoms: C_20  and  O_21
REMARK                            x       y       z     vdW  Elec       q    Type
REMARK                         _______ _______ _______ _____ _____    ______ ____
ROOT
ATOM      1  O   UNL     1      36.375 -24.615 -14.722  0.00  0.00    -0.326 OA
ATOM      2  C   UNL     1      35.878 -24.436 -11.903  0.00  0.00    +0.172 C 
ATOM      3  C   UNL     1      37.086 -25.183 -12.471  0.00  0.00    +0.169 C 
ATOM      4  C   UNL     1      34.744 -24.368 -12.926  0.00  0.00    +0.196 C 
ATOM      5  C   UNL     1      37.486 -24.573 -13.818  0.00  0.00    +0.176 C 
ATOM      6  C   UNL     1      35.258 -23.849 -14.271  0.00  0.00    +0.266 C 
ENDROOT
BRANCH   2   7
ATOM      7  O   UNL     1      35.408 -25.086 -10.726  0.00  0.00    -0.379 OA
ATOM      8  H   UNL     1      36.053 -24.964 -10.010  0.00  0.00    +0.211 HD
ENDBRANCH   2   7
BRANCH   3   9
ATOM      9  O   UNL     1      36.751 -26.559 -12.663  0.00  0.00    -0.379 OA
ATOM     10  H   UNL     1      36.112 -26.637 -13.389  0.00  0.00    +0.211 HD
ENDBRANCH   3   9
BRANCH   4  11
ATOM     11  O   UNL     1      33.736 -23.476 -12.452  0.00  0.00    -0.378 OA
ATOM     12  H   UNL     1      34.078 -22.977 -11.692  0.00  0.00    +0.211 HD
ENDBRANCH   4  11
BRANCH   6  13
ATOM     13  O   UNL     1      34.193 -23.948 -15.215  0.00  0.00    -0.329 OA
BRANCH  13  14
ATOM     14  C   UNL     1      34.443 -23.151 -16.361  0.00  0.00    +0.145 C 
BRANCH  14  15
ATOM     15  C   UNL     1      33.393 -23.465 -17.419  0.00  0.00    +0.032 C 
BRANCH  15  16
ATOM     16  C   UNL     1      33.303 -22.357 -18.467  0.00  0.00    +0.003 C 
BRANCH  16  17
ATOM     17  C   UNL     1      34.646 -22.031 -19.126  0.00  0.00    +0.000 C 
BRANCH  17  18
ATOM     18  C   UNL     1      34.595 -20.802 -20.035  0.00  0.00    +0.000 C 
ATOM     19  C   UNL     1      33.160 -20.375 -20.309  0.00  0.00    +0.000 C 
ENDBRANCH  17  18
ENDBRANCH  16  17
ENDBRANCH  15  16
ENDBRANCH  14  15
ENDBRANCH  13  14
ENDBRANCH   6  13
BRANCH   5  20
ATOM     20  C   UNL     1      38.636 -25.326 -14.477  0.00  0.00    +0.169 C 
BRANCH  20  21
ATOM     21  O   UNL     1      38.099 -26.256 -15.399  0.00  0.00    -0.379 OA
ATOM     22  H   UNL     1      37.629 -26.955 -14.918  0.00  0.00    +0.211 HD
ENDBRANCH  20  21
ENDBRANCH   5  20
TORSDOF 11
ENDMDL
MODEL 2
REMARK VINA RESULT:      -7.4      1.704      2.922
REMARK  Name = 447027
REMARK  11 active torsions:
REMARK  status: ('A' for Active; 'I' for Inactive)
REMARK    1  A    between atoms: C_2  and  O_7
REMARK    2  A    between atoms: C_3  and  O_9
REMARK    3  A    between atoms: C_4  and  O_11
REMARK    4  A    between atoms: C_5  and  C_20
REMARK    5  A    between atoms: C_6  and  O_13
REMARK    6  A    between atoms: O_13  and  C_14
REMARK    7  A    between atoms: C_14  and  C_15
REMARK    8  A    between atoms: C_15  and  C_16
REMARK    9  A    between atoms: C_16  and  C_17
REMARK   10  A    between atoms: C_17  and  C_18
REMARK   11  A    between atoms: C_20  and  O_21
REMARK                            x       y       z     vdW  Elec       q    Type
REMARK                         _______ _______ _______ _____ _____    ______ ____
ROOT
ATOM      1  O   UNL     1      36.197 -23.863 -14.092  0.00  0.00    -0.326 OA
ATOM      2  C   UNL     1      37.701 -26.305 -14.090  0.00  0.00    +0.172 C 
ATOM      3  C   UNL     1      38.117 -25.093 -13.255  0.00  0.00    +0.169 C 
ATOM      4  C   UNL     1      36.857 -25.881 -15.291  0.00  0.00    +0.196 C 
ATOM      5  C   UNL     1      36.880 -24.262 -12.897  0.00  0.00    +0.176 C 
ATOM      6  C   UNL     1      35.710 -24.968 -14.853  0.00  0.00    +0.266 C 
ENDROOT
BRANCH   2   7
ATOM      7  O   UNL     1      38.854 -27.003 -14.551  0.00  0.00    -0.379 OA
ATOM      8  H   UNL     1      39.055 -27.733 -13.943  0.00  0.00    +0.211 HD
ENDBRANCH   2   7
BRANCH   3   9
ATOM      9  O   UNL     1      39.022 -24.282 -14.007  0.00  0.00    -0.379 OA
ATOM     10  H   UNL     1      39.907 -24.336 -13.613  0.00  0.00    +0.211 HD
ENDBRANCH   3   9
BRANCH   4  11
ATOM     11  O   UNL     1      36.301 -27.042 -15.909  0.00  0.00    -0.378 OA
ATOM     12  H   UNL     1      35.775 -27.533 -15.258  0.00  0.00    +0.211 HD
ENDBRANCH   4  11
BRANCH   6  13
ATOM     13  O   UNL     1      35.054 -24.493 -16.027  0.00  0.00    -0.329 OA
BRANCH  13  14
ATOM     14  C   UNL     1      34.257 -23.353 -15.748  0.00  0.00    +0.145 C 
BRANCH  14  15
ATOM     15  C   UNL     1      33.419 -23.025 -16.977  0.00  0.00    +0.032 C 
BRANCH  15  16
ATOM     16  C   UNL     1      34.296 -22.655 -18.172  0.00  0.00    +0.003 C 
BRANCH  16  17
ATOM     17  C   UNL     1      33.545 -21.894 -19.267  0.00  0.00    +0.000 C 
BRANCH  17  18
ATOM     18  C   UNL     1      34.402 -20.842 -19.974  0.00  0.00    +0.000 C 
ATOM     19  C   UNL     1      35.865 -21.259 -20.018  0.00  0.00    +0.000 C 
ENDBRANCH  17  18
ENDBRANCH  16  17
ENDBRANCH  15  16
ENDBRANCH  14  15
ENDBRANCH  13  14
ENDBRANCH   6  13
BRANCH   5  20
ATOM     20  C   UNL     1      37.236 -22.993 -12.132  0.00  0.00    +0.169 C 
BRANCH  20  21
ATOM     21  O   UNL     1      38.544 -23.132 -11.607  0.00  0.00    -0.379 OA
ATOM     22  H   UNL     1      38.804 -24.066 -11.628  0.00  0.00    +0.211 HD
ENDBRANCH  20  21
ENDBRANCH   5  20
TORSDOF 11
ENDMDL
MODEL 3
REMARK VINA RESULT:      -7.3      2.335      3.841
REMARK  Name = 447027
REMARK  11 active torsions:
REMARK  status: ('A' for Active; 'I' for Inactive)
REMARK    1  A    between atoms: C_2  and  O_7
REMARK    2  A    between atoms: C_3  and  O_9
REMARK    3  A    between atoms: C_4  and  O_11
REMARK    4  A    between atoms: C_5  and  C_20
REMARK    5  A    between atoms: C_6  and  O_13
REMARK    6  A    between atoms: O_13  and  C_14
REMARK    7  A    between atoms: C_14  and  C_15
REMARK    8  A    between atoms: C_15  and  C_16
REMARK    9  A    between atoms: C_16  and  C_17
REMARK   10  A    between atoms: C_17  and  C_18
REMARK   11  A    between atoms: C_20  and  O_21
REMARK                            x       y       z     vdW  Elec       q    Type
REMARK                         _______ _______ _______ _____ _____    ______ ____
ROOT
ATOM      1  O   UNL     1      36.267 -23.737 -14.085  0.00  0.00    -0.326 OA
ATOM      2  C   UNL     1      37.628 -26.262 -14.055  0.00  0.00    +0.172 C 
ATOM      3  C   UNL     1      38.101 -25.073 -13.218  0.00  0.00    +0.169 C 
ATOM      4  C   UNL     1      36.827 -25.794 -15.270  0.00  0.00    +0.196 C 
ATOM      5  C   UNL     1      36.909 -24.171 -12.879  0.00  0.00    +0.176 C 
ATOM      6  C   UNL     1      35.728 -24.815 -14.849  0.00  0.00    +0.266 C 
ENDROOT
BRANCH   2   7
ATOM      7  O   UNL     1      38.746 -27.025 -14.498  0.00  0.00    -0.379 OA
ATOM      8  H   UNL     1      38.474 -27.603 -15.229  0.00  0.00    +0.211 HD
ENDBRANCH   2   7
BRANCH   3   9
ATOM      9  O   UNL     1      39.061 -24.317 -13.958  0.00  0.00    -0.379 OA
ATOM     10  H   UNL     1      38.645 -23.510 -14.298  0.00  0.00    +0.211 HD
ENDBRANCH   3   9
BRANCH   4  11
ATOM     11  O   UNL     1      36.214 -26.923 -15.892  0.00  0.00    -0.378 OA
ATOM     12  H   UNL     1      36.901 -27.499 -16.263  0.00  0.00    +0.211 HD
ENDBRANCH   4  11
BRANCH   6  13
ATOM     13  O   UNL     1      35.117 -24.307 -16.035  0.00  0.00    -0.329 OA
BRANCH  13  14
ATOM     14  C   UNL     1      33.994 -23.496 -15.730  0.00  0.00    +0.145 C 
BRANCH  14  15
ATOM     15  C   UNL     1      33.178 -23.286 -16.998  0.00  0.00    +0.032 C 
BRANCH  15  16
ATOM     16  C   UNL     1      31.719 -22.963 -16.680  0.00  0.00    +0.003 C 
BRANCH  16  17
ATOM     17  C   UNL     1      31.395 -23.016 -15.185  0.00  0.00    +0.000 C 
BRANCH  17  18
ATOM     18  C   UNL     1      29.897 -22.945 -14.884  0.00  0.00    +0.000 C 
ATOM     19  C   UNL     1      29.088 -22.704 -16.151  0.00  0.00    +0.000 C 
ENDBRANCH  17  18
ENDBRANCH  16  17
ENDBRANCH  15  16
ENDBRANCH  14  15
ENDBRANCH  13  14
ENDBRANCH   6  13
BRANCH   5  20
ATOM     20  C   UNL     1      37.327 -22.921 -12.112  0.00  0.00    +0.169 C 
BRANCH  20  21
ATOM     21  O   UNL     1      38.617 -23.133 -11.570  0.00  0.00    -0.379 OA
ATOM     22  H   UNL     1      38.721 -22.601 -10.765  0.00  0.00    +0.211 HD
ENDBRANCH  20  21
ENDBRANCH   5  20
TORSDOF 11
ENDMDL
MODEL 4
REMARK VINA RESULT:      -7.3      1.103      1.445
REMARK  Name = 447027
REMARK  11 active torsions:
REMARK  status: ('A' for Active; 'I' for Inactive)
REMARK    1  A    between atoms: C_2  and  O_7
REMARK    2  A    between atoms: C_3  and  O_9
REMARK    3  A    between atoms: C_4  and  O_11
REMARK    4  A    between atoms: C_5  and  C_20
REMARK    5  A    between atoms: C_6  and  O_13
REMARK    6  A    between atoms: O_13  and  C_14
REMARK    7  A    between atoms: C_14  and  C_15
REMARK    8  A    between atoms: C_15  and  C_16
REMARK    9  A    between atoms: C_16  and  C_17
REMARK   10  A    between atoms: C_17  and  C_18
REMARK   11  A    between atoms: C_20  and  O_21
REMARK                            x       y       z     vdW  Elec       q    Type
REMARK                         _______ _______ _______ _____ _____    ______ ____
ROOT
ATOM      1  O   UNL     1      36.703 -24.335 -15.547  0.00  0.00    -0.326 OA
ATOM      2  C   UNL     1      35.445 -24.255 -12.970  0.00  0.00    +0.172 C 
ATOM      3  C   UNL     1      36.757 -25.002 -13.212  0.00  0.00    +0.169 C 
ATOM      4  C   UNL     1      34.640 -24.126 -14.263  0.00  0.00    +0.196 C 
ATOM      5  C   UNL     1      37.521 -24.349 -14.369  0.00  0.00    +0.176 C 
ATOM      6  C   UNL     1      35.511 -23.566 -15.390  0.00  0.00    +0.266 C 
ENDROOT
BRANCH   2   7
ATOM      7  O   UNL     1      34.663 -24.940 -11.997  0.00  0.00    -0.379 OA
ATOM      8  H   UNL     1      33.921 -25.387 -12.434  0.00  0.00    +0.211 HD
ENDBRANCH   2   7
BRANCH   3   9
ATOM      9  O   UNL     1      36.479 -26.363 -13.547  0.00  0.00    -0.379 OA
ATOM     10  H   UNL     1      36.579 -26.487 -14.504  0.00  0.00    +0.211 HD
ENDBRANCH   3   9
BRANCH   4  11
ATOM     11  O   UNL     1      33.547 -23.234 -14.049  0.00  0.00    -0.378 OA
ATOM     12  H   UNL     1      33.806 -22.336 -14.313  0.00  0.00    +0.211 HD
ENDBRANCH   4  11
BRANCH   6  13
ATOM     13  O   UNL     1      34.748 -23.609 -16.595  0.00  0.00    -0.329 OA
BRANCH  13  14
ATOM     14  C   UNL     1      35.092 -22.541 -17.462  0.00  0.00    +0.145 C 
BRANCH  14  15
ATOM     15  C   UNL     1      34.097 -22.501 -18.615  0.00  0.00    +0.032 C 
BRANCH  15  16
ATOM     16  C   UNL     1      34.418 -21.372 -19.594  0.00  0.00    +0.003 C 
BRANCH  16  17
ATOM     17  C   UNL     1      33.172 -20.687 -20.162  0.00  0.00    +0.000 C 
BRANCH  17  18
ATOM     18  C   UNL     1      33.479 -19.381 -20.898  0.00  0.00    +0.000 C 
ATOM     19  C   UNL     1      34.661 -19.542 -21.842  0.00  0.00    +0.000 C 
ENDBRANCH  17  18
ENDBRANCH  16  17
ENDBRANCH  15  16
ENDBRANCH  14  15
ENDBRANCH  13  14
ENDBRANCH   6  13
BRANCH   5  20
ATOM     20  C   UNL     1      38.802 -25.098 -14.715  0.00  0.00    +0.169 C 
BRANCH  20  21
ATOM     21  O   UNL     1      38.465 -26.248 -15.469  0.00  0.00    -0.379 OA
ATOM     22  H   UNL     1      38.746 -27.043 -14.990  0.00  0.00    +0.211 HD
ENDBRANCH  20  21
ENDBRANCH   5  20
TORSDOF 11
ENDMDL
MODEL 5
REMARK VINA RESULT:      -7.1      1.895      3.064
REMARK  Name = 447027
REMARK  11 active torsions:
REMARK  status: ('A' for Active; 'I' for Inactive)
REMARK    1  A    between atoms: C_2  and  O_7
REMARK    2  A    between atoms: C_3  and  O_9
REMARK    3  A    between atoms: C_4  and  O_11
REMARK    4  A    between atoms: C_5  and  C_20
REMARK    5  A    between atoms: C_6  and  O_13
REMARK    6  A    between atoms: O_13  and  C_14
REMARK    7  A    between atoms: C_14  and  C_15
REMARK    8  A    between atoms: C_15  and  C_16
REMARK    9  A    between atoms: C_16  and  C_17
REMARK   10  A    between atoms: C_17  and  C_18
REMARK   11  A    between atoms: C_20  and  O_21
REMARK                            x       y       z     vdW  Elec       q    Type
REMARK                         _______ _______ _______ _____ _____    ______ ____
ROOT
ATOM      1  O   UNL     1      36.359 -24.831 -14.782  0.00  0.00    -0.326 OA
ATOM      2  C   UNL     1      35.896 -24.448 -11.978  0.00  0.00    +0.172 C 
ATOM      3  C   UNL     1      37.119 -25.200 -12.505  0.00  0.00    +0.169 C 
ATOM      4  C   UNL     1      34.746 -24.494 -12.984  0.00  0.00    +0.196 C 
ATOM      5  C   UNL     1      37.481 -24.685 -13.902  0.00  0.00    +0.176 C 
ATOM      6  C   UNL     1      35.225 -24.067 -14.373  0.00  0.00    +0.266 C 
ENDROOT
BRANCH   2   7
ATOM      7  O   UNL     1      35.464 -25.018 -10.746  0.00  0.00    -0.379 OA
ATOM      8  H   UNL     1      35.056 -25.882 -10.914  0.00  0.00    +0.211 HD
ENDBRANCH   2   7
BRANCH   3   9
ATOM      9  O   UNL     1      36.825 -26.596 -12.584  0.00  0.00    -0.379 OA
ATOM     10  H   UNL     1      37.526 -27.100 -12.142  0.00  0.00    +0.211 HD
ENDBRANCH   3   9
BRANCH   4  11
ATOM     11  O   UNL     1      33.717 -23.599 -12.564  0.00  0.00    -0.378 OA
ATOM     12  H   UNL     1      33.659 -23.606 -11.595  0.00  0.00    +0.211 HD
ENDBRANCH   4  11
BRANCH   6  13
ATOM     13  O   UNL     1      34.150 -24.272 -15.289  0.00  0.00    -0.329 OA
BRANCH  13  14
ATOM     14  C   UNL     1      34.187 -23.328 -16.347  0.00  0.00    +0.145 C 
BRANCH  14  15
ATOM     15  C   UNL     1      32.768 -23.095 -16.850  0.00  0.00    +0.032 C 
BRANCH  15  16
ATOM     16  C   UNL     1      31.762 -23.072 -15.700  0.00  0.00    +0.003 C 
BRANCH  16  17
ATOM     17  C   UNL     1      30.354 -23.507 -16.113  0.00  0.00    +0.000 C 
BRANCH  17  18
ATOM     18  C   UNL     1      30.024 -24.949 -15.725  0.00  0.00    +0.000 C 
ATOM     19  C   UNL     1      28.831 -25.010 -14.781  0.00  0.00    +0.000 C 
ENDBRANCH  17  18
ENDBRANCH  16  17
ENDBRANCH  15  16
ENDBRANCH  14  15
ENDBRANCH  13  14
ENDBRANCH   6  13
BRANCH   5  20
ATOM     20  C   UNL     1      38.645 -25.452 -14.519  0.00  0.00    +0.169 C 
BRANCH  20  21
ATOM     21  O   UNL     1      38.124 -26.473 -15.351  0.00  0.00    -0.379 OA
ATOM     22  H   UNL     1      38.820 -26.794 -15.945  0.00  0.00    +0.211 HD
ENDBRANCH  20  21
ENDBRANCH   5  20
TORSDOF 11
ENDMDL
MODEL 6
REMARK VINA RESULT:      -7.1     10.944     14.430
REMARK  Name = 447027
REMARK  11 active torsions:
REMARK  status: ('A' for Active; 'I' for Inactive)
REMARK    1  A    between atoms: C_2  and  O_7
REMARK    2  A    between atoms: C_3  and  O_9
REMARK    3  A    between atoms: C_4  and  O_11
REMARK    4  A    between atoms: C_5  and  C_20
REMARK    5  A    between atoms: C_6  and  O_13
REMARK    6  A    between atoms: O_13  and  C_14
REMARK    7  A    between atoms: C_14  and  C_15
REMARK    8  A    between atoms: C_15  and  C_16
REMARK    9  A    between atoms: C_16  and  C_17
REMARK   10  A    between atoms: C_17  and  C_18
REMARK   11  A    between atoms: C_20  and  O_21
REMARK                            x       y       z     vdW  Elec       q    Type
REMARK                         _______ _______ _______ _____ _____    ______ ____
ROOT
ATOM      1  O   UNL     1      33.899 -14.101 -23.470  0.00  0.00    -0.326 OA
ATOM      2  C   UNL     1      33.918 -16.645 -24.793  0.00  0.00    +0.172 C 
ATOM      3  C   UNL     1      34.506 -16.451 -23.394  0.00  0.00    +0.169 C 
ATOM      4  C   UNL     1      33.915 -15.332 -25.574  0.00  0.00    +0.196 C 
ATOM      5  C   UNL     1      33.789 -15.296 -22.686  0.00  0.00    +0.176 C 
ATOM      6  C   UNL     1      33.277 -14.212 -24.749  0.00  0.00    +0.266 C 
ENDROOT
BRANCH   2   7
ATOM      7  O   UNL     1      34.673 -17.616 -25.511  0.00  0.00    -0.379 OA
ATOM      8  H   UNL     1      35.419 -17.914 -24.967  0.00  0.00    +0.211 HD
ENDBRANCH   2   7
BRANCH   3   9
ATOM      9  O   UNL     1      35.897 -16.142 -23.498  0.00  0.00    -0.379 OA
ATOM     10  H   UNL     1      36.419 -16.872 -23.128  0.00  0.00    +0.211 HD
ENDBRANCH   3   9
BRANCH   4  11
ATOM     11  O   UNL     1      33.158 -15.499 -26.772  0.00  0.00    -0.378 OA
ATOM     12  H   UNL     1      32.403 -16.084 -26.598  0.00  0.00    +0.211 HD
ENDBRANCH   4  11
BRANCH   6  13
ATOM     13  O   UNL     1      33.438 -12.991 -25.470  0.00  0.00    -0.329 OA
BRANCH  13  14
ATOM     14  C   UNL     1      33.930 -11.958 -24.632  0.00  0.00    +0.145 C 
BRANCH  14  15
ATOM     15  C   UNL     1      34.655 -10.930 -25.491  0.00  0.00    +0.032 C 
BRANCH  15  16
ATOM     16  C   UNL     1      35.127  -9.737 -24.660  0.00  0.00    +0.003 C 
BRANCH  16  17
ATOM     17  C   UNL     1      34.075  -9.230 -23.671  0.00  0.00    +0.000 C 
BRANCH  17  18
ATOM     18  C   UNL     1      34.240  -7.752 -23.312  0.00  0.00    +0.000 C 
ATOM     19  C   UNL     1      34.571  -6.917 -24.541  0.00  0.00    +0.000 C 
ENDBRANCH  17  18
ENDBRANCH  16  17
ENDBRANCH  15  16
ENDBRANCH  14  15
ENDBRANCH  13  14
ENDBRANCH   6  13
BRANCH   5  20
ATOM     20  C   UNL     1      34.384 -14.997 -21.315  0.00  0.00    +0.169 C 
BRANCH  20  21
ATOM     21  O   UNL     1      34.980 -16.179 -20.813  0.00  0.00    -0.379 OA
ATOM     22  H   UNL     1      34.696 -16.321 -19.897  0.00  0.00    +0.211 HD
ENDBRANCH  20  21
ENDBRANCH   5  20
TORSDOF 11
ENDMDL
MODEL 7
REMARK VINA RESULT:      -7.0      8.037     12.044
REMARK  Name = 447027
REMARK  11 active torsions:
REMARK  status: ('A' for Active; 'I' for Inactive)
REMARK    1  A    between atoms: C_2  and  O_7
REMARK    2  A    between atoms: C_3  and  O_9
REMARK    3  A    between atoms: C_4  and  O_11
REMARK    4  A    between atoms: C_5  and  C_20
REMARK    5  A    between atoms: C_6  and  O_13
REMARK    6  A    between atoms: O_13  and  C_14
REMARK    7  A    between atoms: C_14  and  C_15
REMARK    8  A    between atoms: C_15  and  C_16
REMARK    9  A    between atoms: C_16  and  C_17
REMARK   10  A    between atoms: C_17  and  C_18
REMARK   11  A    between atoms: C_20  and  O_21
REMARK                            x       y       z     vdW  Elec       q    Type
REMARK                         _______ _______ _______ _____ _____    ______ ____
ROOT
ATOM      1  O   UNL     1      34.767 -16.085 -22.578  0.00  0.00    -0.326 OA
ATOM      2  C   UNL     1      33.498 -14.400 -24.521  0.00  0.00    +0.172 C 
ATOM      3  C   UNL     1      33.372 -14.146 -23.018  0.00  0.00    +0.169 C 
ATOM      4  C   UNL     1      33.799 -15.871 -24.806  0.00  0.00    +0.196 C 
ATOM      5  C   UNL     1      34.610 -14.688 -22.296  0.00  0.00    +0.176 C 
ATOM      6  C   UNL     1      34.981 -16.354 -23.963  0.00  0.00    +0.266 C 
ENDROOT
BRANCH   2   7
ATOM      7  O   UNL     1      32.291 -14.032 -25.183  0.00  0.00    -0.379 OA
ATOM      8  H   UNL     1      32.499 -13.679 -26.063  0.00  0.00    +0.211 HD
ENDBRANCH   2   7
BRANCH   3   9
ATOM      9  O   UNL     1      32.211 -14.810 -22.515  0.00  0.00    -0.379 OA
ATOM     10  H   UNL     1      32.095 -15.654 -22.980  0.00  0.00    +0.211 HD
ENDBRANCH   3   9
BRANCH   4  11
ATOM     11  O   UNL     1      34.134 -16.023 -26.185  0.00  0.00    -0.378 OA
ATOM     12  H   UNL     1      34.163 -16.967 -26.408  0.00  0.00    +0.211 HD
ENDBRANCH   4  11
BRANCH   6  13
ATOM     13  O   UNL     1      35.116 -17.761 -24.165  0.00  0.00    -0.329 OA
BRANCH  13  14
ATOM     14  C   UNL     1      35.546 -18.413 -22.981  0.00  0.00    +0.145 C 
BRANCH  14  15
ATOM     15  C   UNL     1      34.470 -19.398 -22.543  0.00  0.00    +0.032 C 
BRANCH  15  16
ATOM     16  C   UNL     1      34.341 -19.448 -21.021  0.00  0.00    +0.003 C 
BRANCH  16  17
ATOM     17  C   UNL     1      33.084 -20.177 -20.539  0.00  0.00    +0.000 C 
BRANCH  17  18
ATOM     18  C   UNL     1      33.375 -21.288 -19.529  0.00  0.00    +0.000 C 
ATOM     19  C   UNL     1      34.861 -21.612 -19.475  0.00  0.00    +0.000 C 
ENDBRANCH  17  18
ENDBRANCH  16  17
ENDBRANCH  15  16
ENDBRANCH  14  15
ENDBRANCH  13  14
ENDBRANCH   6  13
BRANCH   5  20
ATOM     20  C   UNL     1      34.510 -14.540 -20.782  0.00  0.00    +0.169 C 
BRANCH  20  21
ATOM     21  O   UNL     1      34.947 -15.744 -20.179  0.00  0.00    -0.379 OA
ATOM     22  H   UNL     1      35.713 -15.563 -19.612  0.00  0.00    +0.211 HD
ENDBRANCH  20  21
ENDBRANCH   5  20
TORSDOF 11
ENDMDL
MODEL 8
REMARK VINA RESULT:      -6.9      3.183      5.137
REMARK  Name = 447027
REMARK  11 active torsions:
REMARK  status: ('A' for Active; 'I' for Inactive)
REMARK    1  A    between atoms: C_2  and  O_7
REMARK    2  A    between atoms: C_3  and  O_9
REMARK    3  A    between atoms: C_4  and  O_11
REMARK    4  A    between atoms: C_5  and  C_20
REMARK    5  A    between atoms: C_6  and  O_13
REMARK    6  A    between atoms: O_13  and  C_14
REMARK    7  A    between atoms: C_14  and  C_15
REMARK    8  A    between atoms: C_15  and  C_16
REMARK    9  A    between atoms: C_16  and  C_17
REMARK   10  A    between atoms: C_17  and  C_18
REMARK   11  A    between atoms: C_20  and  O_21
REMARK                            x       y       z     vdW  Elec       q    Type
REMARK                         _______ _______ _______ _____ _____    ______ ____
ROOT
ATOM      1  O   UNL     1      32.268 -23.614 -15.617  0.00  0.00    -0.326 OA
ATOM      2  C   UNL     1      29.447 -23.566 -15.101  0.00  0.00    +0.172 C 
ATOM      3  C   UNL     1      30.416 -24.389 -14.251  0.00  0.00    +0.169 C 
ATOM      4  C   UNL     1      30.013 -23.324 -16.500  0.00  0.00    +0.196 C 
ATOM      5  C   UNL     1      31.802 -23.737 -14.267  0.00  0.00    +0.176 C 
ATOM      6  C   UNL     1      31.439 -22.774 -16.420  0.00  0.00    +0.266 C 
ENDROOT
BRANCH   2   7
ATOM      7  O   UNL     1      28.197 -24.240 -15.212  0.00  0.00    -0.379 OA
ATOM      8  H   UNL     1      27.559 -23.667 -15.666  0.00  0.00    +0.211 HD
ENDBRANCH   2   7
BRANCH   3   9
ATOM      9  O   UNL     1      30.516 -25.711 -14.784  0.00  0.00    -0.379 OA
ATOM     10  H   UNL     1      29.786 -25.867 -15.403  0.00  0.00    +0.211 HD
ENDBRANCH   3   9
BRANCH   4  11
ATOM     11  O   UNL     1      29.197 -22.371 -17.179  0.00  0.00    -0.378 OA
ATOM     12  H   UNL     1      29.736 -21.603 -17.428  0.00  0.00    +0.211 HD
ENDBRANCH   4  11
BRANCH   6  13
ATOM     13  O   UNL     1      31.959 -22.710 -17.747  0.00  0.00    -0.329 OA
BRANCH  13  14
ATOM     14  C   UNL     1      33.352 -22.975 -17.768  0.00  0.00    +0.145 C 
BRANCH  14  15
ATOM     15  C   UNL     1      33.867 -22.795 -19.191  0.00  0.00    +0.032 C 
BRANCH  15  16
ATOM     16  C   UNL     1      34.214 -21.336 -19.482  0.00  0.00    +0.003 C 
BRANCH  16  17
ATOM     17  C   UNL     1      33.126 -20.595 -20.263  0.00  0.00    +0.000 C 
BRANCH  17  18
ATOM     18  C   UNL     1      33.646 -19.371 -21.019  0.00  0.00    +0.000 C 
ATOM     19  C   UNL     1      35.050 -19.608 -21.557  0.00  0.00    +0.000 C 
ENDBRANCH  17  18
ENDBRANCH  16  17
ENDBRANCH  15  16
ENDBRANCH  14  15
ENDBRANCH  13  14
ENDBRANCH   6  13
BRANCH   5  20
ATOM     20  C   UNL     1      32.837 -24.555 -13.503  0.00  0.00    +0.169 C 
BRANCH  20  21
ATOM     21  O   UNL     1      33.776 -23.668 -12.923  0.00  0.00    -0.379 OA
ATOM     22  H   UNL     1      33.538 -22.754 -13.143  0.00  0.00    +0.211 HD
ENDBRANCH  20  21
ENDBRANCH   5  20
TORSDOF 11
ENDMDL
MODEL 9
REMARK VINA RESULT:      -6.9      8.406     12.361
REMARK  Name = 447027
REMARK  11 active torsions:
REMARK  status: ('A' for Active; 'I' for Inactive)
REMARK    1  A    between atoms: C_2  and  O_7
REMARK    2  A    between atoms: C_3  and  O_9
REMARK    3  A    between atoms: C_4  and  O_11
REMARK    4  A    between atoms: C_5  and  C_20
REMARK    5  A    between atoms: C_6  and  O_13
REMARK    6  A    between atoms: O_13  and  C_14
REMARK    7  A    between atoms: C_14  and  C_15
REMARK    8  A    between atoms: C_15  and  C_16
REMARK    9  A    between atoms: C_16  and  C_17
REMARK   10  A    between atoms: C_17  and  C_18
REMARK   11  A    between atoms: C_20  and  O_21
REMARK                            x       y       z     vdW  Elec       q    Type
REMARK                         _______ _______ _______ _____ _____    ______ ____
ROOT
ATOM      1  O   UNL     1      34.293 -15.329 -24.333  0.00  0.00    -0.326 OA
ATOM      2  C   UNL     1      32.699 -14.363 -22.154  0.00  0.00    +0.172 C 
ATOM      3  C   UNL     1      32.698 -13.685 -23.525  0.00  0.00    +0.169 C 
ATOM      4  C   UNL     1      34.000 -15.129 -21.920  0.00  0.00    +0.196 C 
ATOM      5  C   UNL     1      33.028 -14.714 -24.611  0.00  0.00    +0.176 C 
ATOM      6  C   UNL     1      34.304 -16.052 -23.102  0.00  0.00    +0.266 C 
ENDROOT
BRANCH   2   7
ATOM      7  O   UNL     1      32.537 -13.389 -21.126  0.00  0.00    -0.379 OA
ATOM      8  H   UNL     1      33.408 -13.138 -20.779  0.00  0.00    +0.211 HD
ENDBRANCH   2   7
BRANCH   3   9
ATOM      9  O   UNL     1      33.683 -12.651 -23.549  0.00  0.00    -0.379 OA
ATOM     10  H   UNL     1      34.568 -13.047 -23.545  0.00  0.00    +0.211 HD
ENDBRANCH   3   9
BRANCH   4  11
ATOM     11  O   UNL     1      33.871 -15.927 -20.744  0.00  0.00    -0.378 OA
ATOM     12  H   UNL     1      34.712 -15.928 -20.260  0.00  0.00    +0.211 HD
ENDBRANCH   4  11
BRANCH   6  13
ATOM     13  O   UNL     1      35.595 -16.623 -22.891  0.00  0.00    -0.329 OA
BRANCH  13  14
ATOM     14  C   UNL     1      35.540 -18.041 -22.905  0.00  0.00    +0.145 C 
BRANCH  14  15
ATOM     15  C   UNL     1      36.182 -18.571 -21.629  0.00  0.00    +0.032 C 
BRANCH  15  16
ATOM     16  C   UNL     1      35.270 -19.569 -20.916  0.00  0.00    +0.003 C 
BRANCH  16  17
ATOM     17  C   UNL     1      33.801 -19.459 -21.333  0.00  0.00    +0.000 C 
BRANCH  17  18
ATOM     18  C   UNL     1      32.845 -20.189 -20.389  0.00  0.00    +0.000 C 
ATOM     19  C   UNL     1      33.556 -21.300 -19.630  0.00  0.00    +0.000 C 
ENDBRANCH  17  18
ENDBRANCH  16  17
ENDBRANCH  15  16
ENDBRANCH  14  15
ENDBRANCH  13  14
ENDBRANCH   6  13
BRANCH   5  20
ATOM     20  C   UNL     1      33.124 -14.086 -25.996  0.00  0.00    +0.169 C 
BRANCH  20  21
ATOM     21  O   UNL     1      33.555 -15.075 -26.913  0.00  0.00    -0.379 OA
ATOM     22  H   UNL     1      34.042 -14.654 -27.639  0.00  0.00    +0.211 HD
ENDBRANCH  20  21
ENDBRANCH   5  20
TORSDOF 11
ENDMDL
