MODEL 1
REMARK VINA RESULT:      -9.9      0.000      0.000
REMARK  Name = 49867153
REMARK  6 active torsions:
REMARK  status: ('A' for Active; 'I' for Inactive)
REMARK    1  A    between atoms: C_2  and  O_19
REMARK    2  A    between atoms: C_3  and  O_21
REMARK    3  A    between atoms: C_4  and  O_23
REMARK    4  A    between atoms: C_5  and  C_9
REMARK    5  A    between atoms: C_6  and  C_25
REMARK    6  A    between atoms: C_25  and  O_26
REMARK                            x       y       z     vdW  Elec       q    Type
REMARK                         _______ _______ _______ _____ _____    ______ ____
ROOT
ATOM      1  O   UNL     1      31.354 -22.878 -16.709  0.00  0.00    -0.348 OA
ATOM      2  C   UNL     1      32.592 -24.015 -14.375  0.00  0.00    +0.169 C 
ATOM      3  C   UNL     1      33.417 -23.380 -15.497  0.00  0.00    +0.170 C 
ATOM      4  C   UNL     1      31.157 -23.484 -14.370  0.00  0.00    +0.169 C 
ATOM      5  C   UNL     1      32.664 -23.442 -16.836  0.00  0.00    +0.181 C 
ATOM      6  C   UNL     1      30.539 -23.576 -15.766  0.00  0.00    +0.174 C 
ENDROOT
BRANCH   5   9
ATOM      7  N   UNL     1      32.632 -21.859 -18.749  0.00  0.00    -0.316 N 
ATOM      8  N   UNL     1      34.639 -22.536 -18.072  0.00  0.00    -0.316 N 
ATOM      9  C   UNL     1      33.343 -22.627 -17.870  0.00  0.00    +0.174 C 
ATOM     10  C   UNL     1      33.529 -21.229 -19.573  0.00  0.00    +0.059 C 
ATOM     11  C   UNL     1      34.773 -21.668 -19.132  0.00  0.00    +0.059 C 
ATOM     12  C   UNL     1      33.362 -20.339 -20.636  0.00  0.00    +0.011 C 
ATOM     13  C   UNL     1      35.932 -21.202 -19.776  0.00  0.00    +0.015 C 
ATOM     14  C   UNL     1      34.526 -19.887 -21.266  0.00  0.00    -0.021 C 
ATOM     15  C   UNL     1      35.790 -20.309 -20.845  0.00  0.00    -0.003 C 
ATOM     16  C   UNL     1      34.414 -18.933 -22.409  0.00  0.00    +0.031 C 
ATOM     17  H   UNL     1      31.652 -21.772 -18.783  0.00  0.00    +0.148 HD
ATOM     18  H   UNL     1      35.356 -22.990 -17.575  0.00  0.00    +0.148 HD
ENDBRANCH   5   9
BRANCH   2  19
ATOM     19  O   UNL     1      33.215 -23.701 -13.128  0.00  0.00    -0.379 OA
ATOM     20  H   UNL     1      34.041 -23.221 -13.293  0.00  0.00    +0.211 HD
ENDBRANCH   2  19
BRANCH   3  21
ATOM     21  O   UNL     1      34.648 -24.090 -15.625  0.00  0.00    -0.379 OA
ATOM     22  H   UNL     1      35.248 -23.595 -16.204  0.00  0.00    +0.211 HD
ENDBRANCH   3  21
BRANCH   4  23
ATOM     23  O   UNL     1      30.405 -24.259 -13.441  0.00  0.00    -0.379 OA
ATOM     24  H   UNL     1      29.462 -24.198 -13.656  0.00  0.00    +0.211 HD
ENDBRANCH   4  23
BRANCH   6  25
ATOM     25  C   UNL     1      29.149 -22.954 -15.826  0.00  0.00    +0.169 C 
BRANCH  25  26
ATOM     26  O   UNL     1      28.995 -22.310 -17.077  0.00  0.00    -0.379 OA
ATOM     27  H   UNL     1      29.673 -21.621 -17.172  0.00  0.00    +0.211 HD
ENDBRANCH  25  26
ENDBRANCH   6  25
TORSDOF 6
ENDMDL
MODEL 2
REMARK VINA RESULT:      -9.7      1.251      1.952
REMARK  Name = 49867153
REMARK  6 active torsions:
REMARK  status: ('A' for Active; 'I' for Inactive)
REMARK    1  A    between atoms: C_2  and  O_19
REMARK    2  A    between atoms: C_3  and  O_21
REMARK    3  A    between atoms: C_4  and  O_23
REMARK    4  A    between atoms: C_5  and  C_9
REMARK    5  A    between atoms: C_6  and  C_25
REMARK    6  A    between atoms: C_25  and  O_26
REMARK                            x       y       z     vdW  Elec       q    Type
REMARK                         _______ _______ _______ _____ _____    ______ ____
ROOT
ATOM      1  O   UNL     1      32.168 -23.456 -16.494  0.00  0.00    -0.348 OA
ATOM      2  C   UNL     1      34.186 -24.109 -14.551  0.00  0.00    +0.169 C 
ATOM      3  C   UNL     1      34.496 -23.248 -15.778  0.00  0.00    +0.170 C 
ATOM      4  C   UNL     1      32.695 -24.076 -14.211  0.00  0.00    +0.169 C 
ATOM      5  C   UNL     1      33.527 -23.561 -16.930  0.00  0.00    +0.181 C 
ATOM      6  C   UNL     1      31.848 -24.375 -15.449  0.00  0.00    +0.174 C 
ENDROOT
BRANCH   5   9
ATOM      7  N   UNL     1      34.894 -22.189 -18.483  0.00  0.00    -0.316 N 
ATOM      8  N   UNL     1      32.689 -21.980 -18.675  0.00  0.00    -0.316 N 
ATOM      9  C   UNL     1      33.665 -22.577 -18.028  0.00  0.00    +0.174 C 
ATOM     10  C   UNL     1      34.698 -21.281 -19.492  0.00  0.00    +0.059 C 
ATOM     11  C   UNL     1      33.314 -21.167 -19.593  0.00  0.00    +0.059 C 
ATOM     12  C   UNL     1      35.586 -20.570 -20.301  0.00  0.00    +0.011 C 
ATOM     13  C   UNL     1      32.766 -20.298 -20.551  0.00  0.00    +0.015 C 
ATOM     14  C   UNL     1      35.023 -19.709 -21.249  0.00  0.00    -0.021 C 
ATOM     15  C   UNL     1      33.638 -19.575 -21.374  0.00  0.00    -0.003 C 
ATOM     16  C   UNL     1      35.921 -18.922 -22.145  0.00  0.00    +0.031 C 
ATOM     17  H   UNL     1      35.763 -22.505 -18.148  0.00  0.00    +0.148 HD
ATOM     18  H   UNL     1      31.721 -22.091 -18.534  0.00  0.00    +0.148 HD
ENDBRANCH   5   9
BRANCH   2  19
ATOM     19  O   UNL     1      34.934 -23.600 -13.446  0.00  0.00    -0.379 OA
ATOM     20  H   UNL     1      34.808 -22.640 -13.385  0.00  0.00    +0.211 HD
ENDBRANCH   2  19
BRANCH   3  21
ATOM     21  O   UNL     1      35.830 -23.517 -16.208  0.00  0.00    -0.379 OA
ATOM     22  H   UNL     1      36.440 -22.904 -15.770  0.00  0.00    +0.211 HD
ENDBRANCH   3  21
BRANCH   4  23
ATOM     23  O   UNL     1      32.455 -25.048 -13.196  0.00  0.00    -0.379 OA
ATOM     24  H   UNL     1      31.518 -25.297 -13.202  0.00  0.00    +0.211 HD
ENDBRANCH   4  23
BRANCH   6  25
ATOM     25  C   UNL     1      30.354 -24.242 -15.173  0.00  0.00    +0.169 C 
BRANCH  25  26
ATOM     26  O   UNL     1      29.922 -25.389 -14.466  0.00  0.00    -0.379 OA
ATOM     27  H   UNL     1      29.016 -25.250 -14.147  0.00  0.00    +0.211 HD
ENDBRANCH  25  26
ENDBRANCH   6  25
TORSDOF 6
ENDMDL
MODEL 3
REMARK VINA RESULT:      -9.6      3.458      5.211
REMARK  Name = 49867153
REMARK  6 active torsions:
REMARK  status: ('A' for Active; 'I' for Inactive)
REMARK    1  A    between atoms: C_2  and  O_19
REMARK    2  A    between atoms: C_3  and  O_21
REMARK    3  A    between atoms: C_4  and  O_23
REMARK    4  A    between atoms: C_5  and  C_9
REMARK    5  A    between atoms: C_6  and  C_25
REMARK    6  A    between atoms: C_25  and  O_26
REMARK                            x       y       z     vdW  Elec       q    Type
REMARK                         _______ _______ _______ _____ _____    ______ ____
ROOT
ATOM      1  O   UNL     1      36.236 -23.432 -13.886  0.00  0.00    -0.348 OA
ATOM      2  C   UNL     1      37.181 -26.147 -13.825  0.00  0.00    +0.169 C 
ATOM      3  C   UNL     1      36.622 -25.517 -15.103  0.00  0.00    +0.170 C 
ATOM      4  C   UNL     1      37.679 -25.080 -12.849  0.00  0.00    +0.169 C 
ATOM      5  C   UNL     1      35.637 -24.384 -14.772  0.00  0.00    +0.181 C 
ATOM      6  C   UNL     1      36.615 -24.003 -12.633  0.00  0.00    +0.174 C 
ENDROOT
BRANCH   5   9
ATOM      7  N   UNL     1      36.202 -22.866 -16.653  0.00  0.00    -0.316 N 
ATOM      8  N   UNL     1      34.091 -23.557 -16.554  0.00  0.00    -0.316 N 
ATOM      9  C   UNL     1      35.275 -23.617 -15.986  0.00  0.00    +0.174 C 
ATOM     10  C   UNL     1      35.574 -22.282 -17.724  0.00  0.00    +0.059 C 
ATOM     11  C   UNL     1      34.258 -22.728 -17.640  0.00  0.00    +0.059 C 
ATOM     12  C   UNL     1      36.031 -21.427 -18.728  0.00  0.00    +0.011 C 
ATOM     13  C   UNL     1      33.329 -22.307 -18.606  0.00  0.00    +0.015 C 
ATOM     14  C   UNL     1      35.092 -21.018 -19.681  0.00  0.00    -0.021 C 
ATOM     15  C   UNL     1      33.765 -21.449 -19.623  0.00  0.00    -0.003 C 
ATOM     16  C   UNL     1      35.520 -20.104 -20.782  0.00  0.00    +0.031 C 
ATOM     17  H   UNL     1      37.150 -22.763 -16.410  0.00  0.00    +0.148 HD
ATOM     18  H   UNL     1      33.265 -24.006 -16.264  0.00  0.00    +0.148 HD
ENDBRANCH   5   9
BRANCH   2  19
ATOM     19  O   UNL     1      38.268 -27.002 -14.186  0.00  0.00    -0.379 OA
ATOM     20  H   UNL     1      39.052 -26.463 -14.375  0.00  0.00    +0.211 HD
ENDBRANCH   2  19
BRANCH   3  21
ATOM     21  O   UNL     1      35.940 -26.520 -15.855  0.00  0.00    -0.379 OA
ATOM     22  H   UNL     1      36.583 -27.034 -16.366  0.00  0.00    +0.211 HD
ENDBRANCH   3  21
BRANCH   4  23
ATOM     23  O   UNL     1      37.993 -25.724 -11.617  0.00  0.00    -0.379 OA
ATOM     24  H   UNL     1      37.867 -25.101 -10.885  0.00  0.00    +0.211 HD
ENDBRANCH   4  23
BRANCH   6  25
ATOM     25  C   UNL     1      37.117 -22.863 -11.753  0.00  0.00    +0.169 C 
BRANCH  25  26
ATOM     26  O   UNL     1      38.526 -22.958 -11.652  0.00  0.00    -0.379 OA
ATOM     27  H   UNL     1      38.898 -22.078 -11.476  0.00  0.00    +0.211 HD
ENDBRANCH  25  26
ENDBRANCH   6  25
TORSDOF 6
ENDMDL
MODEL 4
REMARK VINA RESULT:      -9.5      4.654      6.877
REMARK  Name = 49867153
REMARK  6 active torsions:
REMARK  status: ('A' for Active; 'I' for Inactive)
REMARK    1  A    between atoms: C_2  and  O_19
REMARK    2  A    between atoms: C_3  and  O_21
REMARK    3  A    between atoms: C_4  and  O_23
REMARK    4  A    between atoms: C_5  and  C_9
REMARK    5  A    between atoms: C_6  and  C_25
REMARK    6  A    between atoms: C_25  and  O_26
REMARK                            x       y       z     vdW  Elec       q    Type
REMARK                         _______ _______ _______ _____ _____    ______ ____
ROOT
ATOM      1  O   UNL     1      35.668 -23.540 -14.581  0.00  0.00    -0.348 OA
ATOM      2  C   UNL     1      36.928 -24.903 -12.384  0.00  0.00    +0.169 C 
ATOM      3  C   UNL     1      35.417 -24.971 -12.616  0.00  0.00    +0.170 C 
ATOM      4  C   UNL     1      37.673 -24.555 -13.674  0.00  0.00    +0.169 C 
ATOM      5  C   UNL     1      34.919 -23.731 -13.376  0.00  0.00    +0.181 C 
ATOM      6  C   UNL     1      37.059 -23.324 -14.341  0.00  0.00    +0.174 C 
ENDROOT
BRANCH   5   9
ATOM      7  N   UNL     1      32.806 -22.856 -14.342  0.00  0.00    -0.316 N 
ATOM      8  N   UNL     1      32.796 -24.998 -13.747  0.00  0.00    -0.316 N 
ATOM      9  C   UNL     1      33.513 -23.898 -13.810  0.00  0.00    +0.174 C 
ATOM     10  C   UNL     1      31.550 -23.315 -14.644  0.00  0.00    +0.059 C 
ATOM     11  C   UNL     1      31.568 -24.653 -14.263  0.00  0.00    +0.059 C 
ATOM     12  C   UNL     1      30.432 -22.691 -15.201  0.00  0.00    +0.011 C 
ATOM     13  C   UNL     1      30.412 -25.432 -14.441  0.00  0.00    +0.015 C 
ATOM     14  C   UNL     1      29.290 -23.481 -15.370  0.00  0.00    -0.021 C 
ATOM     15  C   UNL     1      29.278 -24.828 -14.997  0.00  0.00    -0.003 C 
ATOM     16  C   UNL     1      28.061 -22.873 -15.962  0.00  0.00    +0.031 C 
ATOM     17  H   UNL     1      33.140 -21.941 -14.485  0.00  0.00    +0.148 HD
ATOM     18  H   UNL     1      33.077 -25.877 -13.404  0.00  0.00    +0.148 HD
ENDBRANCH   5   9
BRANCH   2  19
ATOM     19  O   UNL     1      37.368 -26.178 -11.914  0.00  0.00    -0.379 OA
ATOM     20  H   UNL     1      37.674 -26.096 -10.998  0.00  0.00    +0.211 HD
ENDBRANCH   2  19
BRANCH   3  21
ATOM     21  O   UNL     1      34.757 -25.036 -11.352  0.00  0.00    -0.379 OA
ATOM     22  H   UNL     1      33.848 -25.351 -11.477  0.00  0.00    +0.211 HD
ENDBRANCH   3  21
BRANCH   4  23
ATOM     23  O   UNL     1      39.038 -24.313 -13.341  0.00  0.00    -0.379 OA
ATOM     24  H   UNL     1      39.309 -24.913 -12.630  0.00  0.00    +0.211 HD
ENDBRANCH   4  23
BRANCH   6  25
ATOM     25  C   UNL     1      37.705 -23.013 -15.687  0.00  0.00    +0.169 C 
BRANCH  25  26
ATOM     26  O   UNL     1      38.864 -23.813 -15.827  0.00  0.00    -0.379 OA
ATOM     27  H   UNL     1      38.832 -24.284 -16.675  0.00  0.00    +0.211 HD
ENDBRANCH  25  26
ENDBRANCH   6  25
TORSDOF 6
ENDMDL
MODEL 5
REMARK VINA RESULT:      -9.4      6.198      9.458
REMARK  Name = 49867153
REMARK  6 active torsions:
REMARK  status: ('A' for Active; 'I' for Inactive)
REMARK    1  A    between atoms: C_2  and  O_19
REMARK    2  A    between atoms: C_3  and  O_21
REMARK    3  A    between atoms: C_4  and  O_23
REMARK    4  A    between atoms: C_5  and  C_9
REMARK    5  A    between atoms: C_6  and  C_25
REMARK    6  A    between atoms: C_25  and  O_26
REMARK                            x       y       z     vdW  Elec       q    Type
REMARK                         _______ _______ _______ _____ _____    ______ ____
ROOT
ATOM      1  O   UNL     1      34.194 -15.670 -22.465  0.00  0.00    -0.348 OA
ATOM      2  C   UNL     1      33.935 -15.773 -25.327  0.00  0.00    +0.169 C 
ATOM      3  C   UNL     1      34.234 -17.025 -24.499  0.00  0.00    +0.170 C 
ATOM      4  C   UNL     1      33.266 -14.691 -24.478  0.00  0.00    +0.169 C 
ATOM      5  C   UNL     1      34.940 -16.659 -23.183  0.00  0.00    +0.181 C 
ATOM      6  C   UNL     1      34.053 -14.448 -23.189  0.00  0.00    +0.174 C 
ENDROOT
BRANCH   5   9
ATOM      7  N   UNL     1      33.892 -18.446 -21.814  0.00  0.00    -0.316 N 
ATOM      8  N   UNL     1      36.114 -18.394 -21.819  0.00  0.00    -0.316 N 
ATOM      9  C   UNL     1      35.020 -17.827 -22.276  0.00  0.00    +0.174 C 
ATOM     10  C   UNL     1      34.285 -19.482 -21.006  0.00  0.00    +0.059 C 
ATOM     11  C   UNL     1      35.675 -19.428 -21.025  0.00  0.00    +0.059 C 
ATOM     12  C   UNL     1      33.563 -20.433 -20.282  0.00  0.00    +0.011 C 
ATOM     13  C   UNL     1      36.407 -20.371 -20.283  0.00  0.00    +0.015 C 
ATOM     14  C   UNL     1      34.308 -21.362 -19.548  0.00  0.00    -0.021 C 
ATOM     15  C   UNL     1      35.705 -21.334 -19.548  0.00  0.00    -0.003 C 
ATOM     16  C   UNL     1      33.595 -22.406 -18.753  0.00  0.00    +0.031 C 
ATOM     17  H   UNL     1      32.964 -18.194 -22.025  0.00  0.00    +0.148 HD
ATOM     18  H   UNL     1      37.045 -18.134 -22.005  0.00  0.00    +0.148 HD
ENDBRANCH   5   9
BRANCH   2  19
ATOM     19  O   UNL     1      33.062 -16.141 -26.396  0.00  0.00    -0.379 OA
ATOM     20  H   UNL     1      33.119 -15.479 -27.102  0.00  0.00    +0.211 HD
ENDBRANCH   2  19
BRANCH   3  21
ATOM     21  O   UNL     1      35.082 -17.889 -25.255  0.00  0.00    -0.379 OA
ATOM     22  H   UNL     1      35.185 -17.536 -26.153  0.00  0.00    +0.211 HD
ENDBRANCH   3  21
BRANCH   4  23
ATOM     23  O   UNL     1      33.204 -13.498 -25.256  0.00  0.00    -0.379 OA
ATOM     24  H   UNL     1      32.288 -13.337 -25.529  0.00  0.00    +0.211 HD
ENDBRANCH   4  23
BRANCH   6  25
ATOM     25  C   UNL     1      33.356 -13.455 -22.265  0.00  0.00    +0.169 C 
BRANCH  25  26
ATOM     26  O   UNL     1      31.980 -13.420 -22.595  0.00  0.00    -0.379 OA
ATOM     27  H   UNL     1      31.756 -14.198 -23.132  0.00  0.00    +0.211 HD
ENDBRANCH  25  26
ENDBRANCH   6  25
TORSDOF 6
ENDMDL
MODEL 6
REMARK VINA RESULT:      -9.4      4.484      6.576
REMARK  Name = 49867153
REMARK  6 active torsions:
REMARK  status: ('A' for Active; 'I' for Inactive)
REMARK    1  A    between atoms: C_2  and  O_19
REMARK    2  A    between atoms: C_3  and  O_21
REMARK    3  A    between atoms: C_4  and  O_23
REMARK    4  A    between atoms: C_5  and  C_9
REMARK    5  A    between atoms: C_6  and  C_25
REMARK    6  A    between atoms: C_25  and  O_26
REMARK                            x       y       z     vdW  Elec       q    Type
REMARK                         _______ _______ _______ _____ _____    ______ ____
ROOT
ATOM      1  O   UNL     1      34.648 -24.134 -12.535  0.00  0.00    -0.348 OA
ATOM      2  C   UNL     1      36.934 -23.633 -14.206  0.00  0.00    +0.169 C 
ATOM      3  C   UNL     1      35.516 -23.705 -14.779  0.00  0.00    +0.170 C 
ATOM      4  C   UNL     1      36.916 -23.296 -12.715  0.00  0.00    +0.169 C 
ATOM      5  C   UNL     1      34.609 -24.577 -13.895  0.00  0.00    +0.181 C 
ATOM      6  C   UNL     1      35.954 -24.217 -11.962  0.00  0.00    +0.174 C 
ENDROOT
BRANCH   5   9
ATOM      7  N   UNL     1      32.788 -23.514 -15.206  0.00  0.00    -0.316 N 
ATOM      8  N   UNL     1      32.189 -25.204 -13.890  0.00  0.00    -0.316 N 
ATOM      9  C   UNL     1      33.191 -24.461 -14.306  0.00  0.00    +0.174 C 
ATOM     10  C   UNL     1      31.435 -23.656 -15.383  0.00  0.00    +0.059 C 
ATOM     11  C   UNL     1      31.085 -24.715 -14.551  0.00  0.00    +0.059 C 
ATOM     12  C   UNL     1      30.515 -22.968 -16.176  0.00  0.00    +0.011 C 
ATOM     13  C   UNL     1      29.743 -25.128 -14.494  0.00  0.00    +0.015 C 
ATOM     14  C   UNL     1      29.183 -23.391 -16.105  0.00  0.00    -0.021 C 
ATOM     15  C   UNL     1      28.802 -24.452 -15.280  0.00  0.00    -0.003 C 
ATOM     16  C   UNL     1      28.152 -22.695 -16.931  0.00  0.00    +0.031 C 
ATOM     17  H   UNL     1      33.364 -22.851 -15.648  0.00  0.00    +0.148 HD
ATOM     18  H   UNL     1      32.222 -25.946 -13.245  0.00  0.00    +0.148 HD
ENDBRANCH   5   9
BRANCH   2  19
ATOM     19  O   UNL     1      37.651 -22.618 -14.911  0.00  0.00    -0.379 OA
ATOM     20  H   UNL     1      37.170 -21.779 -14.845  0.00  0.00    +0.211 HD
ENDBRANCH   2  19
BRANCH   3  21
ATOM     21  O   UNL     1      35.573 -24.273 -16.087  0.00  0.00    -0.379 OA
ATOM     22  H   UNL     1      35.995 -25.145 -16.044  0.00  0.00    +0.211 HD
ENDBRANCH   3  21
BRANCH   4  23
ATOM     23  O   UNL     1      38.241 -23.445 -12.215  0.00  0.00    -0.379 OA
ATOM     24  H   UNL     1      38.434 -24.386 -12.084  0.00  0.00    +0.211 HD
ENDBRANCH   4  23
BRANCH   6  25
ATOM     25  C   UNL     1      35.824 -23.838 -10.491  0.00  0.00    +0.169 C 
BRANCH  25  26
ATOM     26  O   UNL     1      35.297 -24.947  -9.784  0.00  0.00    -0.379 OA
ATOM     27  H   UNL     1      34.544 -25.314 -10.274  0.00  0.00    +0.211 HD
ENDBRANCH  25  26
ENDBRANCH   6  25
TORSDOF 6
ENDMDL
MODEL 7
REMARK VINA RESULT:      -9.3      8.724     11.849
REMARK  Name = 49867153
REMARK  6 active torsions:
REMARK  status: ('A' for Active; 'I' for Inactive)
REMARK    1  A    between atoms: C_2  and  O_19
REMARK    2  A    between atoms: C_3  and  O_21
REMARK    3  A    between atoms: C_4  and  O_23
REMARK    4  A    between atoms: C_5  and  C_9
REMARK    5  A    between atoms: C_6  and  C_25
REMARK    6  A    between atoms: C_25  and  O_26
REMARK                            x       y       z     vdW  Elec       q    Type
REMARK                         _______ _______ _______ _____ _____    ______ ____
ROOT
ATOM      1  O   UNL     1      34.021 -14.764 -22.370  0.00  0.00    -0.348 OA
ATOM      2  C   UNL     1      34.018 -16.350 -24.769  0.00  0.00    +0.169 C 
ATOM      3  C   UNL     1      33.794 -14.837 -24.803  0.00  0.00    +0.170 C 
ATOM      4  C   UNL     1      34.764 -16.774 -23.503  0.00  0.00    +0.169 C 
ATOM      5  C   UNL     1      33.211 -14.337 -23.471  0.00  0.00    +0.181 C 
ATOM      6  C   UNL     1      34.098 -16.185 -22.257  0.00  0.00    +0.174 C 
ENDROOT
BRANCH   5   9
ATOM      7  N   UNL     1      34.160 -12.119 -24.061  0.00  0.00    -0.316 N 
ATOM      8  N   UNL     1      32.358 -12.097 -22.759  0.00  0.00    -0.316 N 
ATOM      9  C   UNL     1      33.212 -12.857 -23.408  0.00  0.00    +0.174 C 
ATOM     10  C   UNL     1      33.899 -10.795 -23.817  0.00  0.00    +0.059 C 
ATOM     11  C   UNL     1      32.772 -10.807 -23.003  0.00  0.00    +0.059 C 
ATOM     12  C   UNL     1      34.536  -9.622 -24.228  0.00  0.00    +0.011 C 
ATOM     13  C   UNL     1      32.231  -9.588 -22.562  0.00  0.00    +0.015 C 
ATOM     14  C   UNL     1      33.986  -8.417 -23.778  0.00  0.00    -0.021 C 
ATOM     15  C   UNL     1      32.853  -8.398 -22.960  0.00  0.00    -0.003 C 
ATOM     16  C   UNL     1      34.620  -7.128 -24.184  0.00  0.00    +0.031 C 
ATOM     17  H   UNL     1      34.896 -12.475 -24.608  0.00  0.00    +0.148 HD
ATOM     18  H   UNL     1      31.591 -12.388 -22.216  0.00  0.00    +0.148 HD
ENDBRANCH   5   9
BRANCH   2  19
ATOM     19  O   UNL     1      34.790 -16.714 -25.915  0.00  0.00    -0.379 OA
ATOM     20  H   UNL     1      34.866 -15.951 -26.508  0.00  0.00    +0.211 HD
ENDBRANCH   2  19
BRANCH   3  21
ATOM     21  O   UNL     1      32.879 -14.527 -25.854  0.00  0.00    -0.379 OA
ATOM     22  H   UNL     1      33.114 -15.034 -26.647  0.00  0.00    +0.211 HD
ENDBRANCH   3  21
BRANCH   4  23
ATOM     23  O   UNL     1      34.757 -18.198 -23.445  0.00  0.00    -0.379 OA
ATOM     24  H   UNL     1      35.012 -18.558 -24.308  0.00  0.00    +0.211 HD
ENDBRANCH   4  23
BRANCH   6  25
ATOM     25  C   UNL     1      34.877 -16.494 -20.984  0.00  0.00    +0.169 C 
BRANCH  25  26
ATOM     26  O   UNL     1      34.898 -15.333 -20.175  0.00  0.00    -0.379 OA
ATOM     27  H   UNL     1      34.038 -15.229 -19.736  0.00  0.00    +0.211 HD
ENDBRANCH  25  26
ENDBRANCH   6  25
TORSDOF 6
ENDMDL
MODEL 8
REMARK VINA RESULT:      -9.1      3.714      5.730
REMARK  Name = 49867153
REMARK  6 active torsions:
REMARK  status: ('A' for Active; 'I' for Inactive)
REMARK    1  A    between atoms: C_2  and  O_19
REMARK    2  A    between atoms: C_3  and  O_21
REMARK    3  A    between atoms: C_4  and  O_23
REMARK    4  A    between atoms: C_5  and  C_9
REMARK    5  A    between atoms: C_6  and  C_25
REMARK    6  A    between atoms: C_25  and  O_26
REMARK                            x       y       z     vdW  Elec       q    Type
REMARK                         _______ _______ _______ _____ _____    ______ ____
ROOT
ATOM      1  O   UNL     1      38.075 -24.296 -15.414  0.00  0.00    -0.348 OA
ATOM      2  C   UNL     1      36.838 -24.786 -12.865  0.00  0.00    +0.169 C 
ATOM      3  C   UNL     1      36.106 -24.048 -13.988  0.00  0.00    +0.170 C 
ATOM      4  C   UNL     1      37.962 -25.664 -13.416  0.00  0.00    +0.169 C 
ATOM      5  C   UNL     1      37.102 -23.361 -14.936  0.00  0.00    +0.181 C 
ATOM      6  C   UNL     1      38.859 -24.866 -14.366  0.00  0.00    +0.174 C 
ENDROOT
BRANCH   5   9
ATOM      7  N   UNL     1      37.079 -22.062 -17.052  0.00  0.00    -0.316 N 
ATOM      8  N   UNL     1      35.173 -23.065 -16.498  0.00  0.00    -0.316 N 
ATOM      9  C   UNL     1      36.421 -22.849 -16.148  0.00  0.00    +0.174 C 
ATOM     10  C   UNL     1      36.195 -21.751 -18.054  0.00  0.00    +0.059 C 
ATOM     11  C   UNL     1      35.014 -22.387 -17.686  0.00  0.00    +0.059 C 
ATOM     12  C   UNL     1      36.326 -20.989 -19.216  0.00  0.00    +0.011 C 
ATOM     13  C   UNL     1      33.885 -22.268 -18.513  0.00  0.00    +0.015 C 
ATOM     14  C   UNL     1      35.191 -20.880 -20.028  0.00  0.00    -0.021 C 
ATOM     15  C   UNL     1      33.991 -21.508 -19.685  0.00  0.00    -0.003 C 
ATOM     16  C   UNL     1      35.267 -20.079 -21.286  0.00  0.00    +0.031 C 
ATOM     17  H   UNL     1      38.017 -21.773 -16.995  0.00  0.00    +0.148 HD
ATOM     18  H   UNL     1      34.499 -23.595 -16.016  0.00  0.00    +0.148 HD
ENDBRANCH   5   9
BRANCH   2  19
ATOM     19  O   UNL     1      35.892 -25.607 -12.177  0.00  0.00    -0.379 OA
ATOM     20  H   UNL     1      36.277 -26.484 -12.025  0.00  0.00    +0.211 HD
ENDBRANCH   2  19
BRANCH   3  21
ATOM     21  O   UNL     1      35.255 -23.056 -13.413  0.00  0.00    -0.379 OA
ATOM     22  H   UNL     1      34.434 -23.473 -13.109  0.00  0.00    +0.211 HD
ENDBRANCH   3  21
BRANCH   4  23
ATOM     23  O   UNL     1      38.719 -26.154 -12.313  0.00  0.00    -0.379 OA
ATOM     24  H   UNL     1      39.040 -27.047 -12.512  0.00  0.00    +0.211 HD
ENDBRANCH   4  23
BRANCH   6  25
ATOM     25  C   UNL     1      39.925 -25.736 -15.022  0.00  0.00    +0.169 C 
BRANCH  25  26
ATOM     26  O   UNL     1      40.816 -26.191 -14.020  0.00  0.00    -0.379 OA
ATOM     27  H   UNL     1      40.953 -25.487 -13.365  0.00  0.00    +0.211 HD
ENDBRANCH  25  26
ENDBRANCH   6  25
TORSDOF 6
ENDMDL
MODEL 9
REMARK VINA RESULT:      -9.0      4.230      6.628
REMARK  Name = 49867153
REMARK  6 active torsions:
REMARK  status: ('A' for Active; 'I' for Inactive)
REMARK    1  A    between atoms: C_2  and  O_19
REMARK    2  A    between atoms: C_3  and  O_21
REMARK    3  A    between atoms: C_4  and  O_23
REMARK    4  A    between atoms: C_5  and  C_9
REMARK    5  A    between atoms: C_6  and  C_25
REMARK    6  A    between atoms: C_25  and  O_26
REMARK                            x       y       z     vdW  Elec       q    Type
REMARK                         _______ _______ _______ _____ _____    ______ ____
ROOT
ATOM      1  O   UNL     1      35.645 -23.703 -13.093  0.00  0.00    -0.348 OA
ATOM      2  C   UNL     1      37.635 -25.313 -14.404  0.00  0.00    +0.169 C 
ATOM      3  C   UNL     1      36.258 -25.069 -15.025  0.00  0.00    +0.170 C 
ATOM      4  C   UNL     1      37.994 -24.219 -13.398  0.00  0.00    +0.169 C 
ATOM      5  C   UNL     1      35.210 -24.771 -13.941  0.00  0.00    +0.181 C 
ATOM      6  C   UNL     1      36.856 -24.005 -12.399  0.00  0.00    +0.174 C 
ENDROOT
BRANCH   5   9
ATOM      7  N   UNL     1      32.744 -24.484 -13.901  0.00  0.00    -0.316 N 
ATOM      8  N   UNL     1      33.792 -23.690 -15.694  0.00  0.00    -0.316 N 
ATOM      9  C   UNL     1      33.938 -24.303 -14.540  0.00  0.00    +0.174 C 
ATOM     10  C   UNL     1      31.761 -23.951 -14.694  0.00  0.00    +0.059 C 
ATOM     11  C   UNL     1      32.439 -23.463 -15.806  0.00  0.00    +0.059 C 
ATOM     12  C   UNL     1      30.376 -23.858 -14.538  0.00  0.00    +0.011 C 
ATOM     13  C   UNL     1      31.711 -22.841 -16.834  0.00  0.00    +0.015 C 
ATOM     14  C   UNL     1      29.667 -23.236 -15.572  0.00  0.00    -0.021 C 
ATOM     15  C   UNL     1      30.321 -22.736 -16.700  0.00  0.00    -0.003 C 
ATOM     16  C   UNL     1      28.184 -23.105 -15.463  0.00  0.00    +0.031 C 
ATOM     17  H   UNL     1      32.613 -24.918 -13.027  0.00  0.00    +0.148 HD
ATOM     18  H   UNL     1      34.496 -23.447 -16.336  0.00  0.00    +0.148 HD
ENDBRANCH   5   9
BRANCH   2  19
ATOM     19  O   UNL     1      38.605 -25.326 -15.454  0.00  0.00    -0.379 OA
ATOM     20  H   UNL     1      39.194 -26.087 -15.339  0.00  0.00    +0.211 HD
ENDBRANCH   2  19
BRANCH   3  21
ATOM     21  O   UNL     1      35.861 -26.235 -15.746  0.00  0.00    -0.379 OA
ATOM     22  H   UNL     1      35.936 -27.012 -15.170  0.00  0.00    +0.211 HD
ENDBRANCH   3  21
BRANCH   4  23
ATOM     23  O   UNL     1      39.183 -24.617 -12.721  0.00  0.00    -0.379 OA
ATOM     24  H   UNL     1      39.540 -25.417 -13.136  0.00  0.00    +0.211 HD
ENDBRANCH   4  23
BRANCH   6  25
ATOM     25  C   UNL     1      37.131 -22.845 -11.448  0.00  0.00    +0.169 C 
BRANCH  25  26
ATOM     26  O   UNL     1      38.290 -22.163 -11.892  0.00  0.00    -0.379 OA
ATOM     27  H   UNL     1      39.045 -22.773 -11.889  0.00  0.00    +0.211 HD
ENDBRANCH  25  26
ENDBRANCH   6  25
TORSDOF 6
ENDMDL
