MODEL 1
REMARK VINA RESULT:     -10.8      0.000      0.000
REMARK  Name = 16049839
REMARK  6 active torsions:
REMARK  status: ('A' for Active; 'I' for Inactive)
REMARK    1  A    between atoms: N_3  and  CA_17
REMARK    2  A    between atoms: C_7  and  C_12
REMARK    3  A    between atoms: C_11  and  C_15
REMARK    4  A    between atoms: CA_17  and  C_19
REMARK    5  A    between atoms: CA_17  and  C_26
REMARK    6  A    between atoms: C_26  and  O_27
REMARK                            x       y       z     vdW  Elec       q    Type
REMARK                         _______ _______ _______ _____ _____    ______ ____
ROOT
ATOM      1  S   UNL     1      34.506 -15.095 -22.836  0.00  0.00    -0.026 S 
ATOM      2  O   UNL     1      33.476 -16.107 -26.355  0.00  0.00    -0.209 OA
ATOM      3  N   UNL     1      33.933 -12.566 -23.379  0.00  0.00    -0.292 N 
ATOM      4  N   UNL     1      33.605 -14.172 -25.085  0.00  0.00    -0.310 NA
ATOM      5  C   UNL     1      33.952 -13.804 -23.890  0.00  0.00    +0.225 C 
ATOM      6  C   UNL     1      34.254 -16.224 -24.100  0.00  0.00    +0.131 C 
ATOM      7  C   UNL     1      34.477 -17.537 -24.035  0.00  0.00    +0.057 C 
ATOM      8  C   UNL     1      33.739 -15.530 -25.309  0.00  0.00    +0.213 C 
ATOM      9  H   UNL     1      34.242 -12.431 -22.454  0.00  0.00    +0.150 HD
ENDROOT
BRANCH   7  12
ATOM     10  O   UNL     1      34.190 -19.060 -22.168  0.00  0.00    -0.458 OA
ATOM     11  C   UNL     1      34.967 -19.530 -21.157  0.00  0.00    +0.123 C 
ATOM     12  C   UNL     1      34.973 -18.225 -22.878  0.00  0.00    +0.146 C 
ATOM     13  C   UNL     1      36.232 -18.995 -21.231  0.00  0.00    +0.036 C 
ATOM     14  C   UNL     1      36.232 -18.140 -22.360  0.00  0.00    +0.040 C 
BRANCH  11  15
ATOM     15  C   UNL     1      34.327 -20.475 -20.230  0.00  0.00    +0.065 C 
ATOM     16  C   UNL     1      32.796 -20.357 -20.219  0.00  0.00    +0.008 C 
ENDBRANCH  11  15
ENDBRANCH   7  12
BRANCH   3  17
ATOM     17  CA  UNL     1      33.476 -11.411 -24.139  0.00  0.00    +0.194 C 
BRANCH  17  19
ATOM     18  F   UNL     1      31.464  -7.358 -20.805  0.00  0.00    -0.204 F 
ATOM     19  C   UNL     1      32.942 -10.336 -23.254  0.00  0.00    +0.006 C 
ATOM     20  C   UNL     1      32.266 -10.669 -22.082  0.00  0.00    +0.000 C 
ATOM     21  C   UNL     1      33.119  -8.996 -23.600  0.00  0.00    +0.000 C 
ATOM     22  C   UNL     1      31.766  -9.664 -21.254  0.00  0.00    +0.029 C 
ATOM     23  C   UNL     1      32.619  -7.990 -22.773  0.00  0.00    +0.029 C 
ATOM     24  C   UNL     1      31.943  -8.324 -21.599  0.00  0.00    +0.140 C 
ENDBRANCH  17  19
BRANCH  17  26
ATOM     25  OXT UNL     1      34.632 -11.147 -26.245  0.00  0.00    -0.248 OA
ATOM     26  C   UNL     1      34.595 -10.911 -25.042  0.00  0.00    +0.336 C 
BRANCH  26  27
ATOM     27  O   UNL     1      35.582 -10.239 -24.403  0.00  0.00    -0.479 OA
ATOM     28  H   UNL     1      36.265  -9.828 -24.896  0.00  0.00    +0.295 HD
ENDBRANCH  26  27
ENDBRANCH  17  26
ENDBRANCH   3  17
TORSDOF 6
ENDMDL
MODEL 2
REMARK VINA RESULT:      -9.8      1.547      2.084
REMARK  Name = 16049839
REMARK  6 active torsions:
REMARK  status: ('A' for Active; 'I' for Inactive)
REMARK    1  A    between atoms: N_3  and  CA_17
REMARK    2  A    between atoms: C_7  and  C_12
REMARK    3  A    between atoms: C_11  and  C_15
REMARK    4  A    between atoms: CA_17  and  C_19
REMARK    5  A    between atoms: CA_17  and  C_26
REMARK    6  A    between atoms: C_26  and  O_27
REMARK                            x       y       z     vdW  Elec       q    Type
REMARK                         _______ _______ _______ _____ _____    ______ ____
ROOT
ATOM      1  S   UNL     1      34.233 -16.441 -21.723  0.00  0.00    -0.026 S 
ATOM      2  O   UNL     1      34.609 -16.975 -25.471  0.00  0.00    -0.209 OA
ATOM      3  N   UNL     1      32.990 -14.142 -22.160  0.00  0.00    -0.292 N 
ATOM      4  N   UNL     1      33.712 -15.390 -24.036  0.00  0.00    -0.310 NA
ATOM      5  C   UNL     1      33.573 -15.187 -22.762  0.00  0.00    +0.225 C 
ATOM      6  C   UNL     1      34.739 -17.312 -23.110  0.00  0.00    +0.131 C 
ATOM      7  C   UNL     1      35.376 -18.483 -23.111  0.00  0.00    +0.057 C 
ATOM      8  C   UNL     1      34.363 -16.571 -24.342  0.00  0.00    +0.213 C 
ATOM      9  H   UNL     1      32.971 -14.113 -21.176  0.00  0.00    +0.150 HD
ENDROOT
BRANCH   7  12
ATOM     10  O   UNL     1      34.910 -20.103 -21.367  0.00  0.00    -0.458 OA
ATOM     11  C   UNL     1      35.570 -20.600 -20.287  0.00  0.00    +0.123 C 
ATOM     12  C   UNL     1      35.746 -19.212 -21.933  0.00  0.00    +0.146 C 
ATOM     13  C   UNL     1      36.815 -20.026 -20.176  0.00  0.00    +0.036 C 
ATOM     14  C   UNL     1      36.926 -19.117 -21.256  0.00  0.00    +0.040 C 
BRANCH  11  15
ATOM     15  C   UNL     1      34.851 -21.607 -19.493  0.00  0.00    +0.065 C 
ATOM     16  C   UNL     1      33.327 -21.429 -19.540  0.00  0.00    +0.008 C 
ENDBRANCH  11  15
ENDBRANCH   7  12
BRANCH   3  17
ATOM     17  CA  UNL     1      32.385 -13.046 -22.905  0.00  0.00    +0.194 C 
BRANCH  17  19
ATOM     18  F   UNL     1      31.380  -8.586 -19.634  0.00  0.00    -0.204 F 
ATOM     19  C   UNL     1      32.118 -11.862 -22.037  0.00  0.00    +0.006 C 
ATOM     20  C   UNL     1      32.166 -10.577 -22.577  0.00  0.00    +0.000 C 
ATOM     21  C   UNL     1      31.822 -12.041 -20.686  0.00  0.00    +0.000 C 
ATOM     22  C   UNL     1      31.917  -9.471 -21.765  0.00  0.00    +0.029 C 
ATOM     23  C   UNL     1      31.573 -10.934 -19.874  0.00  0.00    +0.029 C 
ATOM     24  C   UNL     1      31.620  -9.649 -20.414  0.00  0.00    +0.140 C 
ENDBRANCH  17  19
BRANCH  17  26
ATOM     25  OXT UNL     1      32.872 -12.843 -25.263  0.00  0.00    -0.248 OA
ATOM     26  C   UNL     1      33.252 -12.697 -24.106  0.00  0.00    +0.336 C 
BRANCH  26  27
ATOM     27  O   UNL     1      34.502 -12.274 -23.800  0.00  0.00    -0.479 OA
ATOM     28  H   UNL     1      35.050 -12.794 -23.246  0.00  0.00    +0.295 HD
ENDBRANCH  26  27
ENDBRANCH  17  26
ENDBRANCH   3  17
TORSDOF 6
ENDMDL
MODEL 3
REMARK VINA RESULT:      -9.5      8.147     13.426
REMARK  Name = 16049839
REMARK  6 active torsions:
REMARK  status: ('A' for Active; 'I' for Inactive)
REMARK    1  A    between atoms: N_3  and  CA_17
REMARK    2  A    between atoms: C_7  and  C_12
REMARK    3  A    between atoms: C_11  and  C_15
REMARK    4  A    between atoms: CA_17  and  C_19
REMARK    5  A    between atoms: CA_17  and  C_26
REMARK    6  A    between atoms: C_26  and  O_27
REMARK                            x       y       z     vdW  Elec       q    Type
REMARK                         _______ _______ _______ _____ _____    ______ ____
ROOT
ATOM      1  S   UNL     1      36.258 -21.488 -18.338  0.00  0.00    -0.026 S 
ATOM      2  O   UNL     1      32.706 -22.849 -18.385  0.00  0.00    -0.209 OA
ATOM      3  N   UNL     1      36.813 -22.964 -16.209  0.00  0.00    -0.292 N 
ATOM      4  N   UNL     1      34.633 -23.099 -17.119  0.00  0.00    -0.310 NA
ATOM      5  C   UNL     1      35.849 -22.648 -17.084  0.00  0.00    +0.225 C 
ATOM      6  C   UNL     1      34.668 -21.616 -18.964  0.00  0.00    +0.131 C 
ATOM      7  C   UNL     1      34.187 -20.964 -20.023  0.00  0.00    +0.057 C 
ATOM      8  C   UNL     1      33.876 -22.575 -18.151  0.00  0.00    +0.213 C 
ATOM      9  H   UNL     1      37.691 -22.529 -16.295  0.00  0.00    +0.150 HD
ENDROOT
BRANCH   7  12
ATOM     10  O   UNL     1      34.404 -19.462 -21.916  0.00  0.00    -0.458 OA
ATOM     11  C   UNL     1      35.371 -18.651 -22.420  0.00  0.00    +0.123 C 
ATOM     12  C   UNL     1      34.936 -20.035 -20.819  0.00  0.00    +0.146 C 
ATOM     13  C   UNL     1      36.505 -18.713 -21.643  0.00  0.00    +0.036 C 
ATOM     14  C   UNL     1      36.216 -19.621 -20.596  0.00  0.00    +0.040 C 
BRANCH  11  15
ATOM     15  C   UNL     1      35.025 -17.905 -23.638  0.00  0.00    +0.065 C 
ATOM     16  C   UNL     1      34.568 -18.815 -24.787  0.00  0.00    +0.008 C 
ENDBRANCH  11  15
ENDBRANCH   7  12
BRANCH   3  17
ATOM     17  CA  UNL     1      36.611 -23.928 -15.135  0.00  0.00    +0.194 C 
BRANCH  17  19
ATOM     18  F   UNL     1      41.374 -26.583 -13.772  0.00  0.00    -0.204 F 
ATOM     19  C   UNL     1      37.874 -24.633 -14.773  0.00  0.00    +0.006 C 
ATOM     20  C   UNL     1      37.893 -25.524 -13.701  0.00  0.00    +0.000 C 
ATOM     21  C   UNL     1      39.038 -24.399 -15.507  0.00  0.00    +0.000 C 
ATOM     22  C   UNL     1      39.075 -26.183 -13.363  0.00  0.00    +0.029 C 
ATOM     23  C   UNL     1      40.220 -25.057 -15.168  0.00  0.00    +0.029 C 
ATOM     24  C   UNL     1      40.239 -25.950 -14.096  0.00  0.00    +0.140 C 
ENDBRANCH  17  19
BRANCH  17  26
ATOM     25  OXT UNL     1      36.622 -22.816 -12.989  0.00  0.00    -0.248 OA
ATOM     26  C   UNL     1      35.970 -23.240 -13.938  0.00  0.00    +0.336 C 
BRANCH  26  27
ATOM     27  O   UNL     1      34.617 -23.189 -13.970  0.00  0.00    -0.479 OA
ATOM     28  H   UNL     1      34.140 -23.767 -14.532  0.00  0.00    +0.295 HD
ENDBRANCH  26  27
ENDBRANCH  17  26
ENDBRANCH   3  17
TORSDOF 6
ENDMDL
MODEL 4
REMARK VINA RESULT:      -9.5      2.339      3.155
REMARK  Name = 16049839
REMARK  6 active torsions:
REMARK  status: ('A' for Active; 'I' for Inactive)
REMARK    1  A    between atoms: N_3  and  CA_17
REMARK    2  A    between atoms: C_7  and  C_12
REMARK    3  A    between atoms: C_11  and  C_15
REMARK    4  A    between atoms: CA_17  and  C_19
REMARK    5  A    between atoms: CA_17  and  C_26
REMARK    6  A    between atoms: C_26  and  O_27
REMARK                            x       y       z     vdW  Elec       q    Type
REMARK                         _______ _______ _______ _____ _____    ______ ____
ROOT
ATOM      1  S   UNL     1      34.826 -16.129 -23.497  0.00  0.00    -0.026 S 
ATOM      2  O   UNL     1      32.059 -15.133 -21.082  0.00  0.00    -0.209 OA
ATOM      3  N   UNL     1      34.055 -14.238 -25.185  0.00  0.00    -0.292 N 
ATOM      4  N   UNL     1      32.857 -14.476 -23.158  0.00  0.00    -0.310 NA
ATOM      5  C   UNL     1      33.793 -14.799 -23.997  0.00  0.00    +0.225 C 
ATOM      6  C   UNL     1      33.930 -16.266 -22.042  0.00  0.00    +0.131 C 
ATOM      7  C   UNL     1      34.152 -17.145 -21.064  0.00  0.00    +0.057 C 
ATOM      8  C   UNL     1      32.847 -15.250 -22.012  0.00  0.00    +0.213 C 
ATOM      9  H   UNL     1      34.793 -14.600 -25.726  0.00  0.00    +0.150 HD
ENDROOT
BRANCH   7  12
ATOM     10  O   UNL     1      35.103 -19.255 -20.335  0.00  0.00    -0.458 OA
ATOM     11  C   UNL     1      36.242 -19.955 -20.580  0.00  0.00    +0.123 C 
ATOM     12  C   UNL     1      35.192 -18.133 -21.075  0.00  0.00    +0.146 C 
ATOM     13  C   UNL     1      37.042 -19.278 -21.471  0.00  0.00    +0.036 C 
ATOM     14  C   UNL     1      36.351 -18.085 -21.793  0.00  0.00    +0.040 C 
BRANCH  11  15
ATOM     15  C   UNL     1      36.381 -21.238 -19.875  0.00  0.00    +0.065 C 
ATOM     16  C   UNL     1      35.032 -21.840 -19.458  0.00  0.00    +0.008 C 
ENDBRANCH  11  15
ENDBRANCH   7  12
BRANCH   3  17
ATOM     17  CA  UNL     1      33.288 -13.115 -25.707  0.00  0.00    +0.194 C 
BRANCH  17  19
ATOM     18  F   UNL     1      35.266  -8.184 -23.872  0.00  0.00    -0.204 F 
ATOM     19  C   UNL     1      33.814 -11.806 -25.221  0.00  0.00    +0.006 C 
ATOM     20  C   UNL     1      34.878 -11.194 -25.879  0.00  0.00    +0.000 C 
ATOM     21  C   UNL     1      33.239 -11.196 -24.105  0.00  0.00    +0.000 C 
ATOM     22  C   UNL     1      35.369  -9.970 -25.424  0.00  0.00    +0.029 C 
ATOM     23  C   UNL     1      33.730  -9.972 -23.649  0.00  0.00    +0.029 C 
ATOM     24  C   UNL     1      34.795  -9.359 -24.309  0.00  0.00    +0.140 C 
ENDBRANCH  17  19
BRANCH  17  26
ATOM     25  OXT UNL     1      34.133 -13.687 -27.898  0.00  0.00    -0.248 OA
ATOM     26  C   UNL     1      33.237 -13.186 -27.227  0.00  0.00    +0.336 C 
BRANCH  26  27
ATOM     27  O   UNL     1      32.153 -12.596 -27.786  0.00  0.00    -0.479 OA
ATOM     28  H   UNL     1      31.375 -12.470 -27.280  0.00  0.00    +0.295 HD
ENDBRANCH  26  27
ENDBRANCH  17  26
ENDBRANCH   3  17
TORSDOF 6
ENDMDL
MODEL 5
REMARK VINA RESULT:      -9.5      3.701      8.998
REMARK  Name = 16049839
REMARK  6 active torsions:
REMARK  status: ('A' for Active; 'I' for Inactive)
REMARK    1  A    between atoms: N_3  and  CA_17
REMARK    2  A    between atoms: C_7  and  C_12
REMARK    3  A    between atoms: C_11  and  C_15
REMARK    4  A    between atoms: CA_17  and  C_19
REMARK    5  A    between atoms: CA_17  and  C_26
REMARK    6  A    between atoms: C_26  and  O_27
REMARK                            x       y       z     vdW  Elec       q    Type
REMARK                         _______ _______ _______ _____ _____    ______ ____
ROOT
ATOM      1  S   UNL     1      33.579 -14.903 -21.343  0.00  0.00    -0.026 S 
ATOM      2  O   UNL     1      33.641 -15.280 -25.128  0.00  0.00    -0.209 OA
ATOM      3  N   UNL     1      34.759 -17.259 -21.073  0.00  0.00    -0.292 N 
ATOM      4  N   UNL     1      34.304 -16.488 -23.263  0.00  0.00    -0.310 NA
ATOM      5  C   UNL     1      34.293 -16.381 -21.969  0.00  0.00    +0.225 C 
ATOM      6  C   UNL     1      33.267 -14.383 -22.946  0.00  0.00    +0.131 C 
ATOM      7  C   UNL     1      32.686 -13.236 -23.299  0.00  0.00    +0.057 C 
ATOM      8  C   UNL     1      33.743 -15.404 -23.914  0.00  0.00    +0.213 C 
ATOM      9  H   UNL     1      34.669 -17.051 -20.115  0.00  0.00    +0.150 HD
ENDROOT
BRANCH   7  12
ATOM     10  O   UNL     1      32.398 -10.925 -22.619  0.00  0.00    -0.458 OA
ATOM     11  C   UNL     1      31.845 -10.275 -21.561  0.00  0.00    +0.123 C 
ATOM     12  C   UNL     1      32.221 -12.239 -22.379  0.00  0.00    +0.146 C 
ATOM     13  C   UNL     1      31.322 -11.175 -20.662  0.00  0.00    +0.036 C 
ATOM     14  C   UNL     1      31.570 -12.460 -21.201  0.00  0.00    +0.040 C 
BRANCH  11  15
ATOM     15  C   UNL     1      31.915  -8.808 -21.591  0.00  0.00    +0.065 C 
ATOM     16  C   UNL     1      32.343  -8.201 -20.247  0.00  0.00    +0.008 C 
ENDBRANCH  11  15
ENDBRANCH   7  12
BRANCH   3  17
ATOM     17  CA  UNL     1      35.394 -18.512 -21.460  0.00  0.00    +0.194 C 
BRANCH  17  19
ATOM     18  F   UNL     1      33.322 -22.888 -18.604  0.00  0.00    -0.204 F 
ATOM     19  C   UNL     1      34.845 -19.674 -20.702  0.00  0.00    +0.006 C 
ATOM     20  C   UNL     1      35.708 -20.627 -20.165  0.00  0.00    +0.000 C 
ATOM     21  C   UNL     1      33.466 -19.806 -20.532  0.00  0.00    +0.000 C 
ATOM     22  C   UNL     1      35.194 -21.713 -19.456  0.00  0.00    +0.029 C 
ATOM     23  C   UNL     1      32.952 -20.892 -19.824  0.00  0.00    +0.029 C 
ATOM     24  C   UNL     1      33.816 -21.846 -19.286  0.00  0.00    +0.140 C 
ENDBRANCH  17  19
BRANCH  17  26
ATOM     25  OXT UNL     1      34.323 -19.248 -23.498  0.00  0.00    -0.248 OA
ATOM     26  C   UNL     1      35.284 -18.703 -22.967  0.00  0.00    +0.336 C 
BRANCH  26  27
ATOM     27  O   UNL     1      36.362 -18.282 -23.671  0.00  0.00    -0.479 OA
ATOM     28  H   UNL     1      36.250 -17.923 -24.530  0.00  0.00    +0.295 HD
ENDBRANCH  26  27
ENDBRANCH  17  26
ENDBRANCH   3  17
TORSDOF 6
ENDMDL
MODEL 6
REMARK VINA RESULT:      -9.4      3.224      8.365
REMARK  Name = 16049839
REMARK  6 active torsions:
REMARK  status: ('A' for Active; 'I' for Inactive)
REMARK    1  A    between atoms: N_3  and  CA_17
REMARK    2  A    between atoms: C_7  and  C_12
REMARK    3  A    between atoms: C_11  and  C_15
REMARK    4  A    between atoms: CA_17  and  C_19
REMARK    5  A    between atoms: CA_17  and  C_26
REMARK    6  A    between atoms: C_26  and  O_27
REMARK                            x       y       z     vdW  Elec       q    Type
REMARK                         _______ _______ _______ _____ _____    ______ ____
ROOT
ATOM      1  S   UNL     1      33.042 -11.161 -23.376  0.00  0.00    -0.026 S 
ATOM      2  O   UNL     1      35.583  -9.917 -25.919  0.00  0.00    -0.209 OA
ATOM      3  N   UNL     1      33.325 -13.635 -24.280  0.00  0.00    -0.292 N 
ATOM      4  N   UNL     1      34.603 -11.925 -25.300  0.00  0.00    -0.310 NA
ATOM      5  C   UNL     1      33.738 -12.372 -24.442  0.00  0.00    +0.225 C 
ATOM      6  C   UNL     1      33.986  -9.954 -24.143  0.00  0.00    +0.131 C 
ATOM      7  C   UNL     1      33.994  -8.655 -23.842  0.00  0.00    +0.057 C 
ATOM      8  C   UNL     1      34.817 -10.561 -25.215  0.00  0.00    +0.213 C 
ATOM      9  H   UNL     1      32.647 -13.827 -23.594  0.00  0.00    +0.150 HD
ENDROOT
BRANCH   7  12
ATOM     10  O   UNL     1      33.015  -8.657 -21.622  0.00  0.00    -0.458 OA
ATOM     11  C   UNL     1      32.225  -7.821 -20.897  0.00  0.00    +0.123 C 
ATOM     12  C   UNL     1      33.200  -8.051 -22.811  0.00  0.00    +0.146 C 
ATOM     13  C   UNL     1      31.917  -6.695 -21.626  0.00  0.00    +0.036 C 
ATOM     14  C   UNL     1      32.557  -6.850 -22.879  0.00  0.00    +0.040 C 
BRANCH  11  15
ATOM     15  C   UNL     1      31.877  -8.268 -19.541  0.00  0.00    +0.065 C 
ATOM     16  C   UNL     1      31.731  -9.793 -19.434  0.00  0.00    +0.008 C 
ENDBRANCH  11  15
ENDBRANCH   7  12
BRANCH   3  17
ATOM     17  CA  UNL     1      33.839 -14.737 -25.084  0.00  0.00    +0.194 C 
BRANCH  17  19
ATOM     18  F   UNL     1      35.342 -19.131 -21.917  0.00  0.00    -0.204 F 
ATOM     19  C   UNL     1      34.238 -15.902 -24.243  0.00  0.00    +0.006 C 
ATOM     20  C   UNL     1      34.060 -15.859 -22.861  0.00  0.00    +0.000 C 
ATOM     21  C   UNL     1      34.789 -17.036 -24.840  0.00  0.00    +0.000 C 
ATOM     22  C   UNL     1      34.433 -16.949 -22.075  0.00  0.00    +0.029 C 
ATOM     23  C   UNL     1      35.162 -18.127 -24.054  0.00  0.00    +0.029 C 
ATOM     24  C   UNL     1      34.984 -18.083 -22.671  0.00  0.00    +0.140 C 
ENDBRANCH  17  19
BRANCH  17  26
ATOM     25  OXT UNL     1      32.701 -16.261 -26.575  0.00  0.00    -0.248 OA
ATOM     26  C   UNL     1      32.822 -15.116 -26.151  0.00  0.00    +0.336 C 
BRANCH  26  27
ATOM     27  O   UNL     1      32.104 -14.078 -26.644  0.00  0.00    -0.479 OA
ATOM     28  H   UNL     1      32.222 -13.809 -27.534  0.00  0.00    +0.295 HD
ENDBRANCH  26  27
ENDBRANCH  17  26
ENDBRANCH   3  17
TORSDOF 6
ENDMDL
MODEL 7
REMARK VINA RESULT:      -9.4      3.212      8.945
REMARK  Name = 16049839
REMARK  6 active torsions:
REMARK  status: ('A' for Active; 'I' for Inactive)
REMARK    1  A    between atoms: N_3  and  CA_17
REMARK    2  A    between atoms: C_7  and  C_12
REMARK    3  A    between atoms: C_11  and  C_15
REMARK    4  A    between atoms: CA_17  and  C_19
REMARK    5  A    between atoms: CA_17  and  C_26
REMARK    6  A    between atoms: C_26  and  O_27
REMARK                            x       y       z     vdW  Elec       q    Type
REMARK                         _______ _______ _______ _____ _____    ______ ____
ROOT
ATOM      1  S   UNL     1      32.920 -10.933 -23.350  0.00  0.00    -0.026 S 
ATOM      2  O   UNL     1      35.714  -9.751 -25.646  0.00  0.00    -0.209 OA
ATOM      3  N   UNL     1      33.205 -13.408 -24.252  0.00  0.00    -0.292 N 
ATOM      4  N   UNL     1      34.621 -11.732 -25.138  0.00  0.00    -0.310 NA
ATOM      5  C   UNL     1      33.670 -12.157 -24.363  0.00  0.00    +0.225 C 
ATOM      6  C   UNL     1      33.966  -9.751 -24.019  0.00  0.00    +0.131 C 
ATOM      7  C   UNL     1      33.987  -8.456 -23.704  0.00  0.00    +0.057 C 
ATOM      8  C   UNL     1      34.869 -10.377 -25.020  0.00  0.00    +0.213 C 
ATOM      9  H   UNL     1      32.463 -13.584 -23.630  0.00  0.00    +0.150 HD
ENDROOT
BRANCH   7  12
ATOM     10  O   UNL     1      32.223  -6.902 -23.105  0.00  0.00    -0.458 OA
ATOM     11  C   UNL     1      31.586  -6.533 -21.962  0.00  0.00    +0.123 C 
ATOM     12  C   UNL     1      33.124  -7.834 -22.741  0.00  0.00    +0.146 C 
ATOM     13  C   UNL     1      32.083  -7.231 -20.887  0.00  0.00    +0.036 C 
ATOM     14  C   UNL     1      33.090  -8.083 -21.401  0.00  0.00    +0.040 C 
BRANCH  11  15
ATOM     15  C   UNL     1      30.541  -5.509 -22.102  0.00  0.00    +0.065 C 
ATOM     16  C   UNL     1      31.026  -4.257 -22.848  0.00  0.00    +0.008 C 
ENDBRANCH  11  15
ENDBRANCH   7  12
BRANCH   3  17
ATOM     17  CA  UNL     1      33.754 -14.519 -25.018  0.00  0.00    +0.194 C 
BRANCH  17  19
ATOM     18  F   UNL     1      35.263 -18.808 -21.713  0.00  0.00    -0.204 F 
ATOM     19  C   UNL     1      34.155 -15.658 -24.142  0.00  0.00    +0.006 C 
ATOM     20  C   UNL     1      34.717 -16.804 -24.701  0.00  0.00    +0.000 C 
ATOM     21  C   UNL     1      33.965 -15.575 -22.762  0.00  0.00    +0.000 C 
ATOM     22  C   UNL     1      35.092 -17.868 -23.881  0.00  0.00    +0.029 C 
ATOM     23  C   UNL     1      34.339 -16.639 -21.941  0.00  0.00    +0.029 C 
ATOM     24  C   UNL     1      34.903 -17.786 -22.501  0.00  0.00    +0.140 C 
ENDBRANCH  17  19
BRANCH  17  26
ATOM     25  OXT UNL     1      32.737 -16.075 -26.563  0.00  0.00    -0.248 OA
ATOM     26  C   UNL     1      32.765 -14.941 -26.096  0.00  0.00    +0.336 C 
BRANCH  26  27
ATOM     27  O   UNL     1      31.960 -13.949 -26.547  0.00  0.00    -0.479 OA
ATOM     28  H   UNL     1      32.103 -13.066 -26.268  0.00  0.00    +0.295 HD
ENDBRANCH  26  27
ENDBRANCH  17  26
ENDBRANCH   3  17
TORSDOF 6
ENDMDL
MODEL 8
REMARK VINA RESULT:      -9.2      3.655      8.680
REMARK  Name = 16049839
REMARK  6 active torsions:
REMARK  status: ('A' for Active; 'I' for Inactive)
REMARK    1  A    between atoms: N_3  and  CA_17
REMARK    2  A    between atoms: C_7  and  C_12
REMARK    3  A    between atoms: C_11  and  C_15
REMARK    4  A    between atoms: CA_17  and  C_19
REMARK    5  A    between atoms: CA_17  and  C_26
REMARK    6  A    between atoms: C_26  and  O_27
REMARK                            x       y       z     vdW  Elec       q    Type
REMARK                         _______ _______ _______ _____ _____    ______ ____
ROOT
ATOM      1  S   UNL     1      33.785 -14.949 -22.056  0.00  0.00    -0.026 S 
ATOM      2  O   UNL     1      34.164 -15.668 -25.772  0.00  0.00    -0.209 OA
ATOM      3  N   UNL     1      34.755 -17.345 -21.477  0.00  0.00    -0.292 N 
ATOM      4  N   UNL     1      34.561 -16.745 -23.758  0.00  0.00    -0.310 NA
ATOM      5  C   UNL     1      34.440 -16.521 -22.485  0.00  0.00    +0.225 C 
ATOM      6  C   UNL     1      33.662 -14.555 -23.720  0.00  0.00    +0.131 C 
ATOM      7  C   UNL     1      33.204 -13.408 -24.222  0.00  0.00    +0.057 C 
ATOM      8  C   UNL     1      34.146 -15.689 -24.549  0.00  0.00    +0.213 C 
ATOM      9  H   UNL     1      34.594 -17.047 -20.554  0.00  0.00    +0.150 HD
ENDROOT
BRANCH   7  12
ATOM     10  O   UNL     1      31.828 -12.475 -22.455  0.00  0.00    -0.458 OA
ATOM     11  C   UNL     1      31.612 -11.241 -21.928  0.00  0.00    +0.123 C 
ATOM     12  C   UNL     1      32.733 -12.303 -23.438  0.00  0.00    +0.146 C 
ATOM     13  C   UNL     1      32.377 -10.299 -22.575  0.00  0.00    +0.036 C 
ATOM     14  C   UNL     1      33.110 -10.998 -23.564  0.00  0.00    +0.040 C 
BRANCH  11  15
ATOM     15  C   UNL     1      30.647 -11.166 -20.822  0.00  0.00    +0.065 C 
ATOM     16  C   UNL     1      31.281 -10.697 -19.505  0.00  0.00    +0.008 C 
ENDBRANCH  11  15
ENDBRANCH   7  12
BRANCH   3  17
ATOM     17  CA  UNL     1      35.325 -18.668 -21.695  0.00  0.00    +0.194 C 
BRANCH  17  19
ATOM     18  F   UNL     1      32.922 -22.558 -18.427  0.00  0.00    -0.204 F 
ATOM     19  C   UNL     1      34.688 -19.701 -20.828  0.00  0.00    +0.006 C 
ATOM     20  C   UNL     1      35.468 -20.693 -20.237  0.00  0.00    +0.000 C 
ATOM     21  C   UNL     1      33.310 -19.673 -20.609  0.00  0.00    +0.000 C 
ATOM     22  C   UNL     1      34.872 -21.658 -19.425  0.00  0.00    +0.029 C 
ATOM     23  C   UNL     1      32.714 -20.639 -19.798  0.00  0.00    +0.029 C 
ATOM     24  C   UNL     1      33.495 -21.632 -19.206  0.00  0.00    +0.140 C 
ENDBRANCH  17  19
BRANCH  17  26
ATOM     25  OXT UNL     1      34.263 -19.560 -23.674  0.00  0.00    -0.248 OA
ATOM     26  C   UNL     1      35.247 -19.028 -23.173  0.00  0.00    +0.336 C 
BRANCH  26  27
ATOM     27  O   UNL     1      36.375 -18.772 -23.879  0.00  0.00    -0.479 OA
ATOM     28  H   UNL     1      37.053 -18.245 -23.504  0.00  0.00    +0.295 HD
ENDBRANCH  26  27
ENDBRANCH  17  26
ENDBRANCH   3  17
TORSDOF 6
ENDMDL
MODEL 9
REMARK VINA RESULT:      -8.9      3.850      9.401
REMARK  Name = 16049839
REMARK  6 active torsions:
REMARK  status: ('A' for Active; 'I' for Inactive)
REMARK    1  A    between atoms: N_3  and  CA_17
REMARK    2  A    between atoms: C_7  and  C_12
REMARK    3  A    between atoms: C_11  and  C_15
REMARK    4  A    between atoms: CA_17  and  C_19
REMARK    5  A    between atoms: CA_17  and  C_26
REMARK    6  A    between atoms: C_26  and  O_27
REMARK                            x       y       z     vdW  Elec       q    Type
REMARK                         _______ _______ _______ _____ _____    ______ ____
ROOT
ATOM      1  S   UNL     1      33.412 -10.981 -23.297  0.00  0.00    -0.026 S 
ATOM      2  O   UNL     1      30.561 -10.664 -20.798  0.00  0.00    -0.209 OA
ATOM      3  N   UNL     1      33.548 -13.586 -22.834  0.00  0.00    -0.292 N 
ATOM      4  N   UNL     1      31.926 -12.331 -21.655  0.00  0.00    -0.310 NA
ATOM      5  C   UNL     1      32.900 -12.462 -22.503  0.00  0.00    +0.225 C 
ATOM      6  C   UNL     1      32.223 -10.110 -22.421  0.00  0.00    +0.131 C 
ATOM      7  C   UNL     1      31.990  -8.800 -22.506  0.00  0.00    +0.057 C 
ATOM      8  C   UNL     1      31.467 -11.032 -21.533  0.00  0.00    +0.213 C 
ATOM      9  H   UNL     1      34.283 -13.533 -23.487  0.00  0.00    +0.150 HD
ENDROOT
BRANCH   7  12
ATOM     10  O   UNL     1      32.070  -6.951 -24.073  0.00  0.00    -0.458 OA
ATOM     11  C   UNL     1      33.039  -6.284 -24.755  0.00  0.00    +0.123 C 
ATOM     12  C   UNL     1      32.708  -7.896 -23.356  0.00  0.00    +0.146 C 
ATOM     13  C   UNL     1      34.279  -6.806 -24.467  0.00  0.00    +0.036 C 
ATOM     14  C   UNL     1      34.057  -7.862 -23.550  0.00  0.00    +0.040 C 
BRANCH  11  15
ATOM     15  C   UNL     1      32.586  -5.187 -25.622  0.00  0.00    +0.065 C 
ATOM     16  C   UNL     1      31.339  -4.473 -25.082  0.00  0.00    +0.008 C 
ENDBRANCH  11  15
ENDBRANCH   7  12
BRANCH   3  17
ATOM     17  CA  UNL     1      33.208 -14.884 -22.266  0.00  0.00    +0.194 C 
BRANCH  17  19
ATOM     18  F   UNL     1      35.339 -19.121 -25.282  0.00  0.00    -0.204 F 
ATOM     19  C   UNL     1      33.773 -16.009 -23.066  0.00  0.00    +0.006 C 
ATOM     20  C   UNL     1      34.154 -17.191 -22.434  0.00  0.00    +0.000 C 
ATOM     21  C   UNL     1      33.922 -15.876 -24.447  0.00  0.00    +0.000 C 
ATOM     22  C   UNL     1      34.683 -18.243 -23.182  0.00  0.00    +0.029 C 
ATOM     23  C   UNL     1      34.451 -16.928 -25.196  0.00  0.00    +0.029 C 
ATOM     24  C   UNL     1      34.831 -18.112 -24.563  0.00  0.00    +0.140 C 
ENDBRANCH  17  19
BRANCH  17  26
ATOM     25  OXT UNL     1      34.817 -14.922 -20.464  0.00  0.00    -0.248 OA
ATOM     26  C   UNL     1      33.640 -14.939 -20.808  0.00  0.00    +0.336 C 
BRANCH  26  27
ATOM     27  O   UNL     1      32.625 -15.072 -19.920  0.00  0.00    -0.479 OA
ATOM     28  H   UNL     1      32.124 -14.323 -19.666  0.00  0.00    +0.295 HD
ENDBRANCH  26  27
ENDBRANCH  17  26
ENDBRANCH   3  17
TORSDOF 6
ENDMDL
