MODEL 1
REMARK VINA RESULT:     -11.3      0.000      0.000
REMARK  Name = 11441375
REMARK  6 active torsions:
REMARK  status: ('A' for Active; 'I' for Inactive)
REMARK    1  A    between atoms: C_1  and  C_13
REMARK    2  A    between atoms: C_9  and  O_18
REMARK    3  A    between atoms: N_12  and  C_15
REMARK    4  A    between atoms: O_18  and  C_21
REMARK    5  A    between atoms: C_24  and  O_29
REMARK    6  A    between atoms: C_27  and  O_31
REMARK                            x       y       z     vdW  Elec       q    Type
REMARK                         _______ _______ _______ _____ _____    ______ ____
ROOT
ATOM      1  C   UNL     1      35.160 -19.079 -20.967  0.00  0.00    +0.053 C 
ATOM      2  C   UNL     1      34.646 -20.192 -20.281  0.00  0.00    +0.005 C 
ATOM      3  C   UNL     1      36.538 -18.881 -21.070  0.00  0.00    +0.005 C 
ATOM      4  C   UNL     1      35.541 -21.116 -19.692  0.00  0.00    +0.003 C 
ATOM      5  C   UNL     1      33.263 -20.407 -20.168  0.00  0.00    +0.003 C 
ATOM      6  C   UNL     1      37.417 -19.790 -20.491  0.00  0.00    +0.000 C 
ATOM      7  C   UNL     1      36.924 -20.901 -19.805  0.00  0.00    +0.000 C 
ATOM      8  C   UNL     1      35.027 -22.229 -19.006  0.00  0.00    +0.037 C 
ATOM      9  C   UNL     1      33.650 -22.427 -18.903  0.00  0.00    +0.145 C 
ATOM     10  C   UNL     1      32.770 -21.518 -19.483  0.00  0.00    +0.037 C 
ENDROOT
BRANCH   1  13
ATOM     11  O   UNL     1      33.934 -18.231 -22.778  0.00  0.00    -0.270 OA
ATOM     12  N   UNL     1      33.944 -16.974 -20.832  0.00  0.00    -0.302 N 
ATOM     13  C   UNL     1      34.302 -18.084 -21.601  0.00  0.00    +0.246 C 
ATOM     14  H   UNL     1      34.272 -16.921 -19.905  0.00  0.00    +0.150 HD
BRANCH  12  15
ATOM     15  C   UNL     1      33.123 -15.905 -21.329  0.00  0.00    +0.072 C 
ATOM     16  C   UNL     1      33.733 -14.607 -21.746  0.00  0.00    +0.021 C 
ATOM     17  C   UNL     1      32.887 -14.679 -20.509  0.00  0.00    +0.021 C 
ENDBRANCH  12  15
ENDBRANCH   1  13
BRANCH   9  18
ATOM     18  O   UNL     1      33.166 -23.511 -18.237  0.00  0.00    -0.453 OA
BRANCH  18  21
ATOM     19  N   UNL     1      31.689 -22.903 -14.410  0.00  0.00    -0.244 NA
ATOM     20  C   UNL     1      33.481 -23.633 -15.846  0.00  0.00    +0.055 C 
ATOM     21  C   UNL     1      32.695 -23.317 -16.949  0.00  0.00    +0.148 C 
ATOM     22  C   UNL     1      32.928 -23.407 -14.569  0.00  0.00    +0.087 C 
ATOM     23  C   UNL     1      34.777 -24.159 -15.975  0.00  0.00    +0.045 C 
ATOM     24  C   UNL     1      35.529 -24.462 -14.844  0.00  0.00    +0.173 C 
ATOM     25  C   UNL     1      31.425 -22.802 -16.808  0.00  0.00    +0.058 C 
ATOM     26  C   UNL     1      33.703 -23.718 -13.455  0.00  0.00    +0.059 C 
ATOM     27  C   UNL     1      34.992 -24.241 -13.582  0.00  0.00    +0.174 C 
ATOM     28  C   UNL     1      30.970 -22.614 -15.518  0.00  0.00    +0.102 C 
BRANCH  24  29
ATOM     29  O   UNL     1      36.785 -24.971 -14.985  0.00  0.00    -0.468 OA
ATOM     30  C   UNL     1      36.899 -26.388 -15.118  0.00  0.00    +0.253 C 
ENDBRANCH  24  29
BRANCH  27  31
ATOM     31  O   UNL     1      35.710 -24.529 -12.462  0.00  0.00    -0.468 OA
ATOM     32  C   UNL     1      36.375 -23.443 -11.820  0.00  0.00    +0.253 C 
ENDBRANCH  27  31
ENDBRANCH  18  21
ENDBRANCH   9  18
TORSDOF 6
ENDMDL
MODEL 2
REMARK VINA RESULT:     -10.6      4.892     12.357
REMARK  Name = 11441375
REMARK  6 active torsions:
REMARK  status: ('A' for Active; 'I' for Inactive)
REMARK    1  A    between atoms: C_1  and  C_13
REMARK    2  A    between atoms: C_9  and  O_18
REMARK    3  A    between atoms: N_12  and  C_15
REMARK    4  A    between atoms: O_18  and  C_21
REMARK    5  A    between atoms: C_24  and  O_29
REMARK    6  A    between atoms: C_27  and  O_31
REMARK                            x       y       z     vdW  Elec       q    Type
REMARK                         _______ _______ _______ _____ _____    ______ ____
ROOT
ATOM      1  C   UNL     1      34.799 -17.972 -22.654  0.00  0.00    +0.053 C 
ATOM      2  C   UNL     1      34.177 -16.717 -22.762  0.00  0.00    +0.005 C 
ATOM      3  C   UNL     1      35.196 -18.670 -23.794  0.00  0.00    +0.005 C 
ATOM      4  C   UNL     1      33.956 -16.164 -24.045  0.00  0.00    +0.003 C 
ATOM      5  C   UNL     1      33.771 -16.001 -21.624  0.00  0.00    +0.003 C 
ATOM      6  C   UNL     1      34.978 -18.125 -25.056  0.00  0.00    +0.000 C 
ATOM      7  C   UNL     1      34.361 -16.880 -25.182  0.00  0.00    +0.000 C 
ATOM      8  C   UNL     1      33.334 -14.908 -24.153  0.00  0.00    +0.037 C 
ATOM      9  C   UNL     1      32.938 -14.210 -23.013  0.00  0.00    +0.145 C 
ATOM     10  C   UNL     1      33.156 -14.755 -21.751  0.00  0.00    +0.037 C 
ENDROOT
BRANCH   1  13
ATOM     11  O   UNL     1      35.896 -18.121 -20.585  0.00  0.00    -0.270 OA
ATOM     12  N   UNL     1      34.355 -19.778 -21.081  0.00  0.00    -0.302 N 
ATOM     13  C   UNL     1      35.062 -18.608 -21.366  0.00  0.00    +0.246 C 
ATOM     14  H   UNL     1      33.708 -20.109 -21.747  0.00  0.00    +0.150 HD
BRANCH  12  15
ATOM     15  C   UNL     1      34.524 -20.523 -19.865  0.00  0.00    +0.072 C 
ATOM     16  C   UNL     1      35.096 -21.903 -19.891  0.00  0.00    +0.021 C 
ATOM     17  C   UNL     1      33.648 -21.693 -19.557  0.00  0.00    +0.021 C 
ENDBRANCH  12  15
ENDBRANCH   1  13
BRANCH   9  18
ATOM     18  O   UNL     1      32.338 -12.994 -23.133  0.00  0.00    -0.453 OA
BRANCH  18  21
ATOM     19  N   UNL     1      34.573  -9.965 -24.873  0.00  0.00    -0.244 NA
ATOM     20  C   UNL     1      33.051 -10.687 -23.151  0.00  0.00    +0.055 C 
ATOM     21  C   UNL     1      33.076 -11.966 -23.697  0.00  0.00    +0.148 C 
ATOM     22  C   UNL     1      33.830  -9.696 -23.783  0.00  0.00    +0.087 C 
ATOM     23  C   UNL     1      32.287 -10.371 -22.015  0.00  0.00    +0.045 C 
ATOM     24  C   UNL     1      32.291  -9.077 -21.501  0.00  0.00    +0.173 C 
ATOM     25  C   UNL     1      33.830 -12.261 -24.811  0.00  0.00    +0.058 C 
ATOM     26  C   UNL     1      33.815  -8.411 -23.248  0.00  0.00    +0.059 C 
ATOM     27  C   UNL     1      33.056  -8.095 -22.119  0.00  0.00    +0.174 C 
ATOM     28  C   UNL     1      34.560 -11.226 -25.361  0.00  0.00    +0.102 C 
BRANCH  24  29
ATOM     29  O   UNL     1      31.546  -8.787 -20.399  0.00  0.00    -0.468 OA
ATOM     30  C   UNL     1      31.549  -9.747 -19.343  0.00  0.00    +0.253 C 
ENDBRANCH  24  29
BRANCH  27  31
ATOM     31  O   UNL     1      33.075  -6.824 -21.633  0.00  0.00    -0.468 OA
ATOM     32  C   UNL     1      32.125  -5.908 -22.173  0.00  0.00    +0.253 C 
ENDBRANCH  27  31
ENDBRANCH  18  21
ENDBRANCH   9  18
TORSDOF 6
ENDMDL
MODEL 3
REMARK VINA RESULT:     -10.4      5.417     12.704
REMARK  Name = 11441375
REMARK  6 active torsions:
REMARK  status: ('A' for Active; 'I' for Inactive)
REMARK    1  A    between atoms: C_1  and  C_13
REMARK    2  A    between atoms: C_9  and  O_18
REMARK    3  A    between atoms: N_12  and  C_15
REMARK    4  A    between atoms: O_18  and  C_21
REMARK    5  A    between atoms: C_24  and  O_29
REMARK    6  A    between atoms: C_27  and  O_31
REMARK                            x       y       z     vdW  Elec       q    Type
REMARK                         _______ _______ _______ _____ _____    ______ ____
ROOT
ATOM      1  C   UNL     1      34.564 -16.801 -22.620  0.00  0.00    +0.053 C 
ATOM      2  C   UNL     1      33.814 -15.614 -22.593  0.00  0.00    +0.005 C 
ATOM      3  C   UNL     1      34.986 -17.349 -23.832  0.00  0.00    +0.005 C 
ATOM      4  C   UNL     1      33.487 -14.974 -23.812  0.00  0.00    +0.003 C 
ATOM      5  C   UNL     1      33.382 -15.048 -21.383  0.00  0.00    +0.003 C 
ATOM      6  C   UNL     1      34.664 -16.720 -25.030  0.00  0.00    +0.000 C 
ATOM      7  C   UNL     1      33.919 -15.540 -25.022  0.00  0.00    +0.000 C 
ATOM      8  C   UNL     1      32.737 -13.787 -23.785  0.00  0.00    +0.037 C 
ATOM      9  C   UNL     1      32.317 -13.238 -22.573  0.00  0.00    +0.145 C 
ATOM     10  C   UNL     1      32.638 -13.868 -21.375  0.00  0.00    +0.037 C 
ENDROOT
BRANCH   1  13
ATOM     11  O   UNL     1      35.346 -16.896 -20.410  0.00  0.00    -0.270 OA
ATOM     12  N   UNL     1      34.843 -18.911 -21.437  0.00  0.00    -0.302 N 
ATOM     13  C   UNL     1      34.942 -17.518 -21.406  0.00  0.00    +0.246 C 
ATOM     14  H   UNL     1      34.514 -19.340 -22.260  0.00  0.00    +0.150 HD
BRANCH  12  15
ATOM     15  C   UNL     1      35.199 -19.749 -20.325  0.00  0.00    +0.072 C 
ATOM     16  C   UNL     1      35.735 -21.125 -20.550  0.00  0.00    +0.021 C 
ATOM     17  C   UNL     1      34.366 -20.935 -19.966  0.00  0.00    +0.021 C 
ENDBRANCH  12  15
ENDBRANCH   1  13
BRANCH   9  18
ATOM     18  O   UNL     1      31.592 -12.086 -22.563  0.00  0.00    -0.453 OA
BRANCH  18  21
ATOM     19  N   UNL     1      31.854  -9.733 -19.158  0.00  0.00    -0.244 NA
ATOM     20  C   UNL     1      31.837  -9.902 -21.561  0.00  0.00    +0.055 C 
ATOM     21  C   UNL     1      31.682 -11.279 -21.440  0.00  0.00    +0.148 C 
ATOM     22  C   UNL     1      31.920  -9.151 -20.371  0.00  0.00    +0.087 C 
ATOM     23  C   UNL     1      31.910  -9.263 -22.810  0.00  0.00    +0.045 C 
ATOM     24  C   UNL     1      32.066  -7.882 -22.886  0.00  0.00    +0.173 C 
ATOM     25  C   UNL     1      31.612 -11.893 -20.209  0.00  0.00    +0.058 C 
ATOM     26  C   UNL     1      32.075  -7.772 -20.476  0.00  0.00    +0.059 C 
ATOM     27  C   UNL     1      32.149  -7.135 -21.717  0.00  0.00    +0.174 C 
ATOM     28  C   UNL     1      31.703 -11.075 -19.100  0.00  0.00    +0.102 C 
BRANCH  24  29
ATOM     29  O   UNL     1      32.134  -7.276 -24.104  0.00  0.00    -0.468 OA
ATOM     30  C   UNL     1      33.405  -6.764 -24.503  0.00  0.00    +0.253 C 
ENDBRANCH  24  29
BRANCH  27  31
ATOM     31  O   UNL     1      32.300  -5.783 -21.767  0.00  0.00    -0.468 OA
ATOM     32  C   UNL     1      31.124  -5.006 -21.985  0.00  0.00    +0.253 C 
ENDBRANCH  27  31
ENDBRANCH  18  21
ENDBRANCH   9  18
TORSDOF 6
ENDMDL
MODEL 4
REMARK VINA RESULT:     -10.3      2.180      3.302
REMARK  Name = 11441375
REMARK  6 active torsions:
REMARK  status: ('A' for Active; 'I' for Inactive)
REMARK    1  A    between atoms: C_1  and  C_13
REMARK    2  A    between atoms: C_9  and  O_18
REMARK    3  A    between atoms: N_12  and  C_15
REMARK    4  A    between atoms: O_18  and  C_21
REMARK    5  A    between atoms: C_24  and  O_29
REMARK    6  A    between atoms: C_27  and  O_31
REMARK                            x       y       z     vdW  Elec       q    Type
REMARK                         _______ _______ _______ _____ _____    ______ ____
ROOT
ATOM      1  C   UNL     1      35.333 -18.481 -21.822  0.00  0.00    +0.053 C 
ATOM      2  C   UNL     1      34.713 -19.502 -21.082  0.00  0.00    +0.005 C 
ATOM      3  C   UNL     1      36.722 -18.360 -21.842  0.00  0.00    +0.005 C 
ATOM      4  C   UNL     1      35.514 -20.412 -20.353  0.00  0.00    +0.003 C 
ATOM      5  C   UNL     1      33.316 -19.638 -21.051  0.00  0.00    +0.003 C 
ATOM      6  C   UNL     1      37.510 -19.256 -21.125  0.00  0.00    +0.000 C 
ATOM      7  C   UNL     1      36.911 -20.276 -20.385  0.00  0.00    +0.000 C 
ATOM      8  C   UNL     1      34.894 -21.433 -19.614  0.00  0.00    +0.037 C 
ATOM      9  C   UNL     1      33.504 -21.554 -19.594  0.00  0.00    +0.145 C 
ATOM     10  C   UNL     1      32.717 -20.658 -20.311  0.00  0.00    +0.037 C 
ENDROOT
BRANCH   1  13
ATOM     11  O   UNL     1      34.360 -17.696 -23.807  0.00  0.00    -0.270 OA
ATOM     12  N   UNL     1      34.135 -16.363 -21.926  0.00  0.00    -0.302 N 
ATOM     13  C   UNL     1      34.575 -17.505 -22.599  0.00  0.00    +0.246 C 
ATOM     14  H   UNL     1      34.341 -16.276 -20.966  0.00  0.00    +0.150 HD
BRANCH  12  15
ATOM     15  C   UNL     1      33.398 -15.309 -22.564  0.00  0.00    +0.072 C 
ATOM     16  C   UNL     1      33.958 -13.926 -22.643  0.00  0.00    +0.021 C 
ATOM     17  C   UNL     1      32.780 -14.213 -21.760  0.00  0.00    +0.021 C 
ENDBRANCH  12  15
ENDBRANCH   1  13
BRANCH   9  18
ATOM     18  O   UNL     1      32.918 -22.549 -18.874  0.00  0.00    -0.453 OA
BRANCH  18  21
ATOM     19  N   UNL     1      34.564 -23.390 -15.162  0.00  0.00    -0.244 NA
ATOM     20  C   UNL     1      32.628 -23.280 -16.591  0.00  0.00    +0.055 C 
ATOM     21  C   UNL     1      33.445 -22.836 -17.626  0.00  0.00    +0.148 C 
ATOM     22  C   UNL     1      33.241 -23.551 -15.351  0.00  0.00    +0.087 C 
ATOM     23  C   UNL     1      31.244 -23.460 -16.753  0.00  0.00    +0.045 C 
ATOM     24  C   UNL     1      30.463 -23.906 -15.691  0.00  0.00    +0.173 C 
ATOM     25  C   UNL     1      34.801 -22.666 -17.452  0.00  0.00    +0.058 C 
ATOM     26  C   UNL     1      32.436 -23.996 -14.306  0.00  0.00    +0.059 C 
ATOM     27  C   UNL     1      31.059 -24.175 -14.465  0.00  0.00    +0.174 C 
ATOM     28  C   UNL     1      35.310 -22.956 -16.203  0.00  0.00    +0.102 C 
BRANCH  24  29
ATOM     29  O   UNL     1      29.122 -24.075 -15.863  0.00  0.00    -0.468 OA
ATOM     30  C   UNL     1      28.335 -22.896 -16.025  0.00  0.00    +0.253 C 
ENDBRANCH  24  29
BRANCH  27  31
ATOM     31  O   UNL     1      30.315 -24.613 -13.413  0.00  0.00    -0.468 OA
ATOM     32  C   UNL     1      30.301 -23.797 -12.244  0.00  0.00    +0.253 C 
ENDBRANCH  27  31
ENDBRANCH  18  21
ENDBRANCH   9  18
TORSDOF 6
ENDMDL
MODEL 5
REMARK VINA RESULT:     -10.2      8.647     12.510
REMARK  Name = 11441375
REMARK  6 active torsions:
REMARK  status: ('A' for Active; 'I' for Inactive)
REMARK    1  A    between atoms: C_1  and  C_13
REMARK    2  A    between atoms: C_9  and  O_18
REMARK    3  A    between atoms: N_12  and  C_15
REMARK    4  A    between atoms: O_18  and  C_21
REMARK    5  A    between atoms: C_24  and  O_29
REMARK    6  A    between atoms: C_27  and  O_31
REMARK                            x       y       z     vdW  Elec       q    Type
REMARK                         _______ _______ _______ _____ _____    ______ ____
ROOT
ATOM      1  C   UNL     1      33.206  -7.455 -23.233  0.00  0.00    +0.053 C 
ATOM      2  C   UNL     1      32.768  -8.778 -23.054  0.00  0.00    +0.005 C 
ATOM      3  C   UNL     1      34.400  -7.185 -23.902  0.00  0.00    +0.005 C 
ATOM      4  C   UNL     1      33.553  -9.840 -23.561  0.00  0.00    +0.003 C 
ATOM      5  C   UNL     1      31.569  -9.067 -22.383  0.00  0.00    +0.003 C 
ATOM      6  C   UNL     1      35.171  -8.231 -24.400  0.00  0.00    +0.000 C 
ATOM      7  C   UNL     1      34.752  -9.551 -24.231  0.00  0.00    +0.000 C 
ATOM      8  C   UNL     1      33.114 -11.163 -23.382  0.00  0.00    +0.037 C 
ATOM      9  C   UNL     1      31.920 -11.433 -22.714  0.00  0.00    +0.145 C 
ATOM     10  C   UNL     1      31.149 -10.387 -22.216  0.00  0.00    +0.037 C 
ENDROOT
BRANCH   1  13
ATOM     11  O   UNL     1      32.311  -6.126 -21.520  0.00  0.00    -0.270 OA
ATOM     12  N   UNL     1      31.897  -5.455 -23.698  0.00  0.00    -0.302 N 
ATOM     13  C   UNL     1      32.453  -6.306 -22.740  0.00  0.00    +0.246 C 
ATOM     14  H   UNL     1      32.049  -5.658 -24.650  0.00  0.00    +0.150 HD
BRANCH  12  15
ATOM     15  C   UNL     1      31.114  -4.298 -23.364  0.00  0.00    +0.072 C 
ATOM     16  C   UNL     1      30.761  -3.289 -24.406  0.00  0.00    +0.021 C 
ATOM     17  C   UNL     1      31.736  -2.941 -23.320  0.00  0.00    +0.021 C 
ENDBRANCH  12  15
ENDBRANCH   1  13
BRANCH   9  18
ATOM     18  O   UNL     1      31.507 -12.719 -22.550  0.00  0.00    -0.453 OA
BRANCH  18  21
ATOM     19  N   UNL     1      34.304 -15.471 -21.208  0.00  0.00    -0.244 NA
ATOM     20  C   UNL     1      33.077 -14.490 -23.034  0.00  0.00    +0.055 C 
ATOM     21  C   UNL     1      32.445 -13.647 -22.126  0.00  0.00    +0.148 C 
ATOM     22  C   UNL     1      34.019 -15.406 -22.522  0.00  0.00    +0.087 C 
ATOM     23  C   UNL     1      32.804 -14.449 -24.411  0.00  0.00    +0.045 C 
ATOM     24  C   UNL     1      33.459 -15.311 -25.285  0.00  0.00    +0.173 C 
ATOM     25  C   UNL     1      32.723 -13.698 -20.778  0.00  0.00    +0.058 C 
ATOM     26  C   UNL     1      34.660 -16.256 -23.418  0.00  0.00    +0.059 C 
ATOM     27  C   UNL     1      34.389 -16.216 -24.788  0.00  0.00    +0.174 C 
ATOM     28  C   UNL     1      33.660 -14.627 -20.370  0.00  0.00    +0.102 C 
BRANCH  24  29
ATOM     29  O   UNL     1      33.184 -15.259 -26.618  0.00  0.00    -0.468 OA
ATOM     30  C   UNL     1      33.148 -13.966 -27.223  0.00  0.00    +0.253 C 
ENDBRANCH  24  29
BRANCH  27  31
ATOM     31  O   UNL     1      35.042 -17.068 -25.625  0.00  0.00    -0.468 OA
ATOM     32  C   UNL     1      34.852 -18.465 -25.408  0.00  0.00    +0.253 C 
ENDBRANCH  27  31
ENDBRANCH  18  21
ENDBRANCH   9  18
TORSDOF 6
ENDMDL
MODEL 6
REMARK VINA RESULT:     -10.2      2.705     10.007
REMARK  Name = 11441375
REMARK  6 active torsions:
REMARK  status: ('A' for Active; 'I' for Inactive)
REMARK    1  A    between atoms: C_1  and  C_13
REMARK    2  A    between atoms: C_9  and  O_18
REMARK    3  A    between atoms: N_12  and  C_15
REMARK    4  A    between atoms: O_18  and  C_21
REMARK    5  A    between atoms: C_24  and  O_29
REMARK    6  A    between atoms: C_27  and  O_31
REMARK                            x       y       z     vdW  Elec       q    Type
REMARK                         _______ _______ _______ _____ _____    ______ ____
ROOT
ATOM      1  C   UNL     1      34.694 -22.162 -18.572  0.00  0.00    +0.053 C 
ATOM      2  C   UNL     1      34.635 -21.169 -19.564  0.00  0.00    +0.005 C 
ATOM      3  C   UNL     1      35.878 -22.403 -17.875  0.00  0.00    +0.005 C 
ATOM      4  C   UNL     1      35.794 -20.411 -19.852  0.00  0.00    +0.003 C 
ATOM      5  C   UNL     1      33.452 -20.914 -20.275  0.00  0.00    +0.003 C 
ATOM      6  C   UNL     1      37.018 -21.656 -18.159  0.00  0.00    +0.000 C 
ATOM      7  C   UNL     1      36.978 -20.666 -19.142  0.00  0.00    +0.000 C 
ATOM      8  C   UNL     1      35.736 -19.418 -20.845  0.00  0.00    +0.037 C 
ATOM      9  C   UNL     1      34.551 -19.177 -21.541  0.00  0.00    +0.145 C 
ATOM     10  C   UNL     1      33.412 -19.924 -21.257  0.00  0.00    +0.037 C 
ENDROOT
BRANCH   1  13
ATOM     11  O   UNL     1      33.348 -24.072 -18.784  0.00  0.00    -0.270 OA
ATOM     12  N   UNL     1      32.679 -22.479 -17.241  0.00  0.00    -0.302 N 
ATOM     13  C   UNL     1      33.541 -22.985 -18.217  0.00  0.00    +0.246 C 
ATOM     14  H   UNL     1      32.893 -21.608 -16.832  0.00  0.00    +0.150 HD
BRANCH  12  15
ATOM     15  C   UNL     1      31.495 -23.165 -16.805  0.00  0.00    +0.072 C 
ATOM     16  C   UNL     1      30.704 -22.658 -15.644  0.00  0.00    +0.021 C 
ATOM     17  C   UNL     1      31.486 -23.934 -15.524  0.00  0.00    +0.021 C 
ENDBRANCH  12  15
ENDBRANCH   1  13
BRANCH   9  18
ATOM     18  O   UNL     1      34.510 -18.211 -22.498  0.00  0.00    -0.453 OA
BRANCH  18  21
ATOM     19  N   UNL     1      34.317 -14.286 -21.172  0.00  0.00    -0.244 NA
ATOM     20  C   UNL     1      34.192 -15.867 -22.986  0.00  0.00    +0.055 C 
ATOM     21  C   UNL     1      34.441 -16.892 -22.079  0.00  0.00    +0.148 C 
ATOM     22  C   UNL     1      34.138 -14.552 -22.479  0.00  0.00    +0.087 C 
ATOM     23  C   UNL     1      34.000 -16.108 -24.356  0.00  0.00    +0.045 C 
ATOM     24  C   UNL     1      33.753 -15.052 -25.229  0.00  0.00    +0.173 C 
ATOM     25  C   UNL     1      34.627 -16.641 -20.738  0.00  0.00    +0.058 C 
ATOM     26  C   UNL     1      33.889 -13.515 -23.375  0.00  0.00    +0.059 C 
ATOM     27  C   UNL     1      33.698 -13.753 -24.738  0.00  0.00    +0.174 C 
ATOM     28  C   UNL     1      34.556 -15.322 -20.335  0.00  0.00    +0.102 C 
BRANCH  24  29
ATOM     29  O   UNL     1      33.568 -15.302 -26.555  0.00  0.00    -0.468 OA
ATOM     30  C   UNL     1      32.269 -15.731 -26.959  0.00  0.00    +0.253 C 
ENDBRANCH  24  29
BRANCH  27  31
ATOM     31  O   UNL     1      33.457 -12.706 -25.573  0.00  0.00    -0.468 OA
ATOM     32  C   UNL     1      34.237 -11.528 -25.378  0.00  0.00    +0.253 C 
ENDBRANCH  27  31
ENDBRANCH  18  21
ENDBRANCH   9  18
TORSDOF 6
ENDMDL
MODEL 7
REMARK VINA RESULT:      -9.9      2.849     10.390
REMARK  Name = 11441375
REMARK  6 active torsions:
REMARK  status: ('A' for Active; 'I' for Inactive)
REMARK    1  A    between atoms: C_1  and  C_13
REMARK    2  A    between atoms: C_9  and  O_18
REMARK    3  A    between atoms: N_12  and  C_15
REMARK    4  A    between atoms: O_18  and  C_21
REMARK    5  A    between atoms: C_24  and  O_29
REMARK    6  A    between atoms: C_27  and  O_31
REMARK                            x       y       z     vdW  Elec       q    Type
REMARK                         _______ _______ _______ _____ _____    ______ ____
ROOT
ATOM      1  C   UNL     1      34.883 -21.233 -19.648  0.00  0.00    +0.053 C 
ATOM      2  C   UNL     1      34.633 -20.068 -20.392  0.00  0.00    +0.005 C 
ATOM      3  C   UNL     1      36.190 -21.621 -19.351  0.00  0.00    +0.005 C 
ATOM      4  C   UNL     1      35.724 -19.287 -20.841  0.00  0.00    +0.003 C 
ATOM      5  C   UNL     1      33.324 -19.663 -20.700  0.00  0.00    +0.003 C 
ATOM      6  C   UNL     1      37.262 -20.852 -19.793  0.00  0.00    +0.000 C 
ATOM      7  C   UNL     1      37.032 -19.692 -20.534  0.00  0.00    +0.000 C 
ATOM      8  C   UNL     1      35.473 -18.122 -21.586  0.00  0.00    +0.037 C 
ATOM      9  C   UNL     1      34.167 -17.734 -21.882  0.00  0.00    +0.145 C 
ATOM     10  C   UNL     1      33.094 -18.503 -21.440  0.00  0.00    +0.037 C 
ENDROOT
BRANCH   1  13
ATOM     11  O   UNL     1      32.809 -22.311 -19.848  0.00  0.00    -0.270 OA
ATOM     12  N   UNL     1      33.967 -22.614 -17.864  0.00  0.00    -0.302 N 
ATOM     13  C   UNL     1      33.811 -22.090 -19.149  0.00  0.00    +0.246 C 
ATOM     14  H   UNL     1      34.788 -22.397 -17.365  0.00  0.00    +0.150 HD
BRANCH  12  15
ATOM     15  C   UNL     1      32.988 -23.455 -17.234  0.00  0.00    +0.072 C 
ATOM     16  C   UNL     1      31.730 -22.873 -16.675  0.00  0.00    +0.021 C 
ATOM     17  C   UNL     1      32.784 -23.415 -15.755  0.00  0.00    +0.021 C 
ENDBRANCH  12  15
ENDBRANCH   1  13
BRANCH   9  18
ATOM     18  O   UNL     1      33.940 -16.602 -22.603  0.00  0.00    -0.453 OA
BRANCH  18  21
ATOM     19  N   UNL     1      32.335 -13.378 -20.546  0.00  0.00    -0.244 NA
ATOM     20  C   UNL     1      33.307 -14.272 -22.561  0.00  0.00    +0.055 C 
ATOM     21  C   UNL     1      33.408 -15.510 -21.936  0.00  0.00    +0.148 C 
ATOM     22  C   UNL     1      32.754 -13.211 -21.815  0.00  0.00    +0.087 C 
ATOM     23  C   UNL     1      33.733 -14.062 -23.884  0.00  0.00    +0.045 C 
ATOM     24  C   UNL     1      33.614 -12.806 -24.471  0.00  0.00    +0.173 C 
ATOM     25  C   UNL     1      32.986 -15.701 -20.639  0.00  0.00    +0.058 C 
ATOM     26  C   UNL     1      32.646 -11.966 -22.427  0.00  0.00    +0.059 C 
ATOM     27  C   UNL     1      33.070 -11.755 -23.741  0.00  0.00    +0.174 C 
ATOM     28  C   UNL     1      32.457 -14.604 -19.988  0.00  0.00    +0.102 C 
BRANCH  24  29
ATOM     29  O   UNL     1      34.031 -12.618 -25.754  0.00  0.00    -0.468 OA
ATOM     30  C   UNL     1      33.298 -13.289 -26.778  0.00  0.00    +0.253 C 
ENDBRANCH  24  29
BRANCH  27  31
ATOM     31  O   UNL     1      32.942 -10.519 -24.296  0.00  0.00    -0.468 OA
ATOM     32  C   UNL     1      33.878  -9.524 -23.885  0.00  0.00    +0.253 C 
ENDBRANCH  27  31
ENDBRANCH  18  21
ENDBRANCH   9  18
TORSDOF 6
ENDMDL
MODEL 8
REMARK VINA RESULT:      -9.8      2.907     10.444
REMARK  Name = 11441375
REMARK  6 active torsions:
REMARK  status: ('A' for Active; 'I' for Inactive)
REMARK    1  A    between atoms: C_1  and  C_13
REMARK    2  A    between atoms: C_9  and  O_18
REMARK    3  A    between atoms: N_12  and  C_15
REMARK    4  A    between atoms: O_18  and  C_21
REMARK    5  A    between atoms: C_24  and  O_29
REMARK    6  A    between atoms: C_27  and  O_31
REMARK                            x       y       z     vdW  Elec       q    Type
REMARK                         _______ _______ _______ _____ _____    ______ ____
ROOT
ATOM      1  C   UNL     1      35.039 -21.743 -19.447  0.00  0.00    +0.053 C 
ATOM      2  C   UNL     1      34.657 -20.535 -20.054  0.00  0.00    +0.005 C 
ATOM      3  C   UNL     1      36.387 -22.045 -19.249  0.00  0.00    +0.005 C 
ATOM      4  C   UNL     1      35.655 -19.621 -20.465  0.00  0.00    +0.003 C 
ATOM      5  C   UNL     1      33.305 -20.216 -20.260  0.00  0.00    +0.003 C 
ATOM      6  C   UNL     1      37.369 -21.145 -19.654  0.00  0.00    +0.000 C 
ATOM      7  C   UNL     1      37.007 -19.941 -20.259  0.00  0.00    +0.000 C 
ATOM      8  C   UNL     1      35.273 -18.414 -21.072  0.00  0.00    +0.037 C 
ATOM      9  C   UNL     1      33.925 -18.111 -21.269  0.00  0.00    +0.145 C 
ATOM     10  C   UNL     1      32.944 -19.011 -20.864  0.00  0.00    +0.037 C 
ENDROOT
BRANCH   1  13
ATOM     11  O   UNL     1      33.810 -23.725 -19.697  0.00  0.00    -0.270 OA
ATOM     12  N   UNL     1      33.447 -22.498 -17.765  0.00  0.00    -0.302 N 
ATOM     13  C   UNL     1      34.068 -22.735 -18.994  0.00  0.00    +0.246 C 
ATOM     14  H   UNL     1      33.700 -21.691 -17.260  0.00  0.00    +0.150 HD
BRANCH  12  15
ATOM     15  C   UNL     1      32.458 -23.374 -17.203  0.00  0.00    +0.072 C 
ATOM     16  C   UNL     1      31.243 -22.821 -16.532  0.00  0.00    +0.021 C 
ATOM     17  C   UNL     1      32.306 -23.505 -15.723  0.00  0.00    +0.021 C 
ENDBRANCH  12  15
ENDBRANCH   1  13
BRANCH   9  18
ATOM     18  O   UNL     1      33.570 -16.936 -21.857  0.00  0.00    -0.453 OA
BRANCH  18  21
ATOM     19  N   UNL     1      34.467 -16.526 -25.885  0.00  0.00    -0.244 NA
ATOM     20  C   UNL     1      33.741 -15.532 -23.814  0.00  0.00    +0.055 C 
ATOM     21  C   UNL     1      33.864 -16.775 -23.201  0.00  0.00    +0.148 C 
ATOM     22  C   UNL     1      34.059 -15.451 -25.185  0.00  0.00    +0.087 C 
ATOM     23  C   UNL     1      33.319 -14.389 -23.114  0.00  0.00    +0.045 C 
ATOM     24  C   UNL     1      33.209 -13.165 -23.767  0.00  0.00    +0.173 C 
ATOM     25  C   UNL     1      34.280 -17.887 -23.899  0.00  0.00    +0.058 C 
ATOM     26  C   UNL     1      33.941 -14.214 -25.813  0.00  0.00    +0.059 C 
ATOM     27  C   UNL     1      33.521 -13.076 -25.118  0.00  0.00    +0.174 C 
ATOM     28  C   UNL     1      34.568 -17.709 -25.238  0.00  0.00    +0.102 C 
BRANCH  24  29
ATOM     29  O   UNL     1      32.799 -12.066 -23.075  0.00  0.00    -0.468 OA
ATOM     30  C   UNL     1      31.920 -12.284 -21.972  0.00  0.00    +0.253 C 
ENDBRANCH  24  29
BRANCH  27  31
ATOM     31  O   UNL     1      33.422 -11.889 -25.777  0.00  0.00    -0.468 OA
ATOM     32  C   UNL     1      34.573 -11.048 -25.773  0.00  0.00    +0.253 C 
ENDBRANCH  27  31
ENDBRANCH  18  21
ENDBRANCH   9  18
TORSDOF 6
ENDMDL
MODEL 9
REMARK VINA RESULT:      -9.7      8.558     12.418
REMARK  Name = 11441375
REMARK  6 active torsions:
REMARK  status: ('A' for Active; 'I' for Inactive)
REMARK    1  A    between atoms: C_1  and  C_13
REMARK    2  A    between atoms: C_9  and  O_18
REMARK    3  A    between atoms: N_12  and  C_15
REMARK    4  A    between atoms: O_18  and  C_21
REMARK    5  A    between atoms: C_24  and  O_29
REMARK    6  A    between atoms: C_27  and  O_31
REMARK                            x       y       z     vdW  Elec       q    Type
REMARK                         _______ _______ _______ _____ _____    ______ ____
ROOT
ATOM      1  C   UNL     1      33.114  -7.508 -22.502  0.00  0.00    +0.053 C 
ATOM      2  C   UNL     1      32.725  -8.857 -22.462  0.00  0.00    +0.005 C 
ATOM      3  C   UNL     1      32.884  -6.668 -21.413  0.00  0.00    +0.005 C 
ATOM      4  C   UNL     1      32.094  -9.360 -21.300  0.00  0.00    +0.003 C 
ATOM      5  C   UNL     1      32.950  -9.716 -23.549  0.00  0.00    +0.003 C 
ATOM      6  C   UNL     1      32.262  -7.163 -20.270  0.00  0.00    +0.000 C 
ATOM      7  C   UNL     1      31.869  -8.501 -20.213  0.00  0.00    +0.000 C 
ATOM      8  C   UNL     1      31.705 -10.709 -21.260  0.00  0.00    +0.037 C 
ATOM      9  C   UNL     1      31.937 -11.550 -22.349  0.00  0.00    +0.145 C 
ATOM     10  C   UNL     1      32.558 -11.055 -23.491  0.00  0.00    +0.037 C 
ENDROOT
BRANCH   1  13
ATOM     11  O   UNL     1      34.987  -7.088 -23.852  0.00  0.00    -0.270 OA
ATOM     12  N   UNL     1      32.977  -6.147 -24.517  0.00  0.00    -0.302 N 
ATOM     13  C   UNL     1      33.772  -6.916 -23.664  0.00  0.00    +0.246 C 
ATOM     14  H   UNL     1      32.019  -6.052 -24.307  0.00  0.00    +0.150 HD
BRANCH  12  15
ATOM     15  C   UNL     1      33.488  -5.487 -25.686  0.00  0.00    +0.072 C 
ATOM     16  C   UNL     1      33.199  -4.042 -25.933  0.00  0.00    +0.021 C 
ATOM     17  C   UNL     1      32.578  -5.096 -26.803  0.00  0.00    +0.021 C 
ENDBRANCH  12  15
ENDBRANCH   1  13
BRANCH   9  18
ATOM     18  O   UNL     1      31.556 -12.855 -22.294  0.00  0.00    -0.453 OA
BRANCH  18  21
ATOM     19  N   UNL     1      34.427 -15.639 -21.193  0.00  0.00    -0.244 NA
ATOM     20  C   UNL     1      33.118 -14.587 -22.921  0.00  0.00    +0.055 C 
ATOM     21  C   UNL     1      32.517 -13.792 -21.951  0.00  0.00    +0.148 C 
ATOM     22  C   UNL     1      34.087 -15.517 -22.490  0.00  0.00    +0.087 C 
ATOM     23  C   UNL     1      32.788 -14.486 -24.283  0.00  0.00    +0.045 C 
ATOM     24  C   UNL     1      33.413 -15.302 -25.222  0.00  0.00    +0.173 C 
ATOM     25  C   UNL     1      32.851 -13.902 -20.619  0.00  0.00    +0.058 C 
ATOM     26  C   UNL     1      34.697 -16.319 -23.450  0.00  0.00    +0.059 C 
ATOM     27  C   UNL     1      34.369 -16.220 -24.805  0.00  0.00    +0.174 C 
ATOM     28  C   UNL     1      33.811 -14.840 -20.293  0.00  0.00    +0.102 C 
BRANCH  24  29
ATOM     29  O   UNL     1      33.083 -15.192 -26.538  0.00  0.00    -0.468 OA
ATOM     30  C   UNL     1      33.185 -13.895 -27.127  0.00  0.00    +0.253 C 
ENDBRANCH  24  29
BRANCH  27  31
ATOM     31  O   UNL     1      34.995 -17.027 -25.706  0.00  0.00    -0.468 OA
ATOM     32  C   UNL     1      34.892 -18.434 -25.496  0.00  0.00    +0.253 C 
ENDBRANCH  27  31
ENDBRANCH  18  21
ENDBRANCH   9  18
TORSDOF 6
ENDMDL
