MODEL 1
REMARK VINA RESULT:     -12.4      0.000      0.000
REMARK  Name = 5326869
REMARK  6 active torsions:
REMARK  status: ('A' for Active; 'I' for Inactive)
REMARK    1  A    between atoms: N_2  and  C_11
REMARK    2  A    between atoms: C_3  and  C_25
REMARK    3  A    between atoms: N_5  and  C_14
REMARK    4  A    between atoms: C_14  and  C_15
REMARK    5  A    between atoms: C_15  and  C_17
REMARK    6  A    between atoms: C_23  and  N_30
REMARK                            x       y       z     vdW  Elec       q    Type
REMARK                         _______ _______ _______ _____ _____    ______ ____
ROOT
ATOM      1  O   UNL     1      32.678 -21.317 -20.463  0.00  0.00    -0.270 OA
ATOM      2  N   UNL     1      34.700 -20.155 -20.159  0.00  0.00    -0.280 N 
ATOM      3  C   UNL     1      33.710 -21.095 -19.840  0.00  0.00    +0.250 C 
ATOM      4  H   UNL     1      35.467 -20.110 -19.544  0.00  0.00    +0.155 HD
ENDROOT
BRANCH   2  11
ATOM      5  N   UNL     1      34.437 -15.694 -22.217  0.00  0.00    -0.286 N 
ATOM      6  C   UNL     1      34.585 -17.061 -22.134  0.00  0.00    +0.053 C 
ATOM      7  C   UNL     1      34.800 -17.530 -23.431  0.00  0.00    +0.015 C 
ATOM      8  C   UNL     1      34.551 -15.286 -23.519  0.00  0.00    +0.065 C 
ATOM      9  C   UNL     1      34.544 -17.907 -21.020  0.00  0.00    +0.029 C 
ATOM     10  C   UNL     1      34.777 -16.399 -24.295  0.00  0.00    +0.017 C 
ATOM     11  C   UNL     1      34.731 -19.275 -21.242  0.00  0.00    +0.052 C 
ATOM     12  C   UNL     1      34.986 -18.913 -23.629  0.00  0.00    +0.003 C 
ATOM     13  C   UNL     1      34.948 -19.772 -22.525  0.00  0.00    +0.015 C 
BRANCH   5  14
ATOM     14  C   UNL     1      34.196 -14.805 -21.102  0.00  0.00    +0.100 C 
BRANCH  14  15
ATOM     15  C   UNL     1      32.709 -14.575 -20.813  0.00  0.00    +0.048 C 
BRANCH  15  17
ATOM     16  N   UNL     1      31.455 -10.531 -21.471  0.00  0.00    -0.242 NA
ATOM     17  C   UNL     1      32.267 -13.152 -21.044  0.00  0.00    -0.017 C 
ATOM     18  C   UNL     1      31.880 -12.375 -19.969  0.00  0.00    +0.016 C 
ATOM     19  C   UNL     1      32.256 -12.643 -22.330  0.00  0.00    +0.016 C 
ATOM     20  C   UNL     1      31.483 -11.075 -20.234  0.00  0.00    +0.099 C 
ATOM     21  C   UNL     1      31.842 -11.331 -22.490  0.00  0.00    +0.099 C 
ENDBRANCH  15  17
ENDBRANCH  14  15
ENDBRANCH   5  14
ENDBRANCH   2  11
BRANCH   3  25
ATOM     22  F   UNL     1      36.721 -22.967 -16.552  0.00  0.00    -0.204 F 
ATOM     23  C   UNL     1      33.092 -23.119 -16.748  0.00  0.00    +0.050 C 
ATOM     24  C   UNL     1      32.867 -22.390 -17.916  0.00  0.00    +0.019 C 
ATOM     25  C   UNL     1      33.949 -21.873 -18.597  0.00  0.00    +0.057 C 
ATOM     26  C   UNL     1      34.393 -23.314 -16.288  0.00  0.00    +0.044 C 
ATOM     27  C   UNL     1      35.246 -22.052 -18.162  0.00  0.00    +0.034 C 
ATOM     28  C   UNL     1      35.471 -22.781 -16.995  0.00  0.00    +0.142 C 
BRANCH  23  30
ATOM     29  O   UNL     1      29.794 -24.473 -14.517  0.00  0.00    -0.350 OA
ATOM     30  N   UNL     1      32.011 -23.653 -16.039  0.00  0.00    -0.303 N 
ATOM     31  C   UNL     1      32.182 -24.056 -14.638  0.00  0.00    +0.123 C 
ATOM     32  C   UNL     1      30.657 -23.215 -16.404  0.00  0.00    +0.123 C 
ATOM     33  C   UNL     1      31.079 -25.032 -14.245  0.00  0.00    +0.164 C 
ATOM     34  C   UNL     1      29.636 -24.237 -15.916  0.00  0.00    +0.164 C 
ENDBRANCH  23  30
ENDBRANCH   3  25
TORSDOF 6
ENDMDL
MODEL 2
REMARK VINA RESULT:     -12.4      5.233     12.342
REMARK  Name = 5326869
REMARK  6 active torsions:
REMARK  status: ('A' for Active; 'I' for Inactive)
REMARK    1  A    between atoms: N_2  and  C_11
REMARK    2  A    between atoms: C_3  and  C_25
REMARK    3  A    between atoms: N_5  and  C_14
REMARK    4  A    between atoms: C_14  and  C_15
REMARK    5  A    between atoms: C_15  and  C_17
REMARK    6  A    between atoms: C_23  and  N_30
REMARK                            x       y       z     vdW  Elec       q    Type
REMARK                         _______ _______ _______ _____ _____    ______ ____
ROOT
ATOM      1  O   UNL     1      34.247 -11.446 -24.824  0.00  0.00    -0.270 OA
ATOM      2  N   UNL     1      32.980 -12.944 -23.528  0.00  0.00    -0.280 N 
ATOM      3  C   UNL     1      33.420 -11.682 -23.950  0.00  0.00    +0.250 C 
ATOM      4  H   UNL     1      32.307 -12.949 -22.810  0.00  0.00    +0.155 HD
ENDROOT
BRANCH   2  11
ATOM      5  N   UNL     1      34.950 -17.423 -23.017  0.00  0.00    -0.286 N 
ATOM      6  C   UNL     1      34.354 -16.349 -23.638  0.00  0.00    +0.053 C 
ATOM      7  C   UNL     1      34.167 -16.700 -24.976  0.00  0.00    +0.015 C 
ATOM      8  C   UNL     1      35.145 -18.438 -23.914  0.00  0.00    +0.065 C 
ATOM      9  C   UNL     1      33.971 -15.105 -23.121  0.00  0.00    +0.029 C 
ATOM     10  C   UNL     1      34.670 -18.021 -25.136  0.00  0.00    +0.017 C 
ATOM     11  C   UNL     1      33.378 -14.195 -24.002  0.00  0.00    +0.052 C 
ATOM     12  C   UNL     1      33.566 -15.766 -25.844  0.00  0.00    +0.003 C 
ATOM     13  C   UNL     1      33.178 -14.519 -25.342  0.00  0.00    +0.015 C 
BRANCH   5  14
ATOM     14  C   UNL     1      35.322 -17.487 -21.620  0.00  0.00    +0.100 C 
BRANCH  14  15
ATOM     15  C   UNL     1      35.952 -18.824 -21.216  0.00  0.00    +0.048 C 
BRANCH  15  17
ATOM     16  N   UNL     1      33.126 -21.626 -19.624  0.00  0.00    -0.242 NA
ATOM     17  C   UNL     1      34.957 -19.809 -20.655  0.00  0.00    -0.017 C 
ATOM     18  C   UNL     1      33.604 -19.584 -20.826  0.00  0.00    +0.016 C 
ATOM     19  C   UNL     1      35.413 -20.926 -19.978  0.00  0.00    +0.016 C 
ATOM     20  C   UNL     1      32.732 -20.519 -20.293  0.00  0.00    +0.099 C 
ATOM     21  C   UNL     1      34.459 -21.801 -19.484  0.00  0.00    +0.099 C 
ENDBRANCH  15  17
ENDBRANCH  14  15
ENDBRANCH   5  14
ENDBRANCH   2  11
BRANCH   3  25
ATOM     22  F   UNL     1      31.310  -9.792 -20.031  0.00  0.00    -0.204 F 
ATOM     23  C   UNL     1      32.221  -8.217 -23.181  0.00  0.00    +0.050 C 
ATOM     24  C   UNL     1      32.778  -9.301 -23.859  0.00  0.00    +0.019 C 
ATOM     25  C   UNL     1      32.825 -10.527 -23.229  0.00  0.00    +0.057 C 
ATOM     26  C   UNL     1      31.726  -8.383 -21.889  0.00  0.00    +0.044 C 
ATOM     27  C   UNL     1      32.342 -10.718 -21.951  0.00  0.00    +0.034 C 
ATOM     28  C   UNL     1      31.785  -9.633 -21.273  0.00  0.00    +0.142 C 
BRANCH  23  30
ATOM     29  O   UNL     1      32.223  -4.357 -24.849  0.00  0.00    -0.350 OA
ATOM     30  N   UNL     1      32.161  -6.963 -23.798  0.00  0.00    -0.303 N 
ATOM     31  C   UNL     1      31.265  -5.929 -23.268  0.00  0.00    +0.123 C 
ATOM     32  C   UNL     1      33.368  -6.461 -24.469  0.00  0.00    +0.123 C 
ATOM     33  C   UNL     1      30.996  -4.881 -24.343  0.00  0.00    +0.164 C 
ATOM     34  C   UNL     1      32.987  -5.386 -25.479  0.00  0.00    +0.164 C 
ENDBRANCH  23  30
ENDBRANCH   3  25
TORSDOF 6
ENDMDL
MODEL 3
REMARK VINA RESULT:     -12.2      5.069     12.233
REMARK  Name = 5326869
REMARK  6 active torsions:
REMARK  status: ('A' for Active; 'I' for Inactive)
REMARK    1  A    between atoms: N_2  and  C_11
REMARK    2  A    between atoms: C_3  and  C_25
REMARK    3  A    between atoms: N_5  and  C_14
REMARK    4  A    between atoms: C_14  and  C_15
REMARK    5  A    between atoms: C_15  and  C_17
REMARK    6  A    between atoms: C_23  and  N_30
REMARK                            x       y       z     vdW  Elec       q    Type
REMARK                         _______ _______ _______ _____ _____    ______ ____
ROOT
ATOM      1  O   UNL     1      31.583 -12.743 -21.882  0.00  0.00    -0.270 OA
ATOM      2  N   UNL     1      33.233 -12.340 -23.508  0.00  0.00    -0.280 N 
ATOM      3  C   UNL     1      32.338 -11.990 -22.488  0.00  0.00    +0.250 C 
ATOM      4  H   UNL     1      33.765 -11.603 -23.886  0.00  0.00    +0.155 HD
ENDROOT
BRANCH   2  11
ATOM      5  N   UNL     1      34.750 -17.015 -23.303  0.00  0.00    -0.286 N 
ATOM      6  C   UNL     1      34.228 -15.859 -23.840  0.00  0.00    +0.053 C 
ATOM      7  C   UNL     1      33.910 -16.132 -25.172  0.00  0.00    +0.015 C 
ATOM      8  C   UNL     1      34.772 -18.006 -24.248  0.00  0.00    +0.065 C 
ATOM      9  C   UNL     1      34.017 -14.606 -23.253  0.00  0.00    +0.029 C 
ATOM     10  C   UNL     1      34.258 -17.490 -25.415  0.00  0.00    +0.017 C 
ATOM     11  C   UNL     1      33.462 -13.603 -24.054  0.00  0.00    +0.052 C 
ATOM     12  C   UNL     1      33.352 -15.104 -25.959  0.00  0.00    +0.003 C 
ATOM     13  C   UNL     1      33.135 -13.847 -25.386  0.00  0.00    +0.015 C 
BRANCH   5  14
ATOM     14  C   UNL     1      35.211 -17.177 -21.941  0.00  0.00    +0.100 C 
BRANCH  14  15
ATOM     15  C   UNL     1      35.969 -18.487 -21.704  0.00  0.00    +0.048 C 
BRANCH  15  17
ATOM     16  N   UNL     1      33.696 -21.399 -19.533  0.00  0.00    -0.242 NA
ATOM     17  C   UNL     1      35.169 -19.512 -20.941  0.00  0.00    -0.017 C 
ATOM     18  C   UNL     1      35.827 -20.481 -20.208  0.00  0.00    +0.016 C 
ATOM     19  C   UNL     1      33.788 -19.468 -20.984  0.00  0.00    +0.016 C 
ATOM     20  C   UNL     1      35.047 -21.400 -19.523  0.00  0.00    +0.099 C 
ATOM     21  C   UNL     1      33.099 -20.431 -20.265  0.00  0.00    +0.099 C 
ENDBRANCH  15  17
ENDBRANCH  14  15
ENDBRANCH   5  14
ENDBRANCH   2  11
BRANCH   3  25
ATOM     22  F   UNL     1      31.596  -8.443 -19.286  0.00  0.00    -0.204 F 
ATOM     23  C   UNL     1      32.578  -8.263 -22.784  0.00  0.00    +0.050 C 
ATOM     24  C   UNL     1      32.611  -9.618 -23.112  0.00  0.00    +0.019 C 
ATOM     25  C   UNL     1      32.300 -10.546 -22.141  0.00  0.00    +0.057 C 
ATOM     26  C   UNL     1      32.235  -7.866 -21.493  0.00  0.00    +0.044 C 
ATOM     27  C   UNL     1      31.958 -10.180 -20.855  0.00  0.00    +0.034 C 
ATOM     28  C   UNL     1      31.924  -8.824 -20.527  0.00  0.00    +0.142 C 
BRANCH  23  30
ATOM     29  O   UNL     1      33.646  -5.232 -25.497  0.00  0.00    -0.350 OA
ATOM     30  N   UNL     1      32.889  -7.302 -23.752  0.00  0.00    -0.303 N 
ATOM     31  C   UNL     1      32.047  -6.109 -23.896  0.00  0.00    +0.123 C 
ATOM     32  C   UNL     1      34.299  -7.121 -24.122  0.00  0.00    +0.123 C 
ATOM     33  C   UNL     1      32.261  -5.491 -25.274  0.00  0.00    +0.164 C 
ATOM     34  C   UNL     1      34.393  -6.450 -25.487  0.00  0.00    +0.164 C 
ENDBRANCH  23  30
ENDBRANCH   3  25
TORSDOF 6
ENDMDL
MODEL 4
REMARK VINA RESULT:     -12.1      2.364      3.217
REMARK  Name = 5326869
REMARK  6 active torsions:
REMARK  status: ('A' for Active; 'I' for Inactive)
REMARK    1  A    between atoms: N_2  and  C_11
REMARK    2  A    between atoms: C_3  and  C_25
REMARK    3  A    between atoms: N_5  and  C_14
REMARK    4  A    between atoms: C_14  and  C_15
REMARK    5  A    between atoms: C_15  and  C_17
REMARK    6  A    between atoms: C_23  and  N_30
REMARK                            x       y       z     vdW  Elec       q    Type
REMARK                         _______ _______ _______ _____ _____    ______ ____
ROOT
ATOM      1  O   UNL     1      36.592 -21.227 -20.055  0.00  0.00    -0.270 OA
ATOM      2  N   UNL     1      34.487 -20.185 -20.168  0.00  0.00    -0.280 N 
ATOM      3  C   UNL     1      35.445 -21.069 -19.652  0.00  0.00    +0.250 C 
ATOM      4  H   UNL     1      33.611 -20.189 -19.719  0.00  0.00    +0.155 HD
ENDROOT
BRANCH   2  11
ATOM      5  N   UNL     1      34.478 -15.710 -22.210  0.00  0.00    -0.286 N 
ATOM      6  C   UNL     1      34.593 -17.079 -22.125  0.00  0.00    +0.053 C 
ATOM      7  C   UNL     1      34.903 -17.546 -23.403  0.00  0.00    +0.015 C 
ATOM      8  C   UNL     1      34.705 -15.297 -23.496  0.00  0.00    +0.065 C 
ATOM      9  C   UNL     1      34.446 -17.931 -21.024  0.00  0.00    +0.029 C 
ATOM     10  C   UNL     1      34.972 -16.411 -24.258  0.00  0.00    +0.017 C 
ATOM     11  C   UNL     1      34.623 -19.301 -21.238  0.00  0.00    +0.052 C 
ATOM     12  C   UNL     1      35.078 -18.932 -23.595  0.00  0.00    +0.003 C 
ATOM     13  C   UNL     1      34.934 -19.795 -22.503  0.00  0.00    +0.015 C 
BRANCH   5  14
ATOM     14  C   UNL     1      34.166 -14.821 -21.112  0.00  0.00    +0.100 C 
BRANCH  14  15
ATOM     15  C   UNL     1      32.664 -14.583 -20.928  0.00  0.00    +0.048 C 
BRANCH  15  17
ATOM     16  N   UNL     1      31.498 -10.509 -21.569  0.00  0.00    -0.242 NA
ATOM     17  C   UNL     1      32.253 -13.149 -21.153  0.00  0.00    -0.017 C 
ATOM     18  C   UNL     1      31.866 -12.374 -20.077  0.00  0.00    +0.016 C 
ATOM     19  C   UNL     1      32.270 -12.630 -22.435  0.00  0.00    +0.016 C 
ATOM     20  C   UNL     1      31.498 -11.064 -20.337  0.00  0.00    +0.099 C 
ATOM     21  C   UNL     1      31.885 -11.308 -22.589  0.00  0.00    +0.099 C 
ENDBRANCH  15  17
ENDBRANCH  14  15
ENDBRANCH   5  14
ENDBRANCH   2  11
BRANCH   3  25
ATOM     22  F   UNL     1      31.963 -23.494 -17.332  0.00  0.00    -0.204 F 
ATOM     23  C   UNL     1      35.473 -23.058 -16.477  0.00  0.00    +0.050 C 
ATOM     24  C   UNL     1      35.901 -22.268 -17.544  0.00  0.00    +0.019 C 
ATOM     25  C   UNL     1      34.989 -21.909 -18.514  0.00  0.00    +0.057 C 
ATOM     26  C   UNL     1      34.143 -23.472 -16.406  0.00  0.00    +0.044 C 
ATOM     27  C   UNL     1      33.668 -22.305 -18.467  0.00  0.00    +0.034 C 
ATOM     28  C   UNL     1      33.240 -23.095 -17.400  0.00  0.00    +0.142 C 
BRANCH  23  30
ATOM     29  O   UNL     1      38.214 -23.927 -13.409  0.00  0.00    -0.350 OA
ATOM     30  N   UNL     1      36.377 -23.436 -15.480  0.00  0.00    -0.303 N 
ATOM     31  C   UNL     1      37.821 -23.373 -15.738  0.00  0.00    +0.123 C 
ATOM     32  C   UNL     1      35.984 -23.244 -14.077  0.00  0.00    +0.123 C 
ATOM     33  C   UNL     1      38.560 -24.268 -14.750  0.00  0.00    +0.164 C 
ATOM     34  C   UNL     1      36.821 -24.146 -13.179  0.00  0.00    +0.164 C 
ENDBRANCH  23  30
ENDBRANCH   3  25
TORSDOF 6
ENDMDL
MODEL 5
REMARK VINA RESULT:     -12.0      3.355     10.132
REMARK  Name = 5326869
REMARK  6 active torsions:
REMARK  status: ('A' for Active; 'I' for Inactive)
REMARK    1  A    between atoms: N_2  and  C_11
REMARK    2  A    between atoms: C_3  and  C_25
REMARK    3  A    between atoms: N_5  and  C_14
REMARK    4  A    between atoms: C_14  and  C_15
REMARK    5  A    between atoms: C_15  and  C_17
REMARK    6  A    between atoms: C_23  and  N_30
REMARK                            x       y       z     vdW  Elec       q    Type
REMARK                         _______ _______ _______ _____ _____    ______ ____
ROOT
ATOM      1  O   UNL     1      35.732 -18.273 -20.352  0.00  0.00    -0.270 OA
ATOM      2  N   UNL     1      35.182 -20.516 -20.791  0.00  0.00    -0.280 N 
ATOM      3  C   UNL     1      35.348 -19.161 -21.105  0.00  0.00    +0.250 C 
ATOM      4  H   UNL     1      34.863 -21.093 -21.523  0.00  0.00    +0.155 HD
ENDROOT
BRANCH   2  11
ATOM      5  N   UNL     1      33.792 -23.062 -16.818  0.00  0.00    -0.286 N 
ATOM      6  C   UNL     1      34.627 -22.389 -17.680  0.00  0.00    +0.053 C 
ATOM      7  C   UNL     1      35.905 -22.415 -17.120  0.00  0.00    +0.015 C 
ATOM      8  C   UNL     1      34.498 -23.512 -15.733  0.00  0.00    +0.065 C 
ATOM      9  C   UNL     1      34.350 -21.764 -18.902  0.00  0.00    +0.029 C 
ATOM     10  C   UNL     1      35.809 -23.127 -15.892  0.00  0.00    +0.017 C 
ATOM     11  C   UNL     1      35.414 -21.149 -19.569  0.00  0.00    +0.052 C 
ATOM     12  C   UNL     1      36.962 -21.788 -17.811  0.00  0.00    +0.003 C 
ATOM     13  C   UNL     1      36.700 -21.160 -19.034  0.00  0.00    +0.015 C 
BRANCH   5  14
ATOM     14  C   UNL     1      32.374 -23.274 -17.013  0.00  0.00    +0.100 C 
BRANCH  14  15
ATOM     15  C   UNL     1      31.587 -23.388 -15.703  0.00  0.00    +0.048 C 
BRANCH  15  17
ATOM     16  N   UNL     1      27.345 -23.112 -16.240  0.00  0.00    -0.242 NA
ATOM     17  C   UNL     1      30.094 -23.292 -15.891  0.00  0.00    -0.017 C 
ATOM     18  C   UNL     1      29.382 -22.325 -15.207  0.00  0.00    +0.016 C 
ATOM     19  C   UNL     1      29.458 -24.171 -16.748  0.00  0.00    +0.016 C 
ATOM     20  C   UNL     1      28.013 -22.277 -15.414  0.00  0.00    +0.099 C 
ATOM     21  C   UNL     1      28.086 -24.040 -16.886  0.00  0.00    +0.099 C 
ENDBRANCH  15  17
ENDBRANCH  14  15
ENDBRANCH   5  14
ENDBRANCH   2  11
BRANCH   3  25
ATOM     22  F   UNL     1      34.723 -20.311 -25.760  0.00  0.00    -0.204 F 
ATOM     23  C   UNL     1      34.288 -17.122 -24.065  0.00  0.00    +0.050 C 
ATOM     24  C   UNL     1      34.626 -17.477 -22.759  0.00  0.00    +0.019 C 
ATOM     25  C   UNL     1      34.990 -18.781 -22.497  0.00  0.00    +0.057 C 
ATOM     26  C   UNL     1      34.321 -18.079 -25.078  0.00  0.00    +0.044 C 
ATOM     27  C   UNL     1      35.030 -19.747 -23.481  0.00  0.00    +0.034 C 
ATOM     28  C   UNL     1      34.692 -19.392 -24.787  0.00  0.00    +0.142 C 
BRANCH  23  30
ATOM     29  O   UNL     1      33.410 -13.136 -25.075  0.00  0.00    -0.350 OA
ATOM     30  N   UNL     1      33.915 -15.806 -24.357  0.00  0.00    -0.303 N 
ATOM     31  C   UNL     1      34.367 -14.708 -23.495  0.00  0.00    +0.123 C 
ATOM     32  C   UNL     1      33.691 -15.445 -25.764  0.00  0.00    +0.123 C 
ATOM     33  C   UNL     1      33.469 -13.493 -23.695  0.00  0.00    +0.164 C 
ATOM     34  C   UNL     1      32.828 -14.190 -25.843  0.00  0.00    +0.164 C 
ENDBRANCH  23  30
ENDBRANCH   3  25
TORSDOF 6
ENDMDL
MODEL 6
REMARK VINA RESULT:     -11.8      3.392     10.163
REMARK  Name = 5326869
REMARK  6 active torsions:
REMARK  status: ('A' for Active; 'I' for Inactive)
REMARK    1  A    between atoms: N_2  and  C_11
REMARK    2  A    between atoms: C_3  and  C_25
REMARK    3  A    between atoms: N_5  and  C_14
REMARK    4  A    between atoms: C_14  and  C_15
REMARK    5  A    between atoms: C_15  and  C_17
REMARK    6  A    between atoms: C_23  and  N_30
REMARK                            x       y       z     vdW  Elec       q    Type
REMARK                         _______ _______ _______ _____ _____    ______ ____
ROOT
ATOM      1  O   UNL     1      35.895 -18.307 -20.406  0.00  0.00    -0.270 OA
ATOM      2  N   UNL     1      35.201 -20.520 -20.794  0.00  0.00    -0.280 N 
ATOM      3  C   UNL     1      35.439 -19.181 -21.134  0.00  0.00    +0.250 C 
ATOM      4  H   UNL     1      34.828 -21.087 -21.507  0.00  0.00    +0.155 HD
ENDROOT
BRANCH   2  11
ATOM      5  N   UNL     1      33.793 -23.051 -16.817  0.00  0.00    -0.286 N 
ATOM      6  C   UNL     1      34.632 -22.380 -17.678  0.00  0.00    +0.053 C 
ATOM      7  C   UNL     1      35.907 -22.402 -17.110  0.00  0.00    +0.015 C 
ATOM      8  C   UNL     1      34.493 -23.495 -15.727  0.00  0.00    +0.065 C 
ATOM      9  C   UNL     1      34.360 -21.761 -18.904  0.00  0.00    +0.029 C 
ATOM     10  C   UNL     1      35.805 -23.109 -15.880  0.00  0.00    +0.017 C 
ATOM     11  C   UNL     1      35.427 -21.147 -19.568  0.00  0.00    +0.052 C 
ATOM     12  C   UNL     1      36.966 -21.777 -17.799  0.00  0.00    +0.003 C 
ATOM     13  C   UNL     1      36.710 -21.154 -19.025  0.00  0.00    +0.015 C 
BRANCH   5  14
ATOM     14  C   UNL     1      32.376 -23.266 -17.019  0.00  0.00    +0.100 C 
BRANCH  14  15
ATOM     15  C   UNL     1      31.587 -23.402 -15.713  0.00  0.00    +0.048 C 
BRANCH  15  17
ATOM     16  N   UNL     1      27.348 -23.058 -16.241  0.00  0.00    -0.242 NA
ATOM     17  C   UNL     1      30.095 -23.280 -15.900  0.00  0.00    -0.017 C 
ATOM     18  C   UNL     1      29.444 -24.142 -16.761  0.00  0.00    +0.016 C 
ATOM     19  C   UNL     1      29.399 -22.309 -15.205  0.00  0.00    +0.016 C 
ATOM     20  C   UNL     1      28.073 -23.990 -16.897  0.00  0.00    +0.099 C 
ATOM     21  C   UNL     1      28.031 -22.239 -15.410  0.00  0.00    +0.099 C 
ENDBRANCH  15  17
ENDBRANCH  14  15
ENDBRANCH   5  14
ENDBRANCH   2  11
BRANCH   3  25
ATOM     22  F   UNL     1      34.714 -20.344 -25.772  0.00  0.00    -0.204 F 
ATOM     23  C   UNL     1      34.377 -17.136 -24.089  0.00  0.00    +0.050 C 
ATOM     24  C   UNL     1      34.728 -17.492 -22.786  0.00  0.00    +0.019 C 
ATOM     25  C   UNL     1      35.067 -18.802 -22.522  0.00  0.00    +0.057 C 
ATOM     26  C   UNL     1      34.373 -18.099 -25.097  0.00  0.00    +0.044 C 
ATOM     27  C   UNL     1      35.070 -19.774 -23.501  0.00  0.00    +0.034 C 
ATOM     28  C   UNL     1      34.719 -19.419 -24.804  0.00  0.00    +0.142 C 
BRANCH  23  30
ATOM     29  O   UNL     1      33.079 -13.214 -24.873  0.00  0.00    -0.350 OA
ATOM     30  N   UNL     1      34.029 -15.814 -24.383  0.00  0.00    -0.303 N 
ATOM     31  C   UNL     1      33.347 -15.499 -25.644  0.00  0.00    +0.123 C 
ATOM     32  C   UNL     1      33.724 -14.912 -23.265  0.00  0.00    +0.123 C 
ATOM     33  C   UNL     1      33.519 -14.019 -25.967  0.00  0.00    +0.164 C 
ATOM     34  C   UNL     1      33.876 -13.463 -23.714  0.00  0.00    +0.164 C 
ENDBRANCH  23  30
ENDBRANCH   3  25
TORSDOF 6
ENDMDL
MODEL 7
REMARK VINA RESULT:     -11.1      3.906      7.492
REMARK  Name = 5326869
REMARK  6 active torsions:
REMARK  status: ('A' for Active; 'I' for Inactive)
REMARK    1  A    between atoms: N_2  and  C_11
REMARK    2  A    between atoms: C_3  and  C_25
REMARK    3  A    between atoms: N_5  and  C_14
REMARK    4  A    between atoms: C_14  and  C_15
REMARK    5  A    between atoms: C_15  and  C_17
REMARK    6  A    between atoms: C_23  and  N_30
REMARK                            x       y       z     vdW  Elec       q    Type
REMARK                         _______ _______ _______ _____ _____    ______ ____
ROOT
ATOM      1  O   UNL     1      34.921 -14.593 -20.624  0.00  0.00    -0.270 OA
ATOM      2  N   UNL     1      33.062 -14.240 -22.019  0.00  0.00    -0.280 N 
ATOM      3  C   UNL     1      34.143 -14.963 -21.496  0.00  0.00    +0.250 C 
ATOM      4  H   UNL     1      32.539 -14.694 -22.720  0.00  0.00    +0.155 HD
ENDROOT
BRANCH   2  11
ATOM      5  N   UNL     1      32.744  -9.375 -22.676  0.00  0.00    -0.286 N 
ATOM      6  C   UNL     1      32.547 -10.604 -22.088  0.00  0.00    +0.053 C 
ATOM      7  C   UNL     1      31.767 -10.395 -20.950  0.00  0.00    +0.015 C 
ATOM      8  C   UNL     1      32.116  -8.399 -21.950  0.00  0.00    +0.065 C 
ATOM      9  C   UNL     1      32.997 -11.873 -22.474  0.00  0.00    +0.029 C 
ATOM     10  C   UNL     1      31.502  -8.999 -20.875  0.00  0.00    +0.017 C 
ATOM     11  C   UNL     1      32.636 -12.958 -21.670  0.00  0.00    +0.052 C 
ATOM     12  C   UNL     1      31.416 -11.505 -20.155  0.00  0.00    +0.003 C 
ATOM     13  C   UNL     1      31.858 -12.779 -20.529  0.00  0.00    +0.015 C 
BRANCH   5  14
ATOM     14  C   UNL     1      33.500  -9.132 -23.886  0.00  0.00    +0.100 C 
BRANCH  14  15
ATOM     15  C   UNL     1      34.407  -7.901 -23.803  0.00  0.00    +0.048 C 
BRANCH  15  17
ATOM     16  N   UNL     1      33.094  -4.653 -26.272  0.00  0.00    -0.242 NA
ATOM     17  C   UNL     1      33.945  -6.757 -24.671  0.00  0.00    -0.017 C 
ATOM     18  C   UNL     1      34.762  -6.302 -25.689  0.00  0.00    +0.016 C 
ATOM     19  C   UNL     1      32.711  -6.181 -24.438  0.00  0.00    +0.016 C 
ATOM     20  C   UNL     1      34.292  -5.250 -26.459  0.00  0.00    +0.099 C 
ATOM     21  C   UNL     1      32.333  -5.135 -25.264  0.00  0.00    +0.099 C 
ENDBRANCH  15  17
ENDBRANCH  14  15
ENDBRANCH   5  14
ENDBRANCH   2  11
BRANCH   3  25
ATOM     22  F   UNL     1      34.885 -17.787 -25.350  0.00  0.00    -0.204 F 
ATOM     23  C   UNL     1      34.612 -18.665 -21.830  0.00  0.00    +0.050 C 
ATOM     24  C   UNL     1      34.404 -17.406 -21.267  0.00  0.00    +0.019 C 
ATOM     25  C   UNL     1      34.362 -16.304 -22.095  0.00  0.00    +0.057 C 
ATOM     26  C   UNL     1      34.774 -18.793 -23.209  0.00  0.00    +0.044 C 
ATOM     27  C   UNL     1      34.520 -16.405 -23.462  0.00  0.00    +0.034 C 
ATOM     28  C   UNL     1      34.728 -17.664 -24.026  0.00  0.00    +0.142 C 
BRANCH  23  30
ATOM     29  O   UNL     1      34.714 -21.905 -19.151  0.00  0.00    -0.350 OA
ATOM     30  N   UNL     1      34.658 -19.798 -21.012  0.00  0.00    -0.303 N 
ATOM     31  C   UNL     1      35.919 -20.189 -20.373  0.00  0.00    +0.123 C 
ATOM     32  C   UNL     1      33.442 -20.172 -20.277  0.00  0.00    +0.123 C 
ATOM     33  C   UNL     1      35.858 -21.658 -19.968  0.00  0.00    +0.164 C 
ATOM     34  C   UNL     1      33.513 -21.642 -19.878  0.00  0.00    +0.164 C 
ENDBRANCH  23  30
ENDBRANCH   3  25
TORSDOF 6
ENDMDL
MODEL 8
REMARK VINA RESULT:     -11.0      5.689     11.524
REMARK  Name = 5326869
REMARK  6 active torsions:
REMARK  status: ('A' for Active; 'I' for Inactive)
REMARK    1  A    between atoms: N_2  and  C_11
REMARK    2  A    between atoms: C_3  and  C_25
REMARK    3  A    between atoms: N_5  and  C_14
REMARK    4  A    between atoms: C_14  and  C_15
REMARK    5  A    between atoms: C_15  and  C_17
REMARK    6  A    between atoms: C_23  and  N_30
REMARK                            x       y       z     vdW  Elec       q    Type
REMARK                         _______ _______ _______ _____ _____    ______ ____
ROOT
ATOM      1  O   UNL     1      34.620 -11.448 -26.208  0.00  0.00    -0.270 OA
ATOM      2  N   UNL     1      33.827 -12.499 -24.260  0.00  0.00    -0.280 N 
ATOM      3  C   UNL     1      34.205 -11.408 -25.055  0.00  0.00    +0.250 C 
ATOM      4  H   UNL     1      33.515 -12.282 -23.351  0.00  0.00    +0.155 HD
ENDROOT
BRANCH   2  11
ATOM      5  N   UNL     1      34.763 -17.248 -23.381  0.00  0.00    -0.286 N 
ATOM      6  C   UNL     1      34.335 -16.131 -24.063  0.00  0.00    +0.053 C 
ATOM      7  C   UNL     1      33.848 -16.564 -25.297  0.00  0.00    +0.015 C 
ATOM      8  C   UNL     1      34.562 -18.369 -24.140  0.00  0.00    +0.065 C 
ATOM      9  C   UNL     1      34.345 -14.783 -23.685  0.00  0.00    +0.029 C 
ATOM     10  C   UNL     1      33.997 -17.979 -25.332  0.00  0.00    +0.017 C 
ATOM     11  C   UNL     1      33.838 -13.853 -24.597  0.00  0.00    +0.052 C 
ATOM     12  C   UNL     1      33.342 -15.608 -26.200  0.00  0.00    +0.003 C 
ATOM     13  C   UNL     1      33.344 -14.257 -25.836  0.00  0.00    +0.015 C 
BRANCH   5  14
ATOM     14  C   UNL     1      35.341 -17.253 -22.054  0.00  0.00    +0.100 C 
BRANCH  14  15
ATOM     15  C   UNL     1      35.977 -18.593 -21.671  0.00  0.00    +0.048 C 
BRANCH  15  17
ATOM     16  N   UNL     1      33.300 -21.219 -19.596  0.00  0.00    -0.242 NA
ATOM     17  C   UNL     1      35.035 -19.517 -20.940  0.00  0.00    -0.017 C 
ATOM     18  C   UNL     1      33.676 -19.267 -20.970  0.00  0.00    +0.016 C 
ATOM     19  C   UNL     1      35.544 -20.602 -20.251  0.00  0.00    +0.016 C 
ATOM     20  C   UNL     1      32.853 -20.145 -20.284  0.00  0.00    +0.099 C 
ATOM     21  C   UNL     1      34.637 -21.420 -19.597  0.00  0.00    +0.099 C 
ENDBRANCH  15  17
ENDBRANCH  14  15
ENDBRANCH   5  14
ENDBRANCH   2  11
BRANCH   3  25
ATOM     22  F   UNL     1      35.098  -6.656 -25.010  0.00  0.00    -0.204 F 
ATOM     23  C   UNL     1      33.367  -8.730 -22.573  0.00  0.00    +0.050 C 
ATOM     24  C   UNL     1      33.461  -9.979 -23.186  0.00  0.00    +0.019 C 
ATOM     25  C   UNL     1      34.106 -10.078 -24.400  0.00  0.00    +0.057 C 
ATOM     26  C   UNL     1      33.920  -7.608 -23.189  0.00  0.00    +0.044 C 
ATOM     27  C   UNL     1      34.661  -8.983 -25.031  0.00  0.00    +0.034 C 
ATOM     28  C   UNL     1      34.568  -7.734 -24.418  0.00  0.00    +0.142 C 
BRANCH  23  30
ATOM     29  O   UNL     1      31.176  -8.356 -19.003  0.00  0.00    -0.350 OA
ATOM     30  N   UNL     1      32.719  -8.602 -21.340  0.00  0.00    -0.303 N 
ATOM     31  C   UNL     1      32.286  -7.280 -20.873  0.00  0.00    +0.123 C 
ATOM     32  C   UNL     1      31.906  -9.731 -20.864  0.00  0.00    +0.123 C 
ATOM     33  C   UNL     1      32.077  -7.310 -19.363  0.00  0.00    +0.164 C 
ATOM     34  C   UNL     1      31.718  -9.630 -19.355  0.00  0.00    +0.164 C 
ENDBRANCH  23  30
ENDBRANCH   3  25
TORSDOF 6
ENDMDL
MODEL 9
REMARK VINA RESULT:     -10.8      6.065     10.741
REMARK  Name = 5326869
REMARK  6 active torsions:
REMARK  status: ('A' for Active; 'I' for Inactive)
REMARK    1  A    between atoms: N_2  and  C_11
REMARK    2  A    between atoms: C_3  and  C_25
REMARK    3  A    between atoms: N_5  and  C_14
REMARK    4  A    between atoms: C_14  and  C_15
REMARK    5  A    between atoms: C_15  and  C_17
REMARK    6  A    between atoms: C_23  and  N_30
REMARK                            x       y       z     vdW  Elec       q    Type
REMARK                         _______ _______ _______ _____ _____    ______ ____
ROOT
ATOM      1  O   UNL     1      34.551 -10.724 -24.244  0.00  0.00    -0.270 OA
ATOM      2  N   UNL     1      32.545 -11.066 -23.066  0.00  0.00    -0.280 N 
ATOM      3  C   UNL     1      33.626 -11.439 -23.876  0.00  0.00    +0.250 C 
ATOM      4  H   UNL     1      31.890 -11.774 -22.868  0.00  0.00    +0.155 HD
ENDROOT
BRANCH   2  11
ATOM      5  N   UNL     1      31.374  -6.294 -23.305  0.00  0.00    -0.286 N 
ATOM      6  C   UNL     1      31.707  -7.505 -22.741  0.00  0.00    +0.053 C 
ATOM      7  C   UNL     1      31.759  -7.314 -21.359  0.00  0.00    +0.015 C 
ATOM      8  C   UNL     1      31.214  -5.347 -22.328  0.00  0.00    +0.065 C 
ATOM      9  C   UNL     1      31.964  -8.742 -23.344  0.00  0.00    +0.029 C 
ATOM     10  C   UNL     1      31.446  -5.948 -21.113  0.00  0.00    +0.017 C 
ATOM     11  C   UNL     1      32.283  -9.815 -22.507  0.00  0.00    +0.052 C 
ATOM     12  C   UNL     1      32.083  -8.411 -20.535  0.00  0.00    +0.003 C 
ATOM     13  C   UNL     1      32.342  -9.654 -21.124  0.00  0.00    +0.015 C 
BRANCH   5  14
ATOM     14  C   UNL     1      31.211  -6.041 -24.720  0.00  0.00    +0.100 C 
BRANCH  14  15
ATOM     15  C   UNL     1      31.302  -4.557 -25.091  0.00  0.00    +0.048 C 
BRANCH  15  17
ATOM     16  N   UNL     1      34.658  -3.630 -27.588  0.00  0.00    -0.242 NA
ATOM     17  C   UNL     1      32.483  -4.231 -25.970  0.00  0.00    -0.017 C 
ATOM     18  C   UNL     1      32.591  -2.970 -26.524  0.00  0.00    +0.016 C 
ATOM     19  C   UNL     1      33.442  -5.198 -26.209  0.00  0.00    +0.016 C 
ATOM     20  C   UNL     1      33.695  -2.720 -27.325  0.00  0.00    +0.099 C 
ATOM     21  C   UNL     1      34.506  -4.849 -27.023  0.00  0.00    +0.099 C 
ENDBRANCH  15  17
ENDBRANCH  14  15
ENDBRANCH   5  14
ENDBRANCH   2  11
BRANCH   3  25
ATOM     22  F   UNL     1      32.684 -14.742 -27.280  0.00  0.00    -0.204 F 
ATOM     23  C   UNL     1      34.064 -15.160 -23.940  0.00  0.00    +0.050 C 
ATOM     24  C   UNL     1      34.075 -13.837 -23.499  0.00  0.00    +0.019 C 
ATOM     25  C   UNL     1      33.614 -12.849 -24.344  0.00  0.00    +0.057 C 
ATOM     26  C   UNL     1      33.595 -15.465 -25.217  0.00  0.00    +0.044 C 
ATOM     27  C   UNL     1      33.144 -13.125 -25.612  0.00  0.00    +0.034 C 
ATOM     28  C   UNL     1      33.134 -14.449 -26.053  0.00  0.00    +0.142 C 
BRANCH  23  30
ATOM     29  O   UNL     1      35.222 -18.367 -21.479  0.00  0.00    -0.350 OA
ATOM     30  N   UNL     1      34.526 -16.180 -23.102  0.00  0.00    -0.303 N 
ATOM     31  C   UNL     1      34.079 -16.239 -21.706  0.00  0.00    +0.123 C 
ATOM     32  C   UNL     1      34.862 -17.476 -23.707  0.00  0.00    +0.123 C 
ATOM     33  C   UNL     1      35.054 -17.079 -20.888  0.00  0.00    +0.164 C 
ATOM     34  C   UNL     1      35.794 -18.250 -22.782  0.00  0.00    +0.164 C 
ENDBRANCH  23  30
ENDBRANCH   3  25
TORSDOF 6
ENDMDL
