MODEL 1
REMARK VINA RESULT:      -8.6      0.000      0.000
REMARK  Name = 444107
REMARK  12 active torsions:
REMARK  status: ('A' for Active; 'I' for Inactive)
REMARK    1  A    between atoms: C_1  and  N_3
REMARK    2  A    between atoms: C_1  and  P_12
REMARK    3  A    between atoms: C_1  and  C_23
REMARK    4  A    between atoms: C_4  and  C_6
REMARK    5  A    between atoms: C_6  and  C_7
REMARK    6  A    between atoms: C_7  and  C_9
REMARK    7  A    between atoms: C_9  and  O_10
REMARK    8  A    between atoms: P_12  and  O_14
REMARK    9  A    between atoms: P_12  and  O_16
REMARK   10  A    between atoms: O_16  and  C_17
REMARK   11  A    between atoms: C_23  and  C_24
REMARK   12  A    between atoms: C_24  and  C_25
REMARK                            x       y       z     vdW  Elec       q    Type
REMARK                         _______ _______ _______ _____ _____    ______ ____
ROOT
ATOM      1  C   UNL     1      34.796 -24.672 -14.871  0.00  0.00    +0.189 C 
ENDROOT
BRANCH   1   3
ATOM      2  O   UNL     1      36.276 -26.889 -16.026  0.00  0.00    -0.275 OA
ATOM      3  N   UNL     1      35.989 -25.315 -14.342  0.00  0.00    -0.295 N 
ATOM      4  C   UNL     1      36.627 -26.371 -14.968  0.00  0.00    +0.223 C 
ATOM      5  H   UNL     1      36.362 -24.981 -13.494  0.00  0.00    +0.150 HD
BRANCH   4   6
ATOM      6  C   UNL     1      37.839 -26.863 -14.201  0.00  0.00    +0.097 C 
BRANCH   6   7
ATOM      7  C   UNL     1      38.788 -25.724 -13.846  0.00  0.00    +0.119 C 
BRANCH   7   9
ATOM      8  O   UNL     1      40.603 -26.123 -15.400  0.00  0.00    -0.250 OA
ATOM      9  C   UNL     1      39.706 -25.397 -14.996  0.00  0.00    +0.314 C 
BRANCH   9  10
ATOM     10  O   UNL     1      39.427 -24.177 -15.515  0.00  0.00    -0.480 OA
ATOM     11  H   UNL     1      39.975 -23.445 -15.312  0.00  0.00    +0.295 HD
ENDBRANCH   9  10
ENDBRANCH   7   9
ENDBRANCH   6   7
ENDBRANCH   4   6
ENDBRANCH   1   3
BRANCH   1  12
ATOM     12  P   UNL     1      35.416 -23.305 -15.857  0.00  0.00    +0.406 P 
ATOM     13  O   UNL     1      36.899 -23.371 -16.085  0.00  0.00    -0.242 OA
BRANCH  12  14
ATOM     14  O   UNL     1      34.912 -21.997 -15.049  0.00  0.00    -0.314 OA
ATOM     15  H   UNL     1      34.038 -22.170 -14.666  0.00  0.00    +0.221 HD
ENDBRANCH  12  14
BRANCH  12  16
ATOM     16  O   UNL     1      34.507 -23.335 -17.187  0.00  0.00    -0.421 OA
BRANCH  16  17
ATOM     17  C   UNL     1      34.554 -22.426 -18.207  0.00  0.00    +0.147 C 
ATOM     18  C   UNL     1      33.374 -22.012 -18.828  0.00  0.00    +0.037 C 
ATOM     19  C   UNL     1      35.780 -21.912 -18.627  0.00  0.00    +0.037 C 
ATOM     20  C   UNL     1      33.422 -21.085 -19.868  0.00  0.00    +0.003 C 
ATOM     21  C   UNL     1      35.827 -20.985 -19.668  0.00  0.00    +0.003 C 
ATOM     22  C   UNL     1      34.648 -20.571 -20.288  0.00  0.00    +0.000 C 
ENDBRANCH  16  17
ENDBRANCH  12  16
ENDBRANCH   1  12
BRANCH   1  23
ATOM     23  C   UNL     1      33.767 -24.362 -13.777  0.00  0.00    +0.033 C 
BRANCH  23  24
ATOM     24  C   UNL     1      32.304 -24.497 -14.208  0.00  0.00    +0.002 C 
BRANCH  24  25
ATOM     25  C   UNL     1      31.686 -23.130 -14.505  0.00  0.00    +0.000 C 
ATOM     26  C   UNL     1      31.207 -23.040 -15.945  0.00  0.00    +0.000 C 
ENDBRANCH  24  25
ENDBRANCH  23  24
ENDBRANCH   1  23
TORSDOF 12
ENDMDL
MODEL 2
REMARK VINA RESULT:      -8.3      8.073     11.839
REMARK  Name = 444107
REMARK  12 active torsions:
REMARK  status: ('A' for Active; 'I' for Inactive)
REMARK    1  A    between atoms: C_1  and  N_3
REMARK    2  A    between atoms: C_1  and  P_12
REMARK    3  A    between atoms: C_1  and  C_23
REMARK    4  A    between atoms: C_4  and  C_6
REMARK    5  A    between atoms: C_6  and  C_7
REMARK    6  A    between atoms: C_7  and  C_9
REMARK    7  A    between atoms: C_9  and  O_10
REMARK    8  A    between atoms: P_12  and  O_14
REMARK    9  A    between atoms: P_12  and  O_16
REMARK   10  A    between atoms: O_16  and  C_17
REMARK   11  A    between atoms: C_23  and  C_24
REMARK   12  A    between atoms: C_24  and  C_25
REMARK                            x       y       z     vdW  Elec       q    Type
REMARK                         _______ _______ _______ _____ _____    ______ ____
ROOT
ATOM      1  C   UNL     1      33.948 -15.871 -21.937  0.00  0.00    +0.189 C 
ENDROOT
BRANCH   1   3
ATOM      2  O   UNL     1      34.043 -13.791 -23.962  0.00  0.00    -0.275 OA
ATOM      3  N   UNL     1      33.680 -16.005 -23.360  0.00  0.00    -0.295 N 
ATOM      4  C   UNL     1      33.752 -14.949 -24.252  0.00  0.00    +0.223 C 
ATOM      5  H   UNL     1      33.437 -16.894 -23.708  0.00  0.00    +0.150 HD
BRANCH   4   6
ATOM      6  C   UNL     1      33.415 -15.357 -25.673  0.00  0.00    +0.097 C 
BRANCH   6   7
ATOM      7  C   UNL     1      32.625 -14.276 -26.402  0.00  0.00    +0.119 C 
BRANCH   7   9
ATOM      8  O   UNL     1      34.200 -13.501 -28.072  0.00  0.00    -0.250 OA
ATOM      9  C   UNL     1      33.542 -13.280 -27.065  0.00  0.00    +0.314 C 
BRANCH   9  10
ATOM     10  O   UNL     1      33.566 -12.107 -26.387  0.00  0.00    -0.480 OA
ATOM     11  H   UNL     1      34.094 -12.022 -25.617  0.00  0.00    +0.295 HD
ENDBRANCH   9  10
ENDBRANCH   7   9
ENDBRANCH   6   7
ENDBRANCH   4   6
ENDBRANCH   1   3
BRANCH   1  12
ATOM     12  P   UNL     1      35.016 -17.260 -21.542  0.00  0.00    +0.406 P 
ATOM     13  O   UNL     1      35.720 -17.103 -20.224  0.00  0.00    -0.242 OA
BRANCH  12  14
ATOM     14  O   UNL     1      35.995 -17.359 -22.826  0.00  0.00    -0.314 OA
ATOM     15  H   UNL     1      36.734 -17.954 -22.624  0.00  0.00    +0.221 HD
ENDBRANCH  12  14
BRANCH  12  16
ATOM     16  O   UNL     1      34.052 -18.546 -21.665  0.00  0.00    -0.421 OA
BRANCH  16  17
ATOM     17  C   UNL     1      34.110 -19.665 -20.882  0.00  0.00    +0.147 C 
ATOM     18  C   UNL     1      35.334 -20.296 -20.657  0.00  0.00    +0.037 C 
ATOM     19  C   UNL     1      32.946 -20.175 -20.308  0.00  0.00    +0.037 C 
ATOM     20  C   UNL     1      35.393 -21.437 -19.859  0.00  0.00    +0.003 C 
ATOM     21  C   UNL     1      33.006 -21.317 -19.509  0.00  0.00    +0.003 C 
ATOM     22  C   UNL     1      34.230 -21.948 -19.285  0.00  0.00    +0.000 C 
ENDBRANCH  16  17
ENDBRANCH  12  16
ENDBRANCH   1  12
BRANCH   1  23
ATOM     23  C   UNL     1      32.664 -15.694 -21.117  0.00  0.00    +0.033 C 
BRANCH  23  24
ATOM     24  C   UNL     1      32.605 -14.417 -20.275  0.00  0.00    +0.002 C 
BRANCH  24  25
ATOM     25  C   UNL     1      32.192 -13.213 -21.123  0.00  0.00    +0.000 C 
ATOM     26  C   UNL     1      31.754 -12.046 -20.252  0.00  0.00    +0.000 C 
ENDBRANCH  24  25
ENDBRANCH  23  24
ENDBRANCH   1  23
TORSDOF 12
ENDMDL
MODEL 3
REMARK VINA RESULT:      -8.2      7.455     11.548
REMARK  Name = 444107
REMARK  12 active torsions:
REMARK  status: ('A' for Active; 'I' for Inactive)
REMARK    1  A    between atoms: C_1  and  N_3
REMARK    2  A    between atoms: C_1  and  P_12
REMARK    3  A    between atoms: C_1  and  C_23
REMARK    4  A    between atoms: C_4  and  C_6
REMARK    5  A    between atoms: C_6  and  C_7
REMARK    6  A    between atoms: C_7  and  C_9
REMARK    7  A    between atoms: C_9  and  O_10
REMARK    8  A    between atoms: P_12  and  O_14
REMARK    9  A    between atoms: P_12  and  O_16
REMARK   10  A    between atoms: O_16  and  C_17
REMARK   11  A    between atoms: C_23  and  C_24
REMARK   12  A    between atoms: C_24  and  C_25
REMARK                            x       y       z     vdW  Elec       q    Type
REMARK                         _______ _______ _______ _____ _____    ______ ____
ROOT
ATOM      1  C   UNL     1      34.123 -16.496 -22.871  0.00  0.00    +0.189 C 
ENDROOT
BRANCH   1   3
ATOM      2  O   UNL     1      31.837 -16.155 -21.109  0.00  0.00    -0.275 OA
ATOM      3  N   UNL     1      33.813 -15.351 -22.028  0.00  0.00    -0.295 N 
ATOM      4  C   UNL     1      32.694 -15.281 -21.218  0.00  0.00    +0.223 C 
ATOM      5  H   UNL     1      34.434 -14.586 -22.034  0.00  0.00    +0.150 HD
BRANCH   4   6
ATOM      6  C   UNL     1      32.603 -13.975 -20.453  0.00  0.00    +0.097 C 
BRANCH   6   7
ATOM      7  C   UNL     1      32.223 -12.809 -21.360  0.00  0.00    +0.119 C 
BRANCH   7   9
ATOM      8  O   UNL     1      31.578 -11.405 -19.495  0.00  0.00    -0.250 OA
ATOM      9  C   UNL     1      31.369 -11.804 -20.632  0.00  0.00    +0.314 C 
BRANCH   9  10
ATOM     10  O   UNL     1      30.317 -11.412 -21.390  0.00  0.00    -0.480 OA
ATOM     11  H   UNL     1      29.927 -12.011 -21.996  0.00  0.00    +0.295 HD
ENDBRANCH   9  10
ENDBRANCH   7   9
ENDBRANCH   6   7
ENDBRANCH   4   6
ENDBRANCH   1   3
BRANCH   1  12
ATOM     12  P   UNL     1      35.087 -17.587 -21.820  0.00  0.00    +0.406 P 
ATOM     13  O   UNL     1      35.372 -16.998 -20.468  0.00  0.00    -0.242 OA
BRANCH  12  14
ATOM     14  O   UNL     1      36.399 -17.907 -22.711  0.00  0.00    -0.314 OA
ATOM     15  H   UNL     1      36.817 -18.721 -22.391  0.00  0.00    +0.221 HD
ENDBRANCH  12  14
BRANCH  12  16
ATOM     16  O   UNL     1      34.253 -18.966 -21.815  0.00  0.00    -0.421 OA
BRANCH  16  17
ATOM     17  C   UNL     1      34.366 -19.963 -20.885  0.00  0.00    +0.147 C 
ATOM     18  C   UNL     1      33.220 -20.492 -20.289  0.00  0.00    +0.037 C 
ATOM     19  C   UNL     1      35.624 -20.450 -20.534  0.00  0.00    +0.037 C 
ATOM     20  C   UNL     1      33.334 -21.508 -19.341  0.00  0.00    +0.003 C 
ATOM     21  C   UNL     1      35.737 -21.466 -19.585  0.00  0.00    +0.003 C 
ATOM     22  C   UNL     1      34.592 -21.995 -18.988  0.00  0.00    +0.000 C 
ENDBRANCH  16  17
ENDBRANCH  12  16
ENDBRANCH   1  12
BRANCH   1  23
ATOM     23  C   UNL     1      34.720 -16.082 -24.221  0.00  0.00    +0.033 C 
BRANCH  23  24
ATOM     24  C   UNL     1      33.705 -15.909 -25.353  0.00  0.00    +0.002 C 
BRANCH  24  25
ATOM     25  C   UNL     1      33.133 -14.491 -25.373  0.00  0.00    +0.000 C 
ATOM     26  C   UNL     1      33.149 -13.907 -26.777  0.00  0.00    +0.000 C 
ENDBRANCH  24  25
ENDBRANCH  23  24
ENDBRANCH   1  23
TORSDOF 12
ENDMDL
MODEL 4
REMARK VINA RESULT:      -8.2      3.755      8.017
REMARK  Name = 444107
REMARK  12 active torsions:
REMARK  status: ('A' for Active; 'I' for Inactive)
REMARK    1  A    between atoms: C_1  and  N_3
REMARK    2  A    between atoms: C_1  and  P_12
REMARK    3  A    between atoms: C_1  and  C_23
REMARK    4  A    between atoms: C_4  and  C_6
REMARK    5  A    between atoms: C_6  and  C_7
REMARK    6  A    between atoms: C_7  and  C_9
REMARK    7  A    between atoms: C_9  and  O_10
REMARK    8  A    between atoms: P_12  and  O_14
REMARK    9  A    between atoms: P_12  and  O_16
REMARK   10  A    between atoms: O_16  and  C_17
REMARK   11  A    between atoms: C_23  and  C_24
REMARK   12  A    between atoms: C_24  and  C_25
REMARK                            x       y       z     vdW  Elec       q    Type
REMARK                         _______ _______ _______ _____ _____    ______ ____
ROOT
ATOM      1  C   UNL     1      32.261 -23.781 -15.948  0.00  0.00    +0.189 C 
ENDROOT
BRANCH   1   3
ATOM      2  O   UNL     1      29.507 -24.701 -16.044  0.00  0.00    -0.275 OA
ATOM      3  N   UNL     1      31.054 -22.969 -15.968  0.00  0.00    -0.295 N 
ATOM      4  C   UNL     1      29.778 -23.503 -16.015  0.00  0.00    +0.223 C 
ATOM      5  H   UNL     1      31.150 -21.990 -15.948  0.00  0.00    +0.150 HD
BRANCH   4   6
ATOM      6  C   UNL     1      28.697 -22.439 -16.040  0.00  0.00    +0.097 C 
BRANCH   6   7
ATOM      7  C   UNL     1      27.697 -22.671 -17.167  0.00  0.00    +0.119 C 
BRANCH   7   9
ATOM      8  O   UNL     1      26.382 -20.740 -17.808  0.00  0.00    -0.250 OA
ATOM      9  C   UNL     1      26.540 -21.709 -17.079  0.00  0.00    +0.314 C 
BRANCH   9  10
ATOM     10  O   UNL     1      25.703 -22.039 -16.067  0.00  0.00    -0.480 OA
ATOM     11  H   UNL     1      25.879 -22.793 -15.540  0.00  0.00    +0.295 HD
ENDBRANCH   9  10
ENDBRANCH   7   9
ENDBRANCH   6   7
ENDBRANCH   4   6
ENDBRANCH   1   3
BRANCH   1  12
ATOM     12  P   UNL     1      32.768 -23.798 -14.225  0.00  0.00    +0.406 P 
ATOM     13  O   UNL     1      32.325 -25.035 -13.495  0.00  0.00    -0.242 OA
BRANCH  12  14
ATOM     14  O   UNL     1      32.167 -22.415 -13.641  0.00  0.00    -0.314 OA
ATOM     15  H   UNL     1      31.206 -22.495 -13.542  0.00  0.00    +0.221 HD
ENDBRANCH  12  14
BRANCH  12  16
ATOM     16  O   UNL     1      34.361 -23.558 -14.281  0.00  0.00    -0.421 OA
BRANCH  16  17
ATOM     17  C   UNL     1      35.319 -24.506 -14.052  0.00  0.00    +0.147 C 
ATOM     18  C   UNL     1      35.738 -25.338 -15.091  0.00  0.00    +0.037 C 
ATOM     19  C   UNL     1      35.878 -24.641 -12.782  0.00  0.00    +0.037 C 
ATOM     20  C   UNL     1      36.715 -26.305 -14.858  0.00  0.00    +0.003 C 
ATOM     21  C   UNL     1      36.855 -25.608 -12.550  0.00  0.00    +0.003 C 
ATOM     22  C   UNL     1      37.273 -26.441 -13.588  0.00  0.00    +0.000 C 
ENDBRANCH  16  17
ENDBRANCH  12  16
ENDBRANCH   1  12
BRANCH   1  23
ATOM     23  C   UNL     1      33.286 -23.328 -16.995  0.00  0.00    +0.033 C 
BRANCH  23  24
ATOM     24  C   UNL     1      32.742 -22.375 -18.063  0.00  0.00    +0.002 C 
BRANCH  24  25
ATOM     25  C   UNL     1      33.819 -22.019 -19.088  0.00  0.00    +0.000 C 
ATOM     26  C   UNL     1      33.383 -20.861 -19.972  0.00  0.00    +0.000 C 
ENDBRANCH  24  25
ENDBRANCH  23  24
ENDBRANCH   1  23
TORSDOF 12
ENDMDL
MODEL 5
REMARK VINA RESULT:      -8.1      7.165      9.945
REMARK  Name = 444107
REMARK  12 active torsions:
REMARK  status: ('A' for Active; 'I' for Inactive)
REMARK    1  A    between atoms: C_1  and  N_3
REMARK    2  A    between atoms: C_1  and  P_12
REMARK    3  A    between atoms: C_1  and  C_23
REMARK    4  A    between atoms: C_4  and  C_6
REMARK    5  A    between atoms: C_6  and  C_7
REMARK    6  A    between atoms: C_7  and  C_9
REMARK    7  A    between atoms: C_9  and  O_10
REMARK    8  A    between atoms: P_12  and  O_14
REMARK    9  A    between atoms: P_12  and  O_16
REMARK   10  A    between atoms: O_16  and  C_17
REMARK   11  A    between atoms: C_23  and  C_24
REMARK   12  A    between atoms: C_24  and  C_25
REMARK                            x       y       z     vdW  Elec       q    Type
REMARK                         _______ _______ _______ _____ _____    ______ ____
ROOT
ATOM      1  C   UNL     1      34.256 -17.061 -21.665  0.00  0.00    +0.189 C 
ENDROOT
BRANCH   1   3
ATOM      2  O   UNL     1      32.889 -19.405 -20.624  0.00  0.00    -0.275 OA
ATOM      3  N   UNL     1      34.792 -18.404 -21.504  0.00  0.00    -0.295 N 
ATOM      4  C   UNL     1      34.059 -19.462 -20.996  0.00  0.00    +0.223 C 
ATOM      5  H   UNL     1      35.726 -18.568 -21.772  0.00  0.00    +0.150 HD
BRANCH   4   6
ATOM      6  C   UNL     1      34.859 -20.748 -20.924  0.00  0.00    +0.097 C 
BRANCH   6   7
ATOM      7  C   UNL     1      34.899 -21.313 -19.508  0.00  0.00    +0.119 C 
BRANCH   7   9
ATOM      8  O   UNL     1      34.092 -23.597 -19.516  0.00  0.00    -0.250 OA
ATOM      9  C   UNL     1      33.880 -22.408 -19.326  0.00  0.00    +0.314 C 
BRANCH   9  10
ATOM     10  O   UNL     1      32.681 -21.905 -18.945  0.00  0.00    -0.480 OA
ATOM     11  H   UNL     1      32.010 -21.760 -19.583  0.00  0.00    +0.295 HD
ENDBRANCH   9  10
ENDBRANCH   7   9
ENDBRANCH   6   7
ENDBRANCH   4   6
ENDBRANCH   1   3
BRANCH   1  12
ATOM     12  P   UNL     1      34.418 -16.713 -23.419  0.00  0.00    +0.406 P 
ATOM     13  O   UNL     1      34.317 -17.945 -24.274  0.00  0.00    -0.242 OA
BRANCH  12  14
ATOM     14  O   UNL     1      35.830 -15.932 -23.520  0.00  0.00    -0.314 OA
ATOM     15  H   UNL     1      35.859 -15.227 -22.854  0.00  0.00    +0.221 HD
ENDBRANCH  12  14
BRANCH  12  16
ATOM     16  O   UNL     1      33.306 -15.580 -23.700  0.00  0.00    -0.421 OA
BRANCH  16  17
ATOM     17  C   UNL     1      33.399 -14.585 -24.633  0.00  0.00    +0.147 C 
ATOM     18  C   UNL     1      33.209 -14.875 -25.984  0.00  0.00    +0.037 C 
ATOM     19  C   UNL     1      33.684 -13.280 -24.233  0.00  0.00    +0.037 C 
ATOM     20  C   UNL     1      33.304 -13.860 -26.935  0.00  0.00    +0.003 C 
ATOM     21  C   UNL     1      33.780 -12.264 -25.185  0.00  0.00    +0.003 C 
ATOM     22  C   UNL     1      33.590 -12.555 -26.536  0.00  0.00    +0.000 C 
ENDBRANCH  16  17
ENDBRANCH  12  16
ENDBRANCH   1  12
BRANCH   1  23
ATOM     23  C   UNL     1      34.869 -16.066 -20.673  0.00  0.00    +0.033 C 
BRANCH  23  24
ATOM     24  C   UNL     1      34.304 -14.645 -20.749  0.00  0.00    +0.002 C 
BRANCH  24  25
ATOM     25  C   UNL     1      32.801 -14.631 -20.471  0.00  0.00    +0.000 C 
ATOM     26  C   UNL     1      32.181 -13.292 -20.842  0.00  0.00    +0.000 C 
ENDBRANCH  24  25
ENDBRANCH  23  24
ENDBRANCH   1  23
TORSDOF 12
ENDMDL
MODEL 6
REMARK VINA RESULT:      -8.1      6.573      9.592
REMARK  Name = 444107
REMARK  12 active torsions:
REMARK  status: ('A' for Active; 'I' for Inactive)
REMARK    1  A    between atoms: C_1  and  N_3
REMARK    2  A    between atoms: C_1  and  P_12
REMARK    3  A    between atoms: C_1  and  C_23
REMARK    4  A    between atoms: C_4  and  C_6
REMARK    5  A    between atoms: C_6  and  C_7
REMARK    6  A    between atoms: C_7  and  C_9
REMARK    7  A    between atoms: C_9  and  O_10
REMARK    8  A    between atoms: P_12  and  O_14
REMARK    9  A    between atoms: P_12  and  O_16
REMARK   10  A    between atoms: O_16  and  C_17
REMARK   11  A    between atoms: C_23  and  C_24
REMARK   12  A    between atoms: C_24  and  C_25
REMARK                            x       y       z     vdW  Elec       q    Type
REMARK                         _______ _______ _______ _____ _____    ______ ____
ROOT
ATOM      1  C   UNL     1      35.025 -17.509 -21.605  0.00  0.00    +0.189 C 
ENDROOT
BRANCH   1   3
ATOM      2  O   UNL     1      35.554 -19.947 -20.117  0.00  0.00    -0.275 OA
ATOM      3  N   UNL     1      34.110 -18.611 -21.352  0.00  0.00    -0.295 N 
ATOM      4  C   UNL     1      34.456 -19.738 -20.628  0.00  0.00    +0.223 C 
ATOM      5  H   UNL     1      33.197 -18.552 -21.716  0.00  0.00    +0.150 HD
BRANCH   4   6
ATOM      6  C   UNL     1      33.323 -20.740 -20.523  0.00  0.00    +0.097 C 
BRANCH   6   7
ATOM      7  C   UNL     1      33.299 -21.431 -19.163  0.00  0.00    +0.119 C 
BRANCH   7   9
ATOM      8  O   UNL     1      33.856 -23.742 -19.627  0.00  0.00    -0.250 OA
ATOM      9  C   UNL     1      34.173 -22.658 -19.158  0.00  0.00    +0.314 C 
BRANCH   9  10
ATOM     10  O   UNL     1      35.355 -22.417 -18.540  0.00  0.00    -0.480 OA
ATOM     11  H   UNL     1      35.478 -22.672 -17.647  0.00  0.00    +0.295 HD
ENDBRANCH   9  10
ENDBRANCH   7   9
ENDBRANCH   6   7
ENDBRANCH   4   6
ENDBRANCH   1   3
BRANCH   1  12
ATOM     12  P   UNL     1      34.104 -16.038 -21.142  0.00  0.00    +0.406 P 
ATOM     13  O   UNL     1      34.848 -15.159 -20.178  0.00  0.00    -0.242 OA
BRANCH  12  14
ATOM     14  O   UNL     1      32.706 -16.629 -20.582  0.00  0.00    -0.314 OA
ATOM     15  H   UNL     1      32.833 -16.958 -19.678  0.00  0.00    +0.221 HD
ENDBRANCH  12  14
BRANCH  12  16
ATOM     16  O   UNL     1      33.720 -15.355 -22.551  0.00  0.00    -0.421 OA
BRANCH  16  17
ATOM     17  C   UNL     1      33.330 -14.056 -22.728  0.00  0.00    +0.147 C 
ATOM     18  C   UNL     1      32.334 -13.511 -21.918  0.00  0.00    +0.037 C 
ATOM     19  C   UNL     1      33.928 -13.278 -23.718  0.00  0.00    +0.037 C 
ATOM     20  C   UNL     1      31.936 -12.187 -22.098  0.00  0.00    +0.003 C 
ATOM     21  C   UNL     1      33.529 -11.954 -23.899  0.00  0.00    +0.003 C 
ATOM     22  C   UNL     1      32.533 -11.408 -23.089  0.00  0.00    +0.000 C 
ENDBRANCH  16  17
ENDBRANCH  12  16
ENDBRANCH   1  12
BRANCH   1  23
ATOM     23  C   UNL     1      35.632 -17.566 -23.012  0.00  0.00    +0.033 C 
BRANCH  23  24
ATOM     24  C   UNL     1      35.126 -18.712 -23.890  0.00  0.00    +0.002 C 
BRANCH  24  25
ATOM     25  C   UNL     1      34.275 -18.190 -25.048  0.00  0.00    +0.000 C 
ATOM     26  C   UNL     1      34.639 -16.756 -25.401  0.00  0.00    +0.000 C 
ENDBRANCH  24  25
ENDBRANCH  23  24
ENDBRANCH   1  23
TORSDOF 12
ENDMDL
MODEL 7
REMARK VINA RESULT:      -8.0      8.500     12.497
REMARK  Name = 444107
REMARK  12 active torsions:
REMARK  status: ('A' for Active; 'I' for Inactive)
REMARK    1  A    between atoms: C_1  and  N_3
REMARK    2  A    between atoms: C_1  and  P_12
REMARK    3  A    between atoms: C_1  and  C_23
REMARK    4  A    between atoms: C_4  and  C_6
REMARK    5  A    between atoms: C_6  and  C_7
REMARK    6  A    between atoms: C_7  and  C_9
REMARK    7  A    between atoms: C_9  and  O_10
REMARK    8  A    between atoms: P_12  and  O_14
REMARK    9  A    between atoms: P_12  and  O_16
REMARK   10  A    between atoms: O_16  and  C_17
REMARK   11  A    between atoms: C_23  and  C_24
REMARK   12  A    between atoms: C_24  and  C_25
REMARK                            x       y       z     vdW  Elec       q    Type
REMARK                         _______ _______ _______ _____ _____    ______ ____
ROOT
ATOM      1  C   UNL     1      33.479 -15.263 -22.586  0.00  0.00    +0.189 C 
ENDROOT
BRANCH   1   3
ATOM      2  O   UNL     1      31.810 -12.889 -22.708  0.00  0.00    -0.275 OA
ATOM      3  N   UNL     1      33.109 -14.381 -21.490  0.00  0.00    -0.295 N 
ATOM      4  C   UNL     1      32.304 -13.267 -21.648  0.00  0.00    +0.223 C 
ATOM      5  H   UNL     1      33.449 -14.588 -20.590  0.00  0.00    +0.150 HD
BRANCH   4   6
ATOM      6  C   UNL     1      32.082 -12.514 -20.350  0.00  0.00    +0.097 C 
BRANCH   6   7
ATOM      7  C   UNL     1      31.111 -11.352 -20.526  0.00  0.00    +0.119 C 
BRANCH   7   9
ATOM      8  O   UNL     1      31.945  -9.172 -21.174  0.00  0.00    -0.250 OA
ATOM      9  C   UNL     1      31.797 -10.027 -20.313  0.00  0.00    +0.314 C 
BRANCH   9  10
ATOM     10  O   UNL     1      32.256  -9.910 -19.043  0.00  0.00    -0.480 OA
ATOM     11  H   UNL     1      32.778 -10.593 -18.669  0.00  0.00    +0.295 HD
ENDBRANCH   9  10
ENDBRANCH   7   9
ENDBRANCH   6   7
ENDBRANCH   4   6
ENDBRANCH   1   3
BRANCH   1  12
ATOM     12  P   UNL     1      34.612 -16.448 -21.853  0.00  0.00    +0.406 P 
ATOM     13  O   UNL     1      35.026 -16.079 -20.457  0.00  0.00    -0.242 OA
BRANCH  12  14
ATOM     14  O   UNL     1      35.824 -16.523 -22.922  0.00  0.00    -0.314 OA
ATOM     15  H   UNL     1      35.499 -16.901 -23.754  0.00  0.00    +0.221 HD
ENDBRANCH  12  14
BRANCH  12  16
ATOM     16  O   UNL     1      33.852 -17.862 -22.000  0.00  0.00    -0.421 OA
BRANCH  16  17
ATOM     17  C   UNL     1      34.093 -18.980 -21.250  0.00  0.00    +0.147 C 
ATOM     18  C   UNL     1      33.028 -19.687 -20.691  0.00  0.00    +0.037 C 
ATOM     19  C   UNL     1      35.402 -19.412 -21.044  0.00  0.00    +0.037 C 
ATOM     20  C   UNL     1      33.273 -20.826 -19.925  0.00  0.00    +0.003 C 
ATOM     21  C   UNL     1      35.648 -20.552 -20.277  0.00  0.00    +0.003 C 
ATOM     22  C   UNL     1      34.583 -21.259 -19.718  0.00  0.00    +0.000 C 
ENDBRANCH  16  17
ENDBRANCH  12  16
ENDBRANCH   1  12
BRANCH   1  23
ATOM     23  C   UNL     1      33.948 -14.490 -23.824  0.00  0.00    +0.033 C 
BRANCH  23  24
ATOM     24  C   UNL     1      33.543 -15.108 -25.165  0.00  0.00    +0.002 C 
BRANCH  24  25
ATOM     25  C   UNL     1      32.649 -14.160 -25.965  0.00  0.00    +0.000 C 
ATOM     26  C   UNL     1      33.395 -13.560 -27.147  0.00  0.00    +0.000 C 
ENDBRANCH  24  25
ENDBRANCH  23  24
ENDBRANCH   1  23
TORSDOF 12
ENDMDL
MODEL 8
REMARK VINA RESULT:      -8.0      8.519     12.405
REMARK  Name = 444107
REMARK  12 active torsions:
REMARK  status: ('A' for Active; 'I' for Inactive)
REMARK    1  A    between atoms: C_1  and  N_3
REMARK    2  A    between atoms: C_1  and  P_12
REMARK    3  A    between atoms: C_1  and  C_23
REMARK    4  A    between atoms: C_4  and  C_6
REMARK    5  A    between atoms: C_6  and  C_7
REMARK    6  A    between atoms: C_7  and  C_9
REMARK    7  A    between atoms: C_9  and  O_10
REMARK    8  A    between atoms: P_12  and  O_14
REMARK    9  A    between atoms: P_12  and  O_16
REMARK   10  A    between atoms: O_16  and  C_17
REMARK   11  A    between atoms: C_23  and  C_24
REMARK   12  A    between atoms: C_24  and  C_25
REMARK                            x       y       z     vdW  Elec       q    Type
REMARK                         _______ _______ _______ _____ _____    ______ ____
ROOT
ATOM      1  C   UNL     1      34.201 -15.761 -23.212  0.00  0.00    +0.189 C 
ENDROOT
BRANCH   1   3
ATOM      2  O   UNL     1      32.772 -14.036 -25.063  0.00  0.00    -0.275 OA
ATOM      3  N   UNL     1      34.217 -14.307 -23.264  0.00  0.00    -0.295 N 
ATOM      4  C   UNL     1      33.498 -13.569 -24.188  0.00  0.00    +0.223 C 
ATOM      5  H   UNL     1      34.767 -13.823 -22.606  0.00  0.00    +0.150 HD
BRANCH   4   6
ATOM      6  C   UNL     1      33.700 -12.075 -24.030  0.00  0.00    +0.097 C 
BRANCH   6   7
ATOM      7  C   UNL     1      33.902 -11.383 -25.374  0.00  0.00    +0.119 C 
BRANCH   7   9
ATOM      8  O   UNL     1      35.812 -10.249 -26.339  0.00  0.00    -0.250 OA
ATOM      9  C   UNL     1      35.127 -10.506 -25.360  0.00  0.00    +0.314 C 
BRANCH   9  10
ATOM     10  O   UNL     1      35.393 -10.053 -24.110  0.00  0.00    -0.480 OA
ATOM     11  H   UNL     1      35.909 -10.571 -23.524  0.00  0.00    +0.295 HD
ENDBRANCH   9  10
ENDBRANCH   7   9
ENDBRANCH   6   7
ENDBRANCH   4   6
ENDBRANCH   1   3
BRANCH   1  12
ATOM     12  P   UNL     1      34.292 -16.156 -21.463  0.00  0.00    +0.406 P 
ATOM     13  O   UNL     1      32.954 -16.492 -20.867  0.00  0.00    -0.242 OA
BRANCH  12  14
ATOM     14  O   UNL     1      35.013 -14.858 -20.820  0.00  0.00    -0.314 OA
ATOM     15  H   UNL     1      34.341 -14.218 -20.542  0.00  0.00    +0.221 HD
ENDBRANCH  12  14
BRANCH  12  16
ATOM     16  O   UNL     1      35.402 -17.321 -21.380  0.00  0.00    -0.421 OA
BRANCH  16  17
ATOM     17  C   UNL     1      35.184 -18.602 -20.954  0.00  0.00    +0.147 C 
ATOM     18  C   UNL     1      33.887 -19.116 -20.924  0.00  0.00    +0.037 C 
ATOM     19  C   UNL     1      36.257 -19.394 -20.548  0.00  0.00    +0.037 C 
ATOM     20  C   UNL     1      33.664 -20.422 -20.490  0.00  0.00    +0.003 C 
ATOM     21  C   UNL     1      36.034 -20.700 -20.113  0.00  0.00    +0.003 C 
ATOM     22  C   UNL     1      34.737 -21.214 -20.083  0.00  0.00    +0.000 C 
ENDBRANCH  16  17
ENDBRANCH  12  16
ENDBRANCH   1  12
BRANCH   1  23
ATOM     23  C   UNL     1      35.241 -16.389 -24.148  0.00  0.00    +0.033 C 
BRANCH  23  24
ATOM     24  C   UNL     1      34.665 -17.268 -25.260  0.00  0.00    +0.002 C 
BRANCH  24  25
ATOM     25  C   UNL     1      34.008 -18.525 -24.689  0.00  0.00    +0.000 C 
ATOM     26  C   UNL     1      35.021 -19.643 -24.501  0.00  0.00    +0.000 C 
ENDBRANCH  24  25
ENDBRANCH  23  24
ENDBRANCH   1  23
TORSDOF 12
ENDMDL
MODEL 9
REMARK VINA RESULT:      -7.9      7.702     11.407
REMARK  Name = 444107
REMARK  12 active torsions:
REMARK  status: ('A' for Active; 'I' for Inactive)
REMARK    1  A    between atoms: C_1  and  N_3
REMARK    2  A    between atoms: C_1  and  P_12
REMARK    3  A    between atoms: C_1  and  C_23
REMARK    4  A    between atoms: C_4  and  C_6
REMARK    5  A    between atoms: C_6  and  C_7
REMARK    6  A    between atoms: C_7  and  C_9
REMARK    7  A    between atoms: C_9  and  O_10
REMARK    8  A    between atoms: P_12  and  O_14
REMARK    9  A    between atoms: P_12  and  O_16
REMARK   10  A    between atoms: O_16  and  C_17
REMARK   11  A    between atoms: C_23  and  C_24
REMARK   12  A    between atoms: C_24  and  C_25
REMARK                            x       y       z     vdW  Elec       q    Type
REMARK                         _______ _______ _______ _____ _____    ______ ____
ROOT
ATOM      1  C   UNL     1      33.688 -15.063 -22.167  0.00  0.00    +0.189 C 
ENDROOT
BRANCH   1   3
ATOM      2  O   UNL     1      33.713 -13.127 -24.333  0.00  0.00    -0.275 OA
ATOM      3  N   UNL     1      33.443 -15.308 -23.580  0.00  0.00    -0.295 N 
ATOM      4  C   UNL     1      33.477 -14.315 -24.543  0.00  0.00    +0.223 C 
ATOM      5  H   UNL     1      33.244 -16.229 -23.866  0.00  0.00    +0.150 HD
BRANCH   4   6
ATOM      6  C   UNL     1      33.176 -14.836 -25.935  0.00  0.00    +0.097 C 
BRANCH   6   7
ATOM      7  C   UNL     1      32.985 -16.349 -25.947  0.00  0.00    +0.119 C 
BRANCH   7   9
ATOM      8  O   UNL     1      35.381 -16.701 -25.881  0.00  0.00    -0.250 OA
ATOM      9  C   UNL     1      34.256 -17.065 -25.567  0.00  0.00    +0.314 C 
BRANCH   9  10
ATOM     10  O   UNL     1      33.995 -18.184 -24.850  0.00  0.00    -0.480 OA
ATOM     11  H   UNL     1      33.868 -19.002 -25.288  0.00  0.00    +0.295 HD
ENDBRANCH   9  10
ENDBRANCH   7   9
ENDBRANCH   6   7
ENDBRANCH   4   6
ENDBRANCH   1   3
BRANCH   1  12
ATOM     12  P   UNL     1      34.743 -16.419 -21.646  0.00  0.00    +0.406 P 
ATOM     13  O   UNL     1      35.310 -16.226 -20.268  0.00  0.00    -0.242 OA
BRANCH  12  14
ATOM     14  O   UNL     1      35.845 -16.515 -22.825  0.00  0.00    -0.314 OA
ATOM     15  H   UNL     1      35.709 -15.790 -23.455  0.00  0.00    +0.221 HD
ENDBRANCH  12  14
BRANCH  12  16
ATOM     16  O   UNL     1      33.825 -17.730 -21.841  0.00  0.00    -0.421 OA
BRANCH  16  17
ATOM     17  C   UNL     1      33.959 -18.907 -21.158  0.00  0.00    +0.147 C 
ATOM     18  C   UNL     1      32.832 -19.538 -20.630  0.00  0.00    +0.037 C 
ATOM     19  C   UNL     1      35.221 -19.475 -20.989  0.00  0.00    +0.037 C 
ATOM     20  C   UNL     1      32.969 -20.738 -19.933  0.00  0.00    +0.003 C 
ATOM     21  C   UNL     1      35.357 -20.676 -20.292  0.00  0.00    +0.003 C 
ATOM     22  C   UNL     1      34.231 -21.307 -19.764  0.00  0.00    +0.000 C 
ENDBRANCH  16  17
ENDBRANCH  12  16
ENDBRANCH   1  12
BRANCH   1  23
ATOM     23  C   UNL     1      32.391 -14.817 -21.385  0.00  0.00    +0.033 C 
BRANCH  23  24
ATOM     24  C   UNL     1      32.335 -13.489 -20.626  0.00  0.00    +0.002 C 
BRANCH  24  25
ATOM     25  C   UNL     1      31.783 -12.369 -21.508  0.00  0.00    +0.000 C 
ATOM     26  C   UNL     1      31.087 -11.302 -20.678  0.00  0.00    +0.000 C 
ENDBRANCH  24  25
ENDBRANCH  23  24
ENDBRANCH   1  23
TORSDOF 12
ENDMDL
