MODEL 1
REMARK VINA RESULT:      -6.8      0.000      0.000
REMARK  Name = 85875
REMARK  5 active torsions:
REMARK  status: ('A' for Active; 'I' for Inactive)
REMARK    1  A    between atoms: C_1  and  C_12
REMARK    2  A    between atoms: C_2  and  O_8
REMARK    3  A    between atoms: C_5  and  O_10
REMARK    4  A    between atoms: C_12  and  C_13
REMARK    5  A    between atoms: C_13  and  N_15
REMARK                            x       y       z     vdW  Elec       q    Type
REMARK                         _______ _______ _______ _____ _____    ______ ____
ROOT
ATOM      1  C   UNL     1      34.303 -15.720 -22.967  0.00  0.00    +0.013 C 
ATOM      2  C   UNL     1      34.079 -15.879 -24.326  0.00  0.00    +0.134 C 
ATOM      3  C   UNL     1      34.732 -16.778 -22.181  0.00  0.00    +0.035 C 
ATOM      4  C   UNL     1      34.720 -18.200 -24.134  0.00  0.00    +0.015 C 
ATOM      5  C   UNL     1      34.942 -18.025 -22.768  0.00  0.00    +0.135 C 
ATOM      6  C   UNL     1      34.288 -17.126 -24.913  0.00  0.00    +0.035 C 
ATOM      7  C   UNL     1      34.940 -19.529 -24.779  0.00  0.00    +0.034 C 
ENDROOT
BRANCH   2   8
ATOM      8  O   UNL     1      33.660 -14.840 -25.101  0.00  0.00    -0.472 OA
ATOM      9  C   UNL     1      32.962 -15.168 -26.301  0.00  0.00    +0.252 C 
ENDBRANCH   2   8
BRANCH   5  10
ATOM     10  O   UNL     1      35.366 -19.063 -21.993  0.00  0.00    -0.472 OA
ATOM     11  C   UNL     1      34.427 -19.606 -21.067  0.00  0.00    +0.252 C 
ENDBRANCH   5  10
BRANCH   1  12
ATOM     12  C   UNL     1      34.083 -14.376 -22.314  0.00  0.00    +0.008 C 
BRANCH  12  13
ATOM     13  C   UNL     1      32.612 -14.102 -21.947  0.00  0.00    -0.061 C 
ATOM     14  C   UNL     1      32.462 -13.482 -20.559  0.00  0.00    -0.024 C 
BRANCH  13  15
ATOM     15  N   UNL     1      32.025 -13.185 -22.928  0.00  0.00    +0.382 N 
ATOM     16  H   UNL     1      31.788 -13.700 -23.776  0.00  0.00    -0.089 HD
ATOM     17  H   UNL     1      32.698 -12.451 -23.152  0.00  0.00    -0.089 HD
ATOM     18  H   UNL     1      31.181 -12.765 -22.538  0.00  0.00    -0.089 HD
ENDBRANCH  13  15
ENDBRANCH  12  13
ENDBRANCH   1  12
TORSDOF 5
ENDMDL
MODEL 2
REMARK VINA RESULT:      -6.5      6.887     10.041
REMARK  Name = 85875
REMARK  5 active torsions:
REMARK  status: ('A' for Active; 'I' for Inactive)
REMARK    1  A    between atoms: C_1  and  C_12
REMARK    2  A    between atoms: C_2  and  O_8
REMARK    3  A    between atoms: C_5  and  O_10
REMARK    4  A    between atoms: C_12  and  C_13
REMARK    5  A    between atoms: C_13  and  N_15
REMARK                            x       y       z     vdW  Elec       q    Type
REMARK                         _______ _______ _______ _____ _____    ______ ____
ROOT
ATOM      1  C   UNL     1      33.353 -22.958 -17.493  0.00  0.00    +0.013 C 
ATOM      2  C   UNL     1      34.288 -23.143 -16.486  0.00  0.00    +0.134 C 
ATOM      3  C   UNL     1      31.994 -22.938 -17.216  0.00  0.00    +0.035 C 
ATOM      4  C   UNL     1      32.490 -23.296 -14.880  0.00  0.00    +0.015 C 
ATOM      5  C   UNL     1      31.561 -23.108 -15.902  0.00  0.00    +0.135 C 
ATOM      6  C   UNL     1      33.854 -23.314 -15.172  0.00  0.00    +0.035 C 
ATOM      7  C   UNL     1      32.044 -23.481 -13.467  0.00  0.00    +0.034 C 
ENDROOT
BRANCH   2   8
ATOM      8  O   UNL     1      35.624 -23.160 -16.755  0.00  0.00    -0.472 OA
ATOM      9  C   UNL     1      36.508 -22.996 -15.648  0.00  0.00    +0.252 C 
ENDBRANCH   2   8
BRANCH   5  10
ATOM     10  O   UNL     1      30.225 -23.086 -15.633  0.00  0.00    -0.472 OA
ATOM     11  C   UNL     1      29.464 -24.223 -16.037  0.00  0.00    +0.252 C 
ENDBRANCH   5  10
BRANCH   1  12
ATOM     12  C   UNL     1      33.803 -22.769 -18.922  0.00  0.00    +0.008 C 
BRANCH  12  13
ATOM     13  C   UNL     1      33.843 -21.296 -19.366  0.00  0.00    -0.061 C 
ATOM     14  C   UNL     1      35.157 -20.928 -20.056  0.00  0.00    -0.024 C 
BRANCH  13  15
ATOM     15  N   UNL     1      32.745 -21.035 -20.300  0.00  0.00    +0.382 N 
ATOM     16  H   UNL     1      33.119 -20.637 -21.162  0.00  0.00    -0.089 HD
ATOM     17  H   UNL     1      32.088 -20.378 -19.879  0.00  0.00    -0.089 HD
ATOM     18  H   UNL     1      32.262 -21.909 -20.511  0.00  0.00    -0.089 HD
ENDBRANCH  13  15
ENDBRANCH  12  13
ENDBRANCH   1  12
TORSDOF 5
ENDMDL
MODEL 3
REMARK VINA RESULT:      -6.4      1.376      3.632
REMARK  Name = 85875
REMARK  5 active torsions:
REMARK  status: ('A' for Active; 'I' for Inactive)
REMARK    1  A    between atoms: C_1  and  C_12
REMARK    2  A    between atoms: C_2  and  O_8
REMARK    3  A    between atoms: C_5  and  O_10
REMARK    4  A    between atoms: C_12  and  C_13
REMARK    5  A    between atoms: C_13  and  N_15
REMARK                            x       y       z     vdW  Elec       q    Type
REMARK                         _______ _______ _______ _____ _____    ______ ____
ROOT
ATOM      1  C   UNL     1      34.615 -15.935 -22.457  0.00  0.00    +0.013 C 
ATOM      2  C   UNL     1      34.951 -17.237 -22.117  0.00  0.00    +0.134 C 
ATOM      3  C   UNL     1      34.262 -15.600 -23.755  0.00  0.00    +0.035 C 
ATOM      4  C   UNL     1      34.583 -17.903 -24.410  0.00  0.00    +0.015 C 
ATOM      5  C   UNL     1      34.246 -16.590 -24.737  0.00  0.00    +0.135 C 
ATOM      6  C   UNL     1      34.936 -18.227 -23.099  0.00  0.00    +0.035 C 
ATOM      7  C   UNL     1      34.572 -18.976 -25.449  0.00  0.00    +0.034 C 
ENDROOT
BRANCH   2   8
ATOM      8  O   UNL     1      35.295 -17.570 -20.841  0.00  0.00    -0.472 OA
ATOM      9  C   UNL     1      36.003 -18.795 -20.660  0.00  0.00    +0.252 C 
ENDBRANCH   2   8
BRANCH   5  10
ATOM     10  O   UNL     1      33.897 -16.258 -26.012  0.00  0.00    -0.472 OA
ATOM     11  C   UNL     1      33.095 -15.091 -26.180  0.00  0.00    +0.252 C 
ENDBRANCH   5  10
BRANCH   1  12
ATOM     12  C   UNL     1      34.624 -14.851 -21.406  0.00  0.00    +0.008 C 
BRANCH  12  13
ATOM     13  C   UNL     1      33.249 -14.611 -20.757  0.00  0.00    -0.061 C 
ATOM     14  C   UNL     1      32.428 -13.556 -21.498  0.00  0.00    -0.024 C 
BRANCH  13  15
ATOM     15  N   UNL     1      32.487 -15.862 -20.744  0.00  0.00    +0.382 N 
ATOM     16  H   UNL     1      31.842 -15.860 -19.953  0.00  0.00    -0.089 HD
ATOM     17  H   UNL     1      33.129 -16.651 -20.657  0.00  0.00    -0.089 HD
ATOM     18  H   UNL     1      31.959 -15.948 -21.613  0.00  0.00    -0.089 HD
ENDBRANCH  13  15
ENDBRANCH  12  13
ENDBRANCH   1  12
TORSDOF 5
ENDMDL
MODEL 4
REMARK VINA RESULT:      -6.3      3.037      4.726
REMARK  Name = 85875
REMARK  5 active torsions:
REMARK  status: ('A' for Active; 'I' for Inactive)
REMARK    1  A    between atoms: C_1  and  C_12
REMARK    2  A    between atoms: C_2  and  O_8
REMARK    3  A    between atoms: C_5  and  O_10
REMARK    4  A    between atoms: C_12  and  C_13
REMARK    5  A    between atoms: C_13  and  N_15
REMARK                            x       y       z     vdW  Elec       q    Type
REMARK                         _______ _______ _______ _____ _____    ______ ____
ROOT
ATOM      1  C   UNL     1      33.303 -12.717 -23.767  0.00  0.00    +0.013 C 
ATOM      2  C   UNL     1      32.497 -12.420 -22.678  0.00  0.00    +0.134 C 
ATOM      3  C   UNL     1      33.890 -13.965 -23.907  0.00  0.00    +0.035 C 
ATOM      4  C   UNL     1      32.861 -14.653 -21.833  0.00  0.00    +0.015 C 
ATOM      5  C   UNL     1      33.668 -14.939 -22.935  0.00  0.00    +0.135 C 
ATOM      6  C   UNL     1      32.276 -13.393 -21.705  0.00  0.00    +0.035 C 
ATOM      7  C   UNL     1      32.612 -15.684 -20.782  0.00  0.00    +0.034 C 
ENDROOT
BRANCH   2   8
ATOM      8  O   UNL     1      31.916 -11.195 -22.540  0.00  0.00    -0.472 OA
ATOM      9  C   UNL     1      30.855 -11.086 -21.593  0.00  0.00    +0.252 C 
ENDBRANCH   2   8
BRANCH   5  10
ATOM     10  O   UNL     1      34.245 -16.165 -23.076  0.00  0.00    -0.472 OA
ATOM     11  C   UNL     1      34.637 -16.549 -24.393  0.00  0.00    +0.252 C 
ENDBRANCH   5  10
BRANCH   1  12
ATOM     12  C   UNL     1      33.553 -11.675 -24.832  0.00  0.00    +0.008 C 
BRANCH  12  13
ATOM     13  C   UNL     1      34.685 -10.694 -24.479  0.00  0.00    -0.061 C 
ATOM     14  C   UNL     1      35.505 -10.283 -25.702  0.00  0.00    -0.024 C 
BRANCH  13  15
ATOM     15  N   UNL     1      34.116  -9.484 -23.879  0.00  0.00    +0.382 N 
ATOM     16  H   UNL     1      34.651  -8.669 -24.183  0.00  0.00    -0.089 HD
ATOM     17  H   UNL     1      34.156  -9.556 -22.863  0.00  0.00    -0.089 HD
ATOM     18  H   UNL     1      33.145  -9.381 -24.175  0.00  0.00    -0.089 HD
ENDBRANCH  13  15
ENDBRANCH  12  13
ENDBRANCH   1  12
TORSDOF 5
ENDMDL
MODEL 5
REMARK VINA RESULT:      -6.3      2.414      4.742
REMARK  Name = 85875
REMARK  5 active torsions:
REMARK  status: ('A' for Active; 'I' for Inactive)
REMARK    1  A    between atoms: C_1  and  C_12
REMARK    2  A    between atoms: C_2  and  O_8
REMARK    3  A    between atoms: C_5  and  O_10
REMARK    4  A    between atoms: C_12  and  C_13
REMARK    5  A    between atoms: C_13  and  N_15
REMARK                            x       y       z     vdW  Elec       q    Type
REMARK                         _______ _______ _______ _____ _____    ______ ____
ROOT
ATOM      1  C   UNL     1      35.237 -17.589 -21.696  0.00  0.00    +0.013 C 
ATOM      2  C   UNL     1      35.252 -17.549 -23.082  0.00  0.00    +0.134 C 
ATOM      3  C   UNL     1      34.820 -16.497 -20.951  0.00  0.00    +0.035 C 
ATOM      4  C   UNL     1      34.419 -15.283 -23.001  0.00  0.00    +0.015 C 
ATOM      5  C   UNL     1      34.408 -15.337 -21.607  0.00  0.00    +0.135 C 
ATOM      6  C   UNL     1      34.842 -16.389 -23.738  0.00  0.00    +0.035 C 
ATOM      7  C   UNL     1      33.983 -14.049 -23.720  0.00  0.00    +0.034 C 
ENDROOT
BRANCH   2   8
ATOM      8  O   UNL     1      35.659 -18.622 -23.817  0.00  0.00    -0.472 OA
ATOM      9  C   UNL     1      34.689 -19.226 -24.672  0.00  0.00    +0.252 C 
ENDBRANCH   2   8
BRANCH   5  10
ATOM     10  O   UNL     1      33.997 -14.266 -20.872  0.00  0.00    -0.472 OA
ATOM     11  C   UNL     1      32.682 -14.325 -20.321  0.00  0.00    +0.252 C 
ENDBRANCH   5  10
BRANCH   1  12
ATOM     12  C   UNL     1      35.677 -18.837 -20.968  0.00  0.00    +0.008 C 
BRANCH  12  13
ATOM     13  C   UNL     1      34.631 -19.967 -20.996  0.00  0.00    -0.061 C 
ATOM     14  C   UNL     1      34.869 -21.011 -19.906  0.00  0.00    -0.024 C 
BRANCH  13  15
ATOM     15  N   UNL     1      33.293 -19.401 -20.808  0.00  0.00    +0.382 N 
ATOM     16  H   UNL     1      33.074 -19.370 -19.811  0.00  0.00    -0.089 HD
ATOM     17  H   UNL     1      32.607 -19.984 -21.288  0.00  0.00    -0.089 HD
ATOM     18  H   UNL     1      33.265 -18.456 -21.191  0.00  0.00    -0.089 HD
ENDBRANCH  13  15
ENDBRANCH  12  13
ENDBRANCH   1  12
TORSDOF 5
ENDMDL
MODEL 6
REMARK VINA RESULT:      -6.3      2.486      4.603
REMARK  Name = 85875
REMARK  5 active torsions:
REMARK  status: ('A' for Active; 'I' for Inactive)
REMARK    1  A    between atoms: C_1  and  C_12
REMARK    2  A    between atoms: C_2  and  O_8
REMARK    3  A    between atoms: C_5  and  O_10
REMARK    4  A    between atoms: C_12  and  C_13
REMARK    5  A    between atoms: C_13  and  N_15
REMARK                            x       y       z     vdW  Elec       q    Type
REMARK                         _______ _______ _______ _____ _____    ______ ____
ROOT
ATOM      1  C   UNL     1      34.142 -15.780 -24.272  0.00  0.00    +0.013 C 
ATOM      2  C   UNL     1      33.514 -14.874 -25.114  0.00  0.00    +0.134 C 
ATOM      3  C   UNL     1      34.139 -15.604 -22.897  0.00  0.00    +0.035 C 
ATOM      4  C   UNL     1      32.858 -13.576 -23.185  0.00  0.00    +0.015 C 
ATOM      5  C   UNL     1      33.493 -14.495 -22.350  0.00  0.00    +0.135 C 
ATOM      6  C   UNL     1      32.869 -13.765 -24.567  0.00  0.00    +0.035 C 
ATOM      7  C   UNL     1      32.162 -12.383 -22.617  0.00  0.00    +0.034 C 
ENDROOT
BRANCH   2   8
ATOM      8  O   UNL     1      33.513 -15.047 -26.465  0.00  0.00    -0.472 OA
ATOM      9  C   UNL     1      33.339 -13.879 -27.266  0.00  0.00    +0.252 C 
ENDBRANCH   2   8
BRANCH   5  10
ATOM     10  O   UNL     1      33.490 -14.326 -20.998  0.00  0.00    -0.472 OA
ATOM     11  C   UNL     1      32.695 -15.231 -20.234  0.00  0.00    +0.252 C 
ENDBRANCH   5  10
BRANCH   1  12
ATOM     12  C   UNL     1      34.844 -16.987 -24.845  0.00  0.00    +0.008 C 
BRANCH  12  13
ATOM     13  C   UNL     1      34.899 -18.185 -23.879  0.00  0.00    -0.061 C 
ATOM     14  C   UNL     1      34.669 -19.519 -24.588  0.00  0.00    -0.024 C 
BRANCH  13  15
ATOM     15  N   UNL     1      36.211 -18.229 -23.228  0.00  0.00    +0.382 N 
ATOM     16  H   UNL     1      36.539 -19.196 -23.191  0.00  0.00    -0.089 HD
ATOM     17  H   UNL     1      36.134 -17.860 -22.280  0.00  0.00    -0.089 HD
ATOM     18  H   UNL     1      36.875 -17.666 -23.760  0.00  0.00    -0.089 HD
ENDBRANCH  13  15
ENDBRANCH  12  13
ENDBRANCH   1  12
TORSDOF 5
ENDMDL
MODEL 7
REMARK VINA RESULT:      -6.3      9.582     12.216
REMARK  Name = 85875
REMARK  5 active torsions:
REMARK  status: ('A' for Active; 'I' for Inactive)
REMARK    1  A    between atoms: C_1  and  C_12
REMARK    2  A    between atoms: C_2  and  O_8
REMARK    3  A    between atoms: C_5  and  O_10
REMARK    4  A    between atoms: C_12  and  C_13
REMARK    5  A    between atoms: C_13  and  N_15
REMARK                            x       y       z     vdW  Elec       q    Type
REMARK                         _______ _______ _______ _____ _____    ______ ____
ROOT
ATOM      1  C   UNL     1      34.852 -23.917 -14.121  0.00  0.00    +0.013 C 
ATOM      2  C   UNL     1      33.481 -24.052 -14.276  0.00  0.00    +0.134 C 
ATOM      3  C   UNL     1      35.646 -23.421 -15.144  0.00  0.00    +0.035 C 
ATOM      4  C   UNL     1      33.676 -23.183 -16.522  0.00  0.00    +0.015 C 
ATOM      5  C   UNL     1      35.054 -23.052 -16.351  0.00  0.00    +0.135 C 
ATOM      6  C   UNL     1      32.889 -23.684 -15.484  0.00  0.00    +0.035 C 
ATOM      7  C   UNL     1      33.025 -22.793 -17.808  0.00  0.00    +0.034 C 
ENDROOT
BRANCH   2   8
ATOM      8  O   UNL     1      32.699 -24.536 -13.271  0.00  0.00    -0.472 OA
ATOM      9  C   UNL     1      31.426 -25.066 -13.640  0.00  0.00    +0.252 C 
ENDBRANCH   2   8
BRANCH   5  10
ATOM     10  O   UNL     1      35.836 -22.563 -17.355  0.00  0.00    -0.472 OA
ATOM     11  C   UNL     1      36.985 -21.809 -16.971  0.00  0.00    +0.252 C 
ENDBRANCH   5  10
BRANCH   1  12
ATOM     12  C   UNL     1      35.510 -24.310 -12.820  0.00  0.00    +0.008 C 
BRANCH  12  13
ATOM     13  C   UNL     1      36.931 -24.878 -12.995  0.00  0.00    -0.061 C 
ATOM     14  C   UNL     1      37.898 -24.375 -11.924  0.00  0.00    -0.024 C 
BRANCH  13  15
ATOM     15  N   UNL     1      36.886 -26.341 -12.923  0.00  0.00    +0.382 N 
ATOM     16  H   UNL     1      35.913 -26.652 -12.940  0.00  0.00    -0.089 HD
ATOM     17  H   UNL     1      37.328 -26.653 -12.059  0.00  0.00    -0.089 HD
ATOM     18  H   UNL     1      37.382 -26.737 -13.722  0.00  0.00    -0.089 HD
ENDBRANCH  13  15
ENDBRANCH  12  13
ENDBRANCH   1  12
TORSDOF 5
ENDMDL
MODEL 8
REMARK VINA RESULT:      -6.3      4.447      6.879
REMARK  Name = 85875
REMARK  5 active torsions:
REMARK  status: ('A' for Active; 'I' for Inactive)
REMARK    1  A    between atoms: C_1  and  C_12
REMARK    2  A    between atoms: C_2  and  O_8
REMARK    3  A    between atoms: C_5  and  O_10
REMARK    4  A    between atoms: C_12  and  C_13
REMARK    5  A    between atoms: C_13  and  N_15
REMARK                            x       y       z     vdW  Elec       q    Type
REMARK                         _______ _______ _______ _____ _____    ______ ____
ROOT
ATOM      1  C   UNL     1      32.174 -10.081 -22.573  0.00  0.00    +0.013 C 
ATOM      2  C   UNL     1      31.762 -11.258 -21.966  0.00  0.00    +0.134 C 
ATOM      3  C   UNL     1      33.085 -10.093 -23.619  0.00  0.00    +0.035 C 
ATOM      4  C   UNL     1      33.190 -12.501 -23.466  0.00  0.00    +0.015 C 
ATOM      5  C   UNL     1      33.596 -11.310 -24.068  0.00  0.00    +0.135 C 
ATOM      6  C   UNL     1      32.274 -12.475 -22.414  0.00  0.00    +0.035 C 
ATOM      7  C   UNL     1      33.728 -13.814 -23.934  0.00  0.00    +0.034 C 
ENDROOT
BRANCH   2   8
ATOM      8  O   UNL     1      30.865 -11.249 -20.940  0.00  0.00    -0.472 OA
ATOM      9  C   UNL     1      31.388 -11.407 -19.623  0.00  0.00    +0.252 C 
ENDBRANCH   2   8
BRANCH   5  10
ATOM     10  O   UNL     1      34.489 -11.319 -25.097  0.00  0.00    -0.472 OA
ATOM     11  C   UNL     1      35.339 -10.180 -25.226  0.00  0.00    +0.252 C 
ENDBRANCH   5  10
BRANCH   1  12
ATOM     12  C   UNL     1      31.630  -8.754 -22.102  0.00  0.00    +0.008 C 
BRANCH  12  13
ATOM     13  C   UNL     1      32.703  -7.825 -21.504  0.00  0.00    -0.061 C 
ATOM     14  C   UNL     1      32.363  -6.346 -21.685  0.00  0.00    -0.024 C 
BRANCH  13  15
ATOM     15  N   UNL     1      32.841  -8.094 -20.071  0.00  0.00    +0.382 N 
ATOM     16  H   UNL     1      33.746  -8.531 -19.892  0.00  0.00    -0.089 HD
ATOM     17  H   UNL     1      32.095  -8.721 -19.768  0.00  0.00    -0.089 HD
ATOM     18  H   UNL     1      32.780  -7.217 -19.552  0.00  0.00    -0.089 HD
ENDBRANCH  13  15
ENDBRANCH  12  13
ENDBRANCH   1  12
TORSDOF 5
ENDMDL
MODEL 9
REMARK VINA RESULT:      -6.2      4.405      7.761
REMARK  Name = 85875
REMARK  5 active torsions:
REMARK  status: ('A' for Active; 'I' for Inactive)
REMARK    1  A    between atoms: C_1  and  C_12
REMARK    2  A    between atoms: C_2  and  O_8
REMARK    3  A    between atoms: C_5  and  O_10
REMARK    4  A    between atoms: C_12  and  C_13
REMARK    5  A    between atoms: C_13  and  N_15
REMARK                            x       y       z     vdW  Elec       q    Type
REMARK                         _______ _______ _______ _____ _____    ______ ____
ROOT
ATOM      1  C   UNL     1      32.353 -10.345 -22.548  0.00  0.00    +0.013 C 
ATOM      2  C   UNL     1      31.943 -11.584 -22.080  0.00  0.00    +0.134 C 
ATOM      3  C   UNL     1      32.389  -9.239 -21.713  0.00  0.00    +0.035 C 
ATOM      4  C   UNL     1      31.591 -10.616 -19.895  0.00  0.00    +0.015 C 
ATOM      5  C   UNL     1      32.006  -9.375 -20.379  0.00  0.00    +0.135 C 
ATOM      6  C   UNL     1      31.559 -11.721 -20.747  0.00  0.00    +0.035 C 
ATOM      7  C   UNL     1      31.177 -10.780 -18.470  0.00  0.00    +0.034 C 
ENDROOT
BRANCH   2   8
ATOM      8  O   UNL     1      31.910 -12.674 -22.898  0.00  0.00    -0.472 OA
ATOM      9  C   UNL     1      32.610 -13.836 -22.457  0.00  0.00    +0.252 C 
ENDBRANCH   2   8
BRANCH   5  10
ATOM     10  O   UNL     1      32.045  -8.286 -19.560  0.00  0.00    -0.472 OA
ATOM     11  C   UNL     1      32.417  -7.043 -20.152  0.00  0.00    +0.252 C 
ENDBRANCH   5  10
BRANCH   1  12
ATOM     12  C   UNL     1      32.774 -10.178 -23.988  0.00  0.00    +0.008 C 
BRANCH  12  13
ATOM     13  C   UNL     1      34.119 -10.851 -24.319  0.00  0.00    -0.061 C 
ATOM     14  C   UNL     1      34.087 -11.599 -25.652  0.00  0.00    -0.024 C 
BRANCH  13  15
ATOM     15  N   UNL     1      35.172  -9.834 -24.387  0.00  0.00    +0.382 N 
ATOM     16  H   UNL     1      35.883 -10.125 -25.059  0.00  0.00    -0.089 HD
ATOM     17  H   UNL     1      35.599  -9.724 -23.467  0.00  0.00    -0.089 HD
ATOM     18  H   UNL     1      34.768  -8.945 -24.683  0.00  0.00    -0.089 HD
ENDBRANCH  13  15
ENDBRANCH  12  13
ENDBRANCH   1  12
TORSDOF 5
ENDMDL
