MODEL 1
REMARK VINA RESULT:      -9.3      0.000      0.000
REMARK  Name = 2663
REMARK  11 active torsions:
REMARK  status: ('A' for Active; 'I' for Inactive)
REMARK    1  A    between atoms: C_1  and  O_19
REMARK    2  A    between atoms: C_2  and  C_17
REMARK    3  A    between atoms: C_3  and  N_9
REMARK    4  A    between atoms: N_8  and  C_12
REMARK    5  A    between atoms: N_8  and  C_14
REMARK    6  A    between atoms: O_19  and  C_20
REMARK    7  A    between atoms: C_20  and  C_21
REMARK    8  A    between atoms: C_21  and  O_22
REMARK    9  A    between atoms: C_21  and  C_24
REMARK   10  A    between atoms: C_24  and  N_25
REMARK   11  A    between atoms: N_25  and  C_28
REMARK                            x       y       z     vdW  Elec       q    Type
REMARK                         _______ _______ _______ _____ _____    ______ ____
ROOT
ATOM      1  C   UNL     1      36.052 -21.672 -18.846  0.00  0.00    +0.141 C 
ATOM      2  C   UNL     1      34.749 -21.792 -19.321  0.00  0.00    +0.070 C 
ATOM      3  C   UNL     1      35.094 -19.857 -20.727  0.00  0.00    +0.052 C 
ATOM      4  C   UNL     1      36.878 -20.650 -19.305  0.00  0.00    +0.038 C 
ATOM      5  C   UNL     1      34.270 -20.883 -20.263  0.00  0.00    +0.021 C 
ATOM      6  C   UNL     1      36.399 -19.741 -20.247  0.00  0.00    +0.018 C 
ENDROOT
BRANCH   3   9
ATOM      7  O   UNL     1      34.736 -16.868 -20.623  0.00  0.00    -0.252 OA
ATOM      8  N   UNL     1      34.759 -16.942 -22.936  0.00  0.00    -0.264 N 
ATOM      9  N   UNL     1      34.613 -18.947 -21.669  0.00  0.00    -0.268 N 
ATOM     10  C   UNL     1      34.712 -17.541 -21.656  0.00  0.00    +0.308 C 
ATOM     11  H   UNL     1      34.145 -19.338 -22.442  0.00  0.00    +0.156 HD
BRANCH   8  12
ATOM     12  C   UNL     1      34.732 -17.732 -24.165  0.00  0.00    +0.095 C 
ATOM     13  C   UNL     1      34.666 -16.847 -25.393  0.00  0.00    +0.023 C 
ENDBRANCH   8  12
BRANCH   8  14
ATOM     14  C   UNL     1      34.840 -15.498 -23.114  0.00  0.00    +0.095 C 
ATOM     15  C   UNL     1      33.530 -14.821 -22.771  0.00  0.00    +0.023 C 
ENDBRANCH   8  14
ENDBRANCH   3   9
BRANCH   2  17
ATOM     16  O   UNL     1      33.882 -23.984 -19.374  0.00  0.00    -0.291 OA
ATOM     17  C   UNL     1      33.872 -22.854 -18.849  0.00  0.00    +0.176 C 
ATOM     18  C   UNL     1      32.916 -22.601 -17.690  0.00  0.00    +0.077 C 
ENDBRANCH   2  17
BRANCH   1  19
ATOM     19  O   UNL     1      36.542 -22.553 -17.919  0.00  0.00    -0.473 OA
BRANCH  19  20
ATOM     20  C   UNL     1      36.755 -22.048 -16.605  0.00  0.00    +0.232 C 
BRANCH  20  21
ATOM     21  C   UNL     1      36.218 -23.060 -15.595  0.00  0.00    +0.133 C 
BRANCH  21  22
ATOM     22  O   UNL     1      35.147 -22.452 -14.866  0.00  0.00    -0.383 OA
ATOM     23  H   UNL     1      35.505 -21.992 -14.091  0.00  0.00    +0.210 HD
ENDBRANCH  21  22
BRANCH  21  24
ATOM     24  C   UNL     1      37.272 -23.531 -14.591  0.00  0.00    -0.048 C 
BRANCH  24  25
ATOM     25  N   UNL     1      38.287 -24.364 -15.214  0.00  0.00    +0.388 N 
ATOM     26  H   UNL     1      37.915 -24.752 -16.082  0.00  0.00    -0.084 HD
ATOM     27  H   UNL     1      39.109 -23.792 -15.407  0.00  0.00    -0.084 HD
BRANCH  25  28
ATOM     28  C   UNL     1      38.673 -25.462 -14.322  0.00  0.00    -0.046 C 
ATOM     29  C   UNL     1      37.733 -26.647 -14.573  0.00  0.00    -0.022 C 
ATOM     30  C   UNL     1      40.118 -25.861 -14.636  0.00  0.00    -0.022 C 
ATOM     31  C   UNL     1      38.559 -24.999 -12.865  0.00  0.00    -0.022 C 
ENDBRANCH  25  28
ENDBRANCH  24  25
ENDBRANCH  21  24
ENDBRANCH  20  21
ENDBRANCH  19  20
ENDBRANCH   1  19
TORSDOF 11
ENDMDL
MODEL 2
REMARK VINA RESULT:      -9.0      5.587      9.802
REMARK  Name = 2663
REMARK  11 active torsions:
REMARK  status: ('A' for Active; 'I' for Inactive)
REMARK    1  A    between atoms: C_1  and  O_19
REMARK    2  A    between atoms: C_2  and  C_17
REMARK    3  A    between atoms: C_3  and  N_9
REMARK    4  A    between atoms: N_8  and  C_12
REMARK    5  A    between atoms: N_8  and  C_14
REMARK    6  A    between atoms: O_19  and  C_20
REMARK    7  A    between atoms: C_20  and  C_21
REMARK    8  A    between atoms: C_21  and  O_22
REMARK    9  A    between atoms: C_21  and  C_24
REMARK   10  A    between atoms: C_24  and  N_25
REMARK   11  A    between atoms: N_25  and  C_28
REMARK                            x       y       z     vdW  Elec       q    Type
REMARK                         _______ _______ _______ _____ _____    ______ ____
ROOT
ATOM      1  C   UNL     1      32.453 -13.595 -22.255  0.00  0.00    +0.141 C 
ATOM      2  C   UNL     1      33.249 -13.378 -23.376  0.00  0.00    +0.070 C 
ATOM      3  C   UNL     1      32.788 -11.010 -23.233  0.00  0.00    +0.052 C 
ATOM      4  C   UNL     1      31.822 -12.529 -21.621  0.00  0.00    +0.038 C 
ATOM      5  C   UNL     1      33.417 -12.083 -23.865  0.00  0.00    +0.021 C 
ATOM      6  C   UNL     1      31.990 -11.234 -22.110  0.00  0.00    +0.018 C 
ENDROOT
BRANCH   3   9
ATOM      7  O   UNL     1      30.889  -8.680 -23.419  0.00  0.00    -0.252 OA
ATOM      8  N   UNL     1      32.779  -7.351 -23.550  0.00  0.00    -0.264 N 
ATOM      9  N   UNL     1      32.955  -9.715 -23.723  0.00  0.00    -0.268 N 
ATOM     10  C   UNL     1      32.112  -8.598 -23.547  0.00  0.00    +0.308 C 
ATOM     11  H   UNL     1      33.765  -9.561 -24.260  0.00  0.00    +0.156 HD
BRANCH   8  12
ATOM     12  C   UNL     1      34.229  -7.246 -23.700  0.00  0.00    +0.095 C 
ATOM     13  C   UNL     1      34.604  -6.592 -25.015  0.00  0.00    +0.023 C 
ENDBRANCH   8  12
BRANCH   8  14
ATOM     14  C   UNL     1      32.065  -6.089 -23.402  0.00  0.00    +0.095 C 
ATOM     15  C   UNL     1      31.849  -5.741 -21.944  0.00  0.00    +0.023 C 
ENDBRANCH   8  14
ENDBRANCH   3   9
BRANCH   2  17
ATOM     16  O   UNL     1      34.966 -14.979 -23.605  0.00  0.00    -0.291 OA
ATOM     17  C   UNL     1      33.914 -14.483 -24.052  0.00  0.00    +0.176 C 
ATOM     18  C   UNL     1      33.327 -15.062 -25.334  0.00  0.00    +0.077 C 
ENDBRANCH   2  17
BRANCH   1  19
ATOM     19  O   UNL     1      32.274 -14.859 -21.760  0.00  0.00    -0.473 OA
BRANCH  19  20
ATOM     20  C   UNL     1      32.592 -15.060 -20.387  0.00  0.00    +0.232 C 
BRANCH  20  21
ATOM     21  C   UNL     1      33.927 -15.797 -20.292  0.00  0.00    +0.133 C 
BRANCH  21  22
ATOM     22  O   UNL     1      34.977 -14.876 -20.600  0.00  0.00    -0.383 OA
ATOM     23  H   UNL     1      34.608 -13.984 -20.691  0.00  0.00    +0.210 HD
ENDBRANCH  21  22
BRANCH  21  24
ATOM     24  C   UNL     1      34.034 -16.984 -21.251  0.00  0.00    -0.048 C 
BRANCH  24  25
ATOM     25  N   UNL     1      35.073 -17.918 -20.851  0.00  0.00    +0.388 N 
ATOM     26  H   UNL     1      35.955 -17.643 -21.284  0.00  0.00    -0.084 HD
ATOM     27  H   UNL     1      35.158 -17.901 -19.835  0.00  0.00    -0.084 HD
BRANCH  25  28
ATOM     28  C   UNL     1      34.733 -19.280 -21.276  0.00  0.00    -0.046 C 
ATOM     29  C   UNL     1      34.838 -19.356 -22.803  0.00  0.00    -0.022 C 
ATOM     30  C   UNL     1      35.725 -20.254 -20.631  0.00  0.00    -0.022 C 
ATOM     31  C   UNL     1      33.304 -19.611 -20.829  0.00  0.00    -0.022 C 
ENDBRANCH  25  28
ENDBRANCH  24  25
ENDBRANCH  21  24
ENDBRANCH  20  21
ENDBRANCH  19  20
ENDBRANCH   1  19
TORSDOF 11
ENDMDL
MODEL 3
REMARK VINA RESULT:      -9.0      5.572     12.730
REMARK  Name = 2663
REMARK  11 active torsions:
REMARK  status: ('A' for Active; 'I' for Inactive)
REMARK    1  A    between atoms: C_1  and  O_19
REMARK    2  A    between atoms: C_2  and  C_17
REMARK    3  A    between atoms: C_3  and  N_9
REMARK    4  A    between atoms: N_8  and  C_12
REMARK    5  A    between atoms: N_8  and  C_14
REMARK    6  A    between atoms: O_19  and  C_20
REMARK    7  A    between atoms: C_20  and  C_21
REMARK    8  A    between atoms: C_21  and  O_22
REMARK    9  A    between atoms: C_21  and  C_24
REMARK   10  A    between atoms: C_24  and  N_25
REMARK   11  A    between atoms: N_25  and  C_28
REMARK                            x       y       z     vdW  Elec       q    Type
REMARK                         _______ _______ _______ _____ _____    ______ ____
ROOT
ATOM      1  C   UNL     1      32.417 -12.289 -22.409  0.00  0.00    +0.141 C 
ATOM      2  C   UNL     1      33.423 -12.519 -23.343  0.00  0.00    +0.070 C 
ATOM      3  C   UNL     1      33.623 -14.794 -22.552  0.00  0.00    +0.052 C 
ATOM      4  C   UNL     1      32.010 -13.302 -21.546  0.00  0.00    +0.038 C 
ATOM      5  C   UNL     1      34.027 -13.775 -23.414  0.00  0.00    +0.021 C 
ATOM      6  C   UNL     1      32.614 -14.558 -21.618  0.00  0.00    +0.018 C 
ENDROOT
BRANCH   3   9
ATOM      7  O   UNL     1      35.124 -16.412 -20.503  0.00  0.00    -0.252 OA
ATOM      8  N   UNL     1      34.629 -18.250 -21.821  0.00  0.00    -0.264 N 
ATOM      9  N   UNL     1      34.227 -16.049 -22.624  0.00  0.00    -0.268 N 
ATOM     10  C   UNL     1      34.686 -16.860 -21.565  0.00  0.00    +0.308 C 
ATOM     11  H   UNL     1      34.349 -16.416 -23.529  0.00  0.00    +0.156 HD
BRANCH   8  12
ATOM     12  C   UNL     1      34.111 -18.788 -23.077  0.00  0.00    +0.095 C 
ATOM     13  C   UNL     1      35.224 -19.335 -23.947  0.00  0.00    +0.023 C 
ENDBRANCH   8  12
BRANCH   8  14
ATOM     14  C   UNL     1      35.082 -19.237 -20.848  0.00  0.00    +0.095 C 
ATOM     15  C   UNL     1      33.969 -20.189 -20.465  0.00  0.00    +0.023 C 
ENDBRANCH   8  14
ENDBRANCH   3   9
BRANCH   2  17
ATOM     16  O   UNL     1      34.238 -10.359 -23.825  0.00  0.00    -0.291 OA
ATOM     17  C   UNL     1      33.862 -11.469 -24.250  0.00  0.00    +0.176 C 
ATOM     18  C   UNL     1      33.870 -11.709 -25.755  0.00  0.00    +0.077 C 
ENDBRANCH   2  17
BRANCH   1  19
ATOM     19  O   UNL     1      31.813 -11.063 -22.321  0.00  0.00    -0.473 OA
BRANCH  19  20
ATOM     20  C   UNL     1      31.258 -10.712 -21.058  0.00  0.00    +0.232 C 
BRANCH  20  21
ATOM     21  C   UNL     1      32.226  -9.776 -20.337  0.00  0.00    +0.133 C 
BRANCH  21  22
ATOM     22  O   UNL     1      31.860  -9.719 -18.955  0.00  0.00    -0.383 OA
ATOM     23  H   UNL     1      31.097 -10.298 -18.799  0.00  0.00    +0.210 HD
ENDBRANCH  21  22
BRANCH  21  24
ATOM     24  C   UNL     1      32.218  -8.350 -20.892  0.00  0.00    -0.048 C 
BRANCH  24  25
ATOM     25  N   UNL     1      32.993  -8.236 -22.116  0.00  0.00    +0.388 N 
ATOM     26  H   UNL     1      33.944  -7.947 -21.885  0.00  0.00    -0.084 HD
ATOM     27  H   UNL     1      33.004  -9.142 -22.585  0.00  0.00    -0.084 HD
BRANCH  25  28
ATOM     28  C   UNL     1      32.393  -7.244 -23.016  0.00  0.00    -0.046 C 
ATOM     29  C   UNL     1      31.965  -6.029 -22.185  0.00  0.00    -0.022 C 
ATOM     30  C   UNL     1      33.442  -6.829 -24.053  0.00  0.00    -0.022 C 
ATOM     31  C   UNL     1      31.176  -7.861 -23.714  0.00  0.00    -0.022 C 
ENDBRANCH  25  28
ENDBRANCH  24  25
ENDBRANCH  21  24
ENDBRANCH  20  21
ENDBRANCH  19  20
ENDBRANCH   1  19
TORSDOF 11
ENDMDL
MODEL 4
REMARK VINA RESULT:      -8.8      5.518      9.392
REMARK  Name = 2663
REMARK  11 active torsions:
REMARK  status: ('A' for Active; 'I' for Inactive)
REMARK    1  A    between atoms: C_1  and  O_19
REMARK    2  A    between atoms: C_2  and  C_17
REMARK    3  A    between atoms: C_3  and  N_9
REMARK    4  A    between atoms: N_8  and  C_12
REMARK    5  A    between atoms: N_8  and  C_14
REMARK    6  A    between atoms: O_19  and  C_20
REMARK    7  A    between atoms: C_20  and  C_21
REMARK    8  A    between atoms: C_21  and  O_22
REMARK    9  A    between atoms: C_21  and  C_24
REMARK   10  A    between atoms: C_24  and  N_25
REMARK   11  A    between atoms: N_25  and  C_28
REMARK                            x       y       z     vdW  Elec       q    Type
REMARK                         _______ _______ _______ _____ _____    ______ ____
ROOT
ATOM      1  C   UNL     1      33.725 -14.657 -23.875  0.00  0.00    +0.141 C 
ATOM      2  C   UNL     1      33.729 -13.957 -22.672  0.00  0.00    +0.070 C 
ATOM      3  C   UNL     1      33.542 -11.880 -23.893  0.00  0.00    +0.052 C 
ATOM      4  C   UNL     1      33.631 -13.978 -25.086  0.00  0.00    +0.038 C 
ATOM      5  C   UNL     1      33.638 -12.565 -22.682  0.00  0.00    +0.021 C 
ATOM      6  C   UNL     1      33.539 -12.587 -25.096  0.00  0.00    +0.018 C 
ENDROOT
BRANCH   3   9
ATOM      7  O   UNL     1      31.487 -10.000 -22.747  0.00  0.00    -0.252 OA
ATOM      8  N   UNL     1      33.140  -8.382 -22.843  0.00  0.00    -0.264 N 
ATOM      9  N   UNL     1      33.451 -10.488 -23.902  0.00  0.00    -0.268 N 
ATOM     10  C   UNL     1      32.608  -9.661 -23.131  0.00  0.00    +0.308 C 
ATOM     11  H   UNL     1      34.053 -10.023 -24.528  0.00  0.00    +0.156 HD
BRANCH   8  12
ATOM     12  C   UNL     1      34.468  -7.974 -23.295  0.00  0.00    +0.095 C 
ATOM     13  C   UNL     1      34.385  -6.950 -24.408  0.00  0.00    +0.023 C 
ENDBRANCH   8  12
BRANCH   8  14
ATOM     14  C   UNL     1      32.399  -7.389 -22.076  0.00  0.00    +0.095 C 
ATOM     15  C   UNL     1      32.700  -7.494 -20.596  0.00  0.00    +0.023 C 
ENDBRANCH   8  14
ENDBRANCH   3   9
BRANCH   2  17
ATOM     16  O   UNL     1      34.898 -14.680 -20.756  0.00  0.00    -0.291 OA
ATOM     17  C   UNL     1      33.830 -14.652 -21.398  0.00  0.00    +0.176 C 
ATOM     18  C   UNL     1      32.616 -15.368 -20.816  0.00  0.00    +0.077 C 
ENDBRANCH   2  17
BRANCH   1  19
ATOM     19  O   UNL     1      33.816 -16.023 -23.888  0.00  0.00    -0.473 OA
BRANCH  19  20
ATOM     20  C   UNL     1      34.202 -16.628 -25.118  0.00  0.00    +0.232 C 
BRANCH  20  21
ATOM     21  C   UNL     1      34.786 -18.009 -24.827  0.00  0.00    +0.133 C 
BRANCH  21  22
ATOM     22  O   UNL     1      33.776 -18.992 -25.074  0.00  0.00    -0.383 OA
ATOM     23  H   UNL     1      33.813 -19.672 -24.383  0.00  0.00    +0.210 HD
ENDBRANCH  21  22
BRANCH  21  24
ATOM     24  C   UNL     1      35.270 -18.171 -23.385  0.00  0.00    -0.048 C 
BRANCH  24  25
ATOM     25  N   UNL     1      34.873 -19.448 -22.815  0.00  0.00    +0.388 N 
ATOM     26  H   UNL     1      33.957 -19.708 -23.181  0.00  0.00    -0.084 HD
ATOM     27  H   UNL     1      35.567 -20.151 -23.069  0.00  0.00    -0.084 HD
BRANCH  25  28
ATOM     28  C   UNL     1      34.800 -19.360 -21.353  0.00  0.00    -0.046 C 
ATOM     29  C   UNL     1      35.342 -17.993 -20.919  0.00  0.00    -0.022 C 
ATOM     30  C   UNL     1      33.335 -19.503 -20.928  0.00  0.00    -0.022 C 
ATOM     31  C   UNL     1      35.641 -20.482 -20.732  0.00  0.00    -0.022 C 
ENDBRANCH  25  28
ENDBRANCH  24  25
ENDBRANCH  21  24
ENDBRANCH  20  21
ENDBRANCH  19  20
ENDBRANCH   1  19
TORSDOF 11
ENDMDL
MODEL 5
REMARK VINA RESULT:      -8.7      3.169      4.780
REMARK  Name = 2663
REMARK  11 active torsions:
REMARK  status: ('A' for Active; 'I' for Inactive)
REMARK    1  A    between atoms: C_1  and  O_19
REMARK    2  A    between atoms: C_2  and  C_17
REMARK    3  A    between atoms: C_3  and  N_9
REMARK    4  A    between atoms: N_8  and  C_12
REMARK    5  A    between atoms: N_8  and  C_14
REMARK    6  A    between atoms: O_19  and  C_20
REMARK    7  A    between atoms: C_20  and  C_21
REMARK    8  A    between atoms: C_21  and  O_22
REMARK    9  A    between atoms: C_21  and  C_24
REMARK   10  A    between atoms: C_24  and  N_25
REMARK   11  A    between atoms: N_25  and  C_28
REMARK                            x       y       z     vdW  Elec       q    Type
REMARK                         _______ _______ _______ _____ _____    ______ ____
ROOT
ATOM      1  C   UNL     1      34.069 -21.338 -19.721  0.00  0.00    +0.141 C 
ATOM      2  C   UNL     1      35.340 -20.807 -19.917  0.00  0.00    +0.070 C 
ATOM      3  C   UNL     1      34.373 -18.979 -21.167  0.00  0.00    +0.052 C 
ATOM      4  C   UNL     1      32.949 -20.698 -20.243  0.00  0.00    +0.038 C 
ATOM      5  C   UNL     1      35.492 -19.625 -20.642  0.00  0.00    +0.021 C 
ATOM      6  C   UNL     1      33.100 -19.516 -20.968  0.00  0.00    +0.018 C 
ENDROOT
BRANCH   3   9
ATOM      7  O   UNL     1      35.431 -18.453 -23.938  0.00  0.00    -0.252 OA
ATOM      8  N   UNL     1      34.253 -16.463 -23.841  0.00  0.00    -0.264 N 
ATOM      9  N   UNL     1      34.525 -17.797 -21.893  0.00  0.00    -0.268 N 
ATOM     10  C   UNL     1      34.782 -17.644 -23.270  0.00  0.00    +0.308 C 
ATOM     11  H   UNL     1      34.443 -16.964 -21.376  0.00  0.00    +0.156 HD
BRANCH   8  12
ATOM     12  C   UNL     1      33.482 -15.500 -23.056  0.00  0.00    +0.095 C 
ATOM     13  C   UNL     1      34.366 -14.401 -22.504  0.00  0.00    +0.023 C 
ENDBRANCH   8  12
BRANCH   8  14
ATOM     14  C   UNL     1      34.438 -16.129 -25.247  0.00  0.00    +0.095 C 
ATOM     15  C   UNL     1      33.291 -15.295 -25.776  0.00  0.00    +0.023 C 
ENDBRANCH   8  14
ENDBRANCH   3   9
BRANCH   2  17
ATOM     16  O   UNL     1      37.378 -21.976 -20.127  0.00  0.00    -0.291 OA
ATOM     17  C   UNL     1      36.522 -21.466 -19.379  0.00  0.00    +0.176 C 
ATOM     18  C   UNL     1      36.737 -21.545 -17.872  0.00  0.00    +0.077 C 
ENDBRANCH   2  17
BRANCH   1  19
ATOM     19  O   UNL     1      33.898 -22.498 -19.014  0.00  0.00    -0.473 OA
BRANCH  19  20
ATOM     20  C   UNL     1      32.879 -22.498 -18.020  0.00  0.00    +0.232 C 
BRANCH  20  21
ATOM     21  C   UNL     1      33.480 -22.967 -16.696  0.00  0.00    +0.133 C 
BRANCH  21  22
ATOM     22  O   UNL     1      34.428 -24.003 -16.968  0.00  0.00    -0.383 OA
ATOM     23  H   UNL     1      34.672 -23.979 -17.907  0.00  0.00    +0.210 HD
ENDBRANCH  21  22
BRANCH  21  24
ATOM     24  C   UNL     1      32.439 -23.517 -15.718  0.00  0.00    -0.048 C 
BRANCH  24  25
ATOM     25  N   UNL     1      31.096 -23.484 -16.274  0.00  0.00    +0.388 N 
ATOM     26  H   UNL     1      30.959 -22.602 -16.767  0.00  0.00    -0.084 HD
ATOM     27  H   UNL     1      30.987 -24.268 -16.916  0.00  0.00    -0.084 HD
BRANCH  25  28
ATOM     28  C   UNL     1      30.095 -23.601 -15.208  0.00  0.00    -0.046 C 
ATOM     29  C   UNL     1      30.786 -23.364 -13.861  0.00  0.00    -0.022 C 
ATOM     30  C   UNL     1      29.013 -22.540 -15.438  0.00  0.00    -0.022 C 
ATOM     31  C   UNL     1      29.475 -25.003 -15.243  0.00  0.00    -0.022 C 
ENDBRANCH  25  28
ENDBRANCH  24  25
ENDBRANCH  21  24
ENDBRANCH  20  21
ENDBRANCH  19  20
ENDBRANCH   1  19
TORSDOF 11
ENDMDL
MODEL 6
REMARK VINA RESULT:      -8.6      4.214     12.040
REMARK  Name = 2663
REMARK  11 active torsions:
REMARK  status: ('A' for Active; 'I' for Inactive)
REMARK    1  A    between atoms: C_1  and  O_19
REMARK    2  A    between atoms: C_2  and  C_17
REMARK    3  A    between atoms: C_3  and  N_9
REMARK    4  A    between atoms: N_8  and  C_12
REMARK    5  A    between atoms: N_8  and  C_14
REMARK    6  A    between atoms: O_19  and  C_20
REMARK    7  A    between atoms: C_20  and  C_21
REMARK    8  A    between atoms: C_21  and  O_22
REMARK    9  A    between atoms: C_21  and  C_24
REMARK   10  A    between atoms: C_24  and  N_25
REMARK   11  A    between atoms: N_25  and  C_28
REMARK                            x       y       z     vdW  Elec       q    Type
REMARK                         _______ _______ _______ _____ _____    ______ ____
ROOT
ATOM      1  C   UNL     1      34.276 -14.671 -23.208  0.00  0.00    +0.141 C 
ATOM      2  C   UNL     1      34.340 -15.928 -23.803  0.00  0.00    +0.070 C 
ATOM      3  C   UNL     1      34.678 -16.929 -21.630  0.00  0.00    +0.052 C 
ATOM      4  C   UNL     1      34.412 -14.536 -21.830  0.00  0.00    +0.038 C 
ATOM      5  C   UNL     1      34.541 -17.058 -23.012  0.00  0.00    +0.021 C 
ATOM      6  C   UNL     1      34.613 -15.666 -21.038  0.00  0.00    +0.018 C 
ENDROOT
BRANCH   3   9
ATOM      7  O   UNL     1      32.847 -19.200 -20.879  0.00  0.00    -0.252 OA
ATOM      8  N   UNL     1      34.775 -20.399 -20.429  0.00  0.00    -0.264 N 
ATOM      9  N   UNL     1      34.880 -18.060 -20.839  0.00  0.00    -0.268 N 
ATOM     10  C   UNL     1      34.072 -19.211 -20.736  0.00  0.00    +0.308 C 
ATOM     11  H   UNL     1      35.690 -18.053 -20.280  0.00  0.00    +0.156 HD
BRANCH   8  12
ATOM     12  C   UNL     1      36.227 -20.420 -20.258  0.00  0.00    +0.095 C 
ATOM     13  C   UNL     1      36.639 -21.342 -19.129  0.00  0.00    +0.023 C 
ENDBRANCH   8  12
BRANCH   8  14
ATOM     14  C   UNL     1      34.100 -21.680 -20.264  0.00  0.00    +0.095 C 
ATOM     15  C   UNL     1      33.324 -21.736 -18.965  0.00  0.00    +0.023 C 
ENDBRANCH   8  14
ENDBRANCH   3   9
BRANCH   2  17
ATOM     16  O   UNL     1      34.973 -16.818 -25.893  0.00  0.00    -0.291 OA
ATOM     17  C   UNL     1      34.202 -16.085 -25.244  0.00  0.00    +0.176 C 
ATOM     18  C   UNL     1      33.098 -15.350 -25.993  0.00  0.00    +0.077 C 
ENDBRANCH   2  17
BRANCH   1  19
ATOM     19  O   UNL     1      34.081 -13.548 -23.967  0.00  0.00    -0.473 OA
BRANCH  19  20
ATOM     20  C   UNL     1      33.206 -12.559 -23.434  0.00  0.00    +0.232 C 
BRANCH  20  21
ATOM     21  C   UNL     1      33.467 -11.234 -24.148  0.00  0.00    +0.133 C 
BRANCH  21  22
ATOM     22  O   UNL     1      34.770 -11.282 -24.736  0.00  0.00    -0.383 OA
ATOM     23  H   UNL     1      35.180 -10.404 -24.683  0.00  0.00    +0.210 HD
ENDBRANCH  21  22
BRANCH  21  24
ATOM     24  C   UNL     1      33.407 -10.022 -23.216  0.00  0.00    -0.048 C 
BRANCH  24  25
ATOM     25  N   UNL     1      32.661  -8.920 -23.800  0.00  0.00    +0.388 N 
ATOM     26  H   UNL     1      32.716  -8.980 -24.817  0.00  0.00    -0.084 HD
ATOM     27  H   UNL     1      31.689  -8.981 -23.496  0.00  0.00    -0.084 HD
BRANCH  25  28
ATOM     28  C   UNL     1      33.214  -7.634 -23.363  0.00  0.00    -0.046 C 
ATOM     29  C   UNL     1      32.811  -7.400 -21.902  0.00  0.00    -0.022 C 
ATOM     30  C   UNL     1      34.741  -7.693 -23.484  0.00  0.00    -0.022 C 
ATOM     31  C   UNL     1      32.659  -6.513 -24.249  0.00  0.00    -0.022 C 
ENDBRANCH  25  28
ENDBRANCH  24  25
ENDBRANCH  21  24
ENDBRANCH  20  21
ENDBRANCH  19  20
ENDBRANCH   1  19
TORSDOF 11
ENDMDL
MODEL 7
REMARK VINA RESULT:      -8.6      2.370      9.516
REMARK  Name = 2663
REMARK  11 active torsions:
REMARK  status: ('A' for Active; 'I' for Inactive)
REMARK    1  A    between atoms: C_1  and  O_19
REMARK    2  A    between atoms: C_2  and  C_17
REMARK    3  A    between atoms: C_3  and  N_9
REMARK    4  A    between atoms: N_8  and  C_12
REMARK    5  A    between atoms: N_8  and  C_14
REMARK    6  A    between atoms: O_19  and  C_20
REMARK    7  A    between atoms: C_20  and  C_21
REMARK    8  A    between atoms: C_21  and  O_22
REMARK    9  A    between atoms: C_21  and  C_24
REMARK   10  A    between atoms: C_24  and  N_25
REMARK   11  A    between atoms: N_25  and  C_28
REMARK                            x       y       z     vdW  Elec       q    Type
REMARK                         _______ _______ _______ _____ _____    ______ ____
ROOT
ATOM      1  C   UNL     1      33.107 -22.772 -17.439  0.00  0.00    +0.141 C 
ATOM      2  C   UNL     1      32.300 -23.232 -16.403  0.00  0.00    +0.070 C 
ATOM      3  C   UNL     1      34.275 -23.827 -15.143  0.00  0.00    +0.052 C 
ATOM      4  C   UNL     1      34.493 -22.836 -17.336  0.00  0.00    +0.038 C 
ATOM      5  C   UNL     1      32.886 -23.761 -15.253  0.00  0.00    +0.021 C 
ATOM      6  C   UNL     1      35.079 -23.365 -16.186  0.00  0.00    +0.018 C 
ENDROOT
BRANCH   3   9
ATOM      7  O   UNL     1      36.299 -26.023 -14.757  0.00  0.00    -0.252 OA
ATOM      8  N   UNL     1      36.731 -25.050 -12.701  0.00  0.00    -0.264 N 
ATOM      9  N   UNL     1      34.860 -24.357 -13.993  0.00  0.00    -0.268 N 
ATOM     10  C   UNL     1      35.985 -25.200 -13.894  0.00  0.00    +0.308 C 
ATOM     11  H   UNL     1      34.432 -24.110 -13.142  0.00  0.00    +0.156 HD
BRANCH   8  12
ATOM     12  C   UNL     1      36.365 -24.077 -11.674  0.00  0.00    +0.095 C 
ATOM     13  C   UNL     1      37.260 -22.856 -11.724  0.00  0.00    +0.023 C 
ENDBRANCH   8  12
BRANCH   8  14
ATOM     14  C   UNL     1      37.913 -25.855 -12.419  0.00  0.00    +0.095 C 
ATOM     15  C   UNL     1      39.078 -25.458 -13.301  0.00  0.00    +0.023 C 
ENDBRANCH   8  14
ENDBRANCH   3   9
BRANCH   2  17
ATOM     16  O   UNL     1      30.274 -22.234 -17.081  0.00  0.00    -0.291 OA
ATOM     17  C   UNL     1      30.848 -23.173 -16.497  0.00  0.00    +0.176 C 
ATOM     18  C   UNL     1      29.994 -24.272 -15.876  0.00  0.00    +0.077 C 
ENDBRANCH   2  17
BRANCH   1  19
ATOM     19  O   UNL     1      32.552 -22.251 -18.577  0.00  0.00    -0.473 OA
BRANCH  19  20
ATOM     20  C   UNL     1      33.438 -21.994 -19.662  0.00  0.00    +0.232 C 
BRANCH  20  21
ATOM     21  C   UNL     1      33.351 -20.514 -20.030  0.00  0.00    +0.133 C 
BRANCH  21  22
ATOM     22  O   UNL     1      32.249 -20.330 -20.923  0.00  0.00    -0.383 OA
ATOM     23  H   UNL     1      31.511 -19.922 -20.444  0.00  0.00    +0.210 HD
ENDBRANCH  21  22
BRANCH  21  24
ATOM     24  C   UNL     1      34.614 -19.985 -20.714  0.00  0.00    -0.048 C 
BRANCH  24  25
ATOM     25  N   UNL     1      34.338 -19.457 -22.039  0.00  0.00    +0.388 N 
ATOM     26  H   UNL     1      34.553 -20.171 -22.736  0.00  0.00    -0.084 HD
ATOM     27  H   UNL     1      33.353 -19.197 -22.092  0.00  0.00    -0.084 HD
BRANCH  25  28
ATOM     28  C   UNL     1      35.157 -18.268 -22.301  0.00  0.00    -0.046 C 
ATOM     29  C   UNL     1      34.585 -17.096 -21.496  0.00  0.00    -0.022 C 
ATOM     30  C   UNL     1      36.595 -18.559 -21.859  0.00  0.00    -0.022 C 
ATOM     31  C   UNL     1      35.121 -17.946 -23.799  0.00  0.00    -0.022 C 
ENDBRANCH  25  28
ENDBRANCH  24  25
ENDBRANCH  21  24
ENDBRANCH  20  21
ENDBRANCH  19  20
ENDBRANCH   1  19
TORSDOF 11
ENDMDL
MODEL 8
REMARK VINA RESULT:      -8.5      6.927     13.805
REMARK  Name = 2663
REMARK  11 active torsions:
REMARK  status: ('A' for Active; 'I' for Inactive)
REMARK    1  A    between atoms: C_1  and  O_19
REMARK    2  A    between atoms: C_2  and  C_17
REMARK    3  A    between atoms: C_3  and  N_9
REMARK    4  A    between atoms: N_8  and  C_12
REMARK    5  A    between atoms: N_8  and  C_14
REMARK    6  A    between atoms: O_19  and  C_20
REMARK    7  A    between atoms: C_20  and  C_21
REMARK    8  A    between atoms: C_21  and  O_22
REMARK    9  A    between atoms: C_21  and  C_24
REMARK   10  A    between atoms: C_24  and  N_25
REMARK   11  A    between atoms: N_25  and  C_28
REMARK                            x       y       z     vdW  Elec       q    Type
REMARK                         _______ _______ _______ _____ _____    ______ ____
ROOT
ATOM      1  C   UNL     1      32.278 -10.994 -22.243  0.00  0.00    +0.141 C 
ATOM      2  C   UNL     1      33.146 -11.463 -23.224  0.00  0.00    +0.070 C 
ATOM      3  C   UNL     1      32.847 -13.714 -22.400  0.00  0.00    +0.052 C 
ATOM      4  C   UNL     1      31.693 -11.876 -21.339  0.00  0.00    +0.038 C 
ATOM      5  C   UNL     1      33.430 -12.826 -23.302  0.00  0.00    +0.021 C 
ATOM      6  C   UNL     1      31.977 -13.239 -21.417  0.00  0.00    +0.018 C 
ENDROOT
BRANCH   3   9
ATOM      7  O   UNL     1      33.870 -15.420 -24.662  0.00  0.00    -0.252 OA
ATOM      8  N   UNL     1      34.536 -16.915 -23.026  0.00  0.00    -0.264 N 
ATOM      9  N   UNL     1      33.132 -15.078 -22.478  0.00  0.00    -0.268 N 
ATOM     10  C   UNL     1      33.848 -15.765 -23.479  0.00  0.00    +0.308 C 
ATOM     11  H   UNL     1      32.788 -15.631 -21.740  0.00  0.00    +0.156 HD
BRANCH   8  12
ATOM     12  C   UNL     1      34.516 -17.331 -21.626  0.00  0.00    +0.095 C 
ATOM     13  C   UNL     1      35.691 -18.229 -21.296  0.00  0.00    +0.023 C 
ENDBRANCH   8  12
BRANCH   8  14
ATOM     14  C   UNL     1      35.312 -17.760 -23.926  0.00  0.00    +0.095 C 
ATOM     15  C   UNL     1      34.433 -18.768 -24.637  0.00  0.00    +0.023 C 
ENDBRANCH   8  14
ENDBRANCH   3   9
BRANCH   2  17
ATOM     16  O   UNL     1      33.783  -9.321 -23.980  0.00  0.00    -0.291 OA
ATOM     17  C   UNL     1      33.768 -10.552 -24.175  0.00  0.00    +0.176 C 
ATOM     18  C   UNL     1      34.420 -11.094 -25.441  0.00  0.00    +0.077 C 
ENDBRANCH   2  17
BRANCH   1  19
ATOM     19  O   UNL     1      31.987  -9.660 -22.147  0.00  0.00    -0.473 OA
BRANCH  19  20
ATOM     20  C   UNL     1      32.028  -9.086 -20.844  0.00  0.00    +0.232 C 
BRANCH  20  21
ATOM     21  C   UNL     1      32.950  -7.868 -20.870  0.00  0.00    +0.133 C 
BRANCH  21  22
ATOM     22  O   UNL     1      33.125  -7.401 -19.530  0.00  0.00    -0.383 OA
ATOM     23  H   UNL     1      32.543  -7.900 -18.936  0.00  0.00    +0.210 HD
ENDBRANCH  21  22
BRANCH  21  24
ATOM     24  C   UNL     1      32.403  -6.713 -21.712  0.00  0.00    -0.048 C 
BRANCH  24  25
ATOM     25  N   UNL     1      32.919  -6.735 -23.070  0.00  0.00    +0.388 N 
ATOM     26  H   UNL     1      33.804  -6.227 -23.101  0.00  0.00    -0.084 HD
ATOM     27  H   UNL     1      33.059  -7.704 -23.355  0.00  0.00    -0.084 HD
BRANCH  25  28
ATOM     28  C   UNL     1      31.969  -6.103 -23.993  0.00  0.00    -0.046 C 
ATOM     29  C   UNL     1      32.741  -5.595 -25.216  0.00  0.00    -0.022 C 
ATOM     30  C   UNL     1      30.935  -7.149 -24.420  0.00  0.00    -0.022 C 
ATOM     31  C   UNL     1      31.274  -4.933 -23.285  0.00  0.00    -0.022 C 
ENDBRANCH  25  28
ENDBRANCH  24  25
ENDBRANCH  21  24
ENDBRANCH  20  21
ENDBRANCH  19  20
ENDBRANCH   1  19
TORSDOF 11
ENDMDL
MODEL 9
REMARK VINA RESULT:      -8.4      3.762     11.581
REMARK  Name = 2663
REMARK  11 active torsions:
REMARK  status: ('A' for Active; 'I' for Inactive)
REMARK    1  A    between atoms: C_1  and  O_19
REMARK    2  A    between atoms: C_2  and  C_17
REMARK    3  A    between atoms: C_3  and  N_9
REMARK    4  A    between atoms: N_8  and  C_12
REMARK    5  A    between atoms: N_8  and  C_14
REMARK    6  A    between atoms: O_19  and  C_20
REMARK    7  A    between atoms: C_20  and  C_21
REMARK    8  A    between atoms: C_21  and  O_22
REMARK    9  A    between atoms: C_21  and  C_24
REMARK   10  A    between atoms: C_24  and  N_25
REMARK   11  A    between atoms: N_25  and  C_28
REMARK                            x       y       z     vdW  Elec       q    Type
REMARK                         _______ _______ _______ _____ _____    ______ ____
ROOT
ATOM      1  C   UNL     1      34.561 -15.437 -22.786  0.00  0.00    +0.141 C 
ATOM      2  C   UNL     1      34.534 -16.516 -23.664  0.00  0.00    +0.070 C 
ATOM      3  C   UNL     1      34.781 -18.029 -21.796  0.00  0.00    +0.052 C 
ATOM      4  C   UNL     1      34.698 -15.644 -21.417  0.00  0.00    +0.038 C 
ATOM      5  C   UNL     1      34.644 -17.815 -23.167  0.00  0.00    +0.021 C 
ATOM      6  C   UNL     1      34.808 -16.942 -20.920  0.00  0.00    +0.018 C 
ENDROOT
BRANCH   3   9
ATOM      7  O   UNL     1      37.162 -19.620 -20.864  0.00  0.00    -0.252 OA
ATOM      8  N   UNL     1      35.641 -20.925 -19.706  0.00  0.00    -0.264 N 
ATOM      9  N   UNL     1      34.891 -19.327 -21.299  0.00  0.00    -0.268 N 
ATOM     10  C   UNL     1      35.988 -19.922 -20.642  0.00  0.00    +0.308 C 
ATOM     11  H   UNL     1      34.103 -19.903 -21.424  0.00  0.00    +0.156 HD
BRANCH   8  12
ATOM     12  C   UNL     1      34.252 -21.288 -19.437  0.00  0.00    +0.095 C 
ATOM     13  C   UNL     1      34.062 -22.791 -19.430  0.00  0.00    +0.023 C 
ENDBRANCH   8  12
BRANCH   8  14
ATOM     14  C   UNL     1      36.646 -21.661 -18.949  0.00  0.00    +0.095 C 
ATOM     15  C   UNL     1      36.624 -21.283 -17.483  0.00  0.00    +0.023 C 
ENDBRANCH   8  14
ENDBRANCH   3   9
BRANCH   2  17
ATOM     16  O   UNL     1      35.177 -16.848 -25.908  0.00  0.00    -0.291 OA
ATOM     17  C   UNL     1      34.394 -16.315 -25.099  0.00  0.00    +0.176 C 
ATOM     18  C   UNL     1      33.272 -15.440 -25.645  0.00  0.00    +0.077 C 
ENDBRANCH   2  17
BRANCH   1  19
ATOM     19  O   UNL     1      34.457 -14.154 -23.253  0.00  0.00    -0.473 OA
BRANCH  19  20
ATOM     20  C   UNL     1      33.414 -13.354 -22.704  0.00  0.00    +0.232 C 
BRANCH  20  21
ATOM     21  C   UNL     1      33.147 -12.179 -23.642  0.00  0.00    +0.133 C 
BRANCH  21  22
ATOM     22  O   UNL     1      34.373 -11.822 -24.286  0.00  0.00    -0.383 OA
ATOM     23  H   UNL     1      34.861 -11.198 -23.727  0.00  0.00    +0.210 HD
ENDBRANCH  21  22
BRANCH  21  24
ATOM     24  C   UNL     1      32.606 -10.941 -22.923  0.00  0.00    -0.048 C 
BRANCH  24  25
ATOM     25  N   UNL     1      33.365  -9.745 -23.249  0.00  0.00    +0.388 N 
ATOM     26  H   UNL     1      34.284  -9.802 -22.810  0.00  0.00    -0.084 HD
ATOM     27  H   UNL     1      33.460  -9.681 -24.262  0.00  0.00    -0.084 HD
BRANCH  25  28
ATOM     28  C   UNL     1      32.673  -8.547 -22.760  0.00  0.00    -0.046 C 
ATOM     29  C   UNL     1      33.548  -7.324 -23.056  0.00  0.00    -0.022 C 
ATOM     30  C   UNL     1      31.333  -8.425 -23.494  0.00  0.00    -0.022 C 
ATOM     31  C   UNL     1      32.437  -8.675 -21.251  0.00  0.00    -0.022 C 
ENDBRANCH  25  28
ENDBRANCH  24  25
ENDBRANCH  21  24
ENDBRANCH  20  21
ENDBRANCH  19  20
ENDBRANCH   1  19
TORSDOF 11
ENDMDL
