MODEL 1
REMARK VINA RESULT:      -7.5      0.000      0.000
REMARK  Name = 9287
REMARK  3 active torsions:
REMARK  status: ('A' for Active; 'I' for Inactive)
REMARK    1  A    between atoms: C_2  and  C_11
REMARK    2  A    between atoms: C_11  and  C_12
REMARK    3  A    between atoms: C_12  and  N_14
REMARK                            x       y       z     vdW  Elec       q    Type
REMARK                         _______ _______ _______ _____ _____    ______ ____
ROOT
ATOM      1  N   UNL     1      36.758 -20.110 -20.175  0.00  0.00    -0.312 N 
ATOM      2  C   UNL     1      35.394 -18.841 -21.382  0.00  0.00    -0.008 C 
ATOM      3  C   UNL     1      34.612 -19.828 -20.719  0.00  0.00    +0.011 C 
ATOM      4  C   UNL     1      35.492 -20.612 -19.969  0.00  0.00    +0.048 C 
ATOM      5  C   UNL     1      36.708 -19.040 -21.027  0.00  0.00    +0.057 C 
ATOM      6  C   UNL     1      33.237 -20.131 -20.684  0.00  0.00    +0.001 C 
ATOM      7  C   UNL     1      35.064 -21.688 -19.183  0.00  0.00    +0.015 C 
ATOM      8  C   UNL     1      32.793 -21.204 -19.903  0.00  0.00    +0.000 C 
ATOM      9  C   UNL     1      33.695 -21.969 -19.165  0.00  0.00    +0.001 C 
ATOM     10  H   UNL     1      37.579 -20.470 -19.769  0.00  0.00    +0.152 HD
ENDROOT
BRANCH   2  11
ATOM     11  C   UNL     1      34.895 -17.787 -22.288  0.00  0.00    +0.006 C 
BRANCH  11  12
ATOM     12  C   UNL     1      35.329 -17.949 -23.768  0.00  0.00    -0.061 C 
ATOM     13  C   UNL     1      34.484 -18.984 -24.511  0.00  0.00    -0.024 C 
BRANCH  12  14
ATOM     14  N   UNL     1      35.220 -16.671 -24.477  0.00  0.00    +0.382 N 
ATOM     15  H   UNL     1      35.218 -15.906 -23.802  0.00  0.00    -0.089 HD
ATOM     16  H   UNL     1      34.352 -16.653 -25.013  0.00  0.00    -0.089 HD
ATOM     17  H   UNL     1      36.012 -16.564 -25.110  0.00  0.00    -0.089 HD
ENDBRANCH  12  14
ENDBRANCH  11  12
ENDBRANCH   2  11
TORSDOF 3
ENDMDL
MODEL 2
REMARK VINA RESULT:      -7.3      1.674      2.620
REMARK  Name = 9287
REMARK  3 active torsions:
REMARK  status: ('A' for Active; 'I' for Inactive)
REMARK    1  A    between atoms: C_2  and  C_11
REMARK    2  A    between atoms: C_11  and  C_12
REMARK    3  A    between atoms: C_12  and  N_14
REMARK                            x       y       z     vdW  Elec       q    Type
REMARK                         _______ _______ _______ _____ _____    ______ ____
ROOT
ATOM      1  N   UNL     1      32.650 -20.623 -20.452  0.00  0.00    -0.312 N 
ATOM      2  C   UNL     1      34.448 -19.605 -21.264  0.00  0.00    -0.008 C 
ATOM      3  C   UNL     1      34.869 -20.506 -20.247  0.00  0.00    +0.011 C 
ATOM      4  C   UNL     1      33.722 -21.132 -19.753  0.00  0.00    +0.048 C 
ATOM      5  C   UNL     1      33.079 -19.699 -21.367  0.00  0.00    +0.057 C 
ATOM      6  C   UNL     1      36.119 -20.851 -19.696  0.00  0.00    +0.001 C 
ATOM      7  C   UNL     1      33.763 -22.088 -18.732  0.00  0.00    +0.015 C 
ATOM      8  C   UNL     1      36.176 -21.806 -18.675  0.00  0.00    +0.000 C 
ATOM      9  C   UNL     1      35.014 -22.414 -18.202  0.00  0.00    +0.001 C 
ATOM     10  H   UNL     1      31.712 -20.884 -20.313  0.00  0.00    +0.152 HD
ENDROOT
BRANCH   2  11
ATOM     11  C   UNL     1      35.315 -18.723 -22.072  0.00  0.00    +0.006 C 
BRANCH  11  12
ATOM     12  C   UNL     1      34.771 -17.284 -22.266  0.00  0.00    -0.061 C 
ATOM     13  C   UNL     1      34.835 -16.460 -20.980  0.00  0.00    -0.024 C 
BRANCH  12  14
ATOM     14  N   UNL     1      35.535 -16.582 -23.301  0.00  0.00    +0.382 N 
ATOM     15  H   UNL     1      35.999 -17.263 -23.903  0.00  0.00    -0.089 HD
ATOM     16  H   UNL     1      36.236 -15.986 -22.860  0.00  0.00    -0.089 HD
ATOM     17  H   UNL     1      34.904 -16.009 -23.860  0.00  0.00    -0.089 HD
ENDBRANCH  12  14
ENDBRANCH  11  12
ENDBRANCH   2  11
TORSDOF 3
ENDMDL
MODEL 3
REMARK VINA RESULT:      -7.3      1.467      1.713
REMARK  Name = 9287
REMARK  3 active torsions:
REMARK  status: ('A' for Active; 'I' for Inactive)
REMARK    1  A    between atoms: C_2  and  C_11
REMARK    2  A    between atoms: C_11  and  C_12
REMARK    3  A    between atoms: C_12  and  N_14
REMARK                            x       y       z     vdW  Elec       q    Type
REMARK                         _______ _______ _______ _____ _____    ______ ____
ROOT
ATOM      1  N   UNL     1      36.754 -19.953 -20.341  0.00  0.00    -0.312 N 
ATOM      2  C   UNL     1      35.126 -18.793 -21.307  0.00  0.00    -0.008 C 
ATOM      3  C   UNL     1      34.538 -19.877 -20.596  0.00  0.00    +0.011 C 
ATOM      4  C   UNL     1      35.582 -20.589 -20.000  0.00  0.00    +0.048 C 
ATOM      5  C   UNL     1      36.488 -18.866 -21.131  0.00  0.00    +0.057 C 
ATOM      6  C   UNL     1      33.216 -20.322 -20.401  0.00  0.00    +0.001 C 
ATOM      7  C   UNL     1      35.367 -21.729 -19.216  0.00  0.00    +0.015 C 
ATOM      8  C   UNL     1      32.986 -21.460 -19.620  0.00  0.00    +0.000 C 
ATOM      9  C   UNL     1      34.047 -22.151 -19.038  0.00  0.00    +0.001 C 
ATOM     10  H   UNL     1      37.653 -20.238 -20.060  0.00  0.00    +0.152 HD
ENDROOT
BRANCH   2  11
ATOM     11  C   UNL     1      34.411 -17.767 -22.093  0.00  0.00    +0.006 C 
BRANCH  11  12
ATOM     12  C   UNL     1      34.977 -16.331 -21.946  0.00  0.00    -0.061 C 
ATOM     13  C   UNL     1      34.461 -15.388 -23.034  0.00  0.00    -0.024 C 
BRANCH  12  14
ATOM     14  N   UNL     1      34.618 -15.769 -20.641  0.00  0.00    +0.382 N 
ATOM     15  H   UNL     1      34.597 -16.512 -19.944  0.00  0.00    -0.089 HD
ATOM     16  H   UNL     1      33.697 -15.334 -20.701  0.00  0.00    -0.089 HD
ATOM     17  H   UNL     1      35.307 -15.068 -20.371  0.00  0.00    -0.089 HD
ENDBRANCH  12  14
ENDBRANCH  11  12
ENDBRANCH   2  11
TORSDOF 3
ENDMDL
MODEL 4
REMARK VINA RESULT:      -7.1      2.082      5.136
REMARK  Name = 9287
REMARK  3 active torsions:
REMARK  status: ('A' for Active; 'I' for Inactive)
REMARK    1  A    between atoms: C_2  and  C_11
REMARK    2  A    between atoms: C_11  and  C_12
REMARK    3  A    between atoms: C_12  and  N_14
REMARK                            x       y       z     vdW  Elec       q    Type
REMARK                         _______ _______ _______ _____ _____    ______ ____
ROOT
ATOM      1  N   UNL     1      35.308 -17.308 -24.041  0.00  0.00    -0.312 N 
ATOM      2  C   UNL     1      35.569 -18.191 -22.022  0.00  0.00    -0.008 C 
ATOM      3  C   UNL     1      35.073 -16.867 -21.866  0.00  0.00    +0.011 C 
ATOM      4  C   UNL     1      34.919 -16.334 -23.149  0.00  0.00    +0.048 C 
ATOM      5  C   UNL     1      35.703 -18.434 -23.369  0.00  0.00    +0.057 C 
ATOM      6  C   UNL     1      34.740 -16.066 -20.756  0.00  0.00    +0.001 C 
ATOM      7  C   UNL     1      34.446 -15.037 -23.376  0.00  0.00    +0.015 C 
ATOM      8  C   UNL     1      34.266 -14.767 -20.967  0.00  0.00    +0.000 C 
ATOM      9  C   UNL     1      34.123 -14.262 -22.259  0.00  0.00    +0.001 C 
ATOM     10  H   UNL     1      35.304 -17.208 -25.020  0.00  0.00    +0.152 HD
ENDROOT
BRANCH   2  11
ATOM     11  C   UNL     1      35.885 -19.144 -20.938  0.00  0.00    +0.006 C 
BRANCH  11  12
ATOM     12  C   UNL     1      34.887 -20.323 -20.804  0.00  0.00    -0.061 C 
ATOM     13  C   UNL     1      35.220 -21.236 -19.623  0.00  0.00    -0.024 C 
BRANCH  12  14
ATOM     14  N   UNL     1      33.521 -19.822 -20.627  0.00  0.00    +0.382 N 
ATOM     15  H   UNL     1      33.375 -19.567 -19.650  0.00  0.00    -0.089 HD
ATOM     16  H   UNL     1      32.855 -20.548 -20.891  0.00  0.00    -0.089 HD
ATOM     17  H   UNL     1      33.380 -19.002 -21.217  0.00  0.00    -0.089 HD
ENDBRANCH  12  14
ENDBRANCH  11  12
ENDBRANCH   2  11
TORSDOF 3
ENDMDL
MODEL 5
REMARK VINA RESULT:      -7.0      1.618      5.079
REMARK  Name = 9287
REMARK  3 active torsions:
REMARK  status: ('A' for Active; 'I' for Inactive)
REMARK    1  A    between atoms: C_2  and  C_11
REMARK    2  A    between atoms: C_11  and  C_12
REMARK    3  A    between atoms: C_12  and  N_14
REMARK                            x       y       z     vdW  Elec       q    Type
REMARK                         _______ _______ _______ _____ _____    ______ ____
ROOT
ATOM      1  N   UNL     1      34.929 -16.271 -21.612  0.00  0.00    -0.312 N 
ATOM      2  C   UNL     1      35.147 -18.480 -21.602  0.00  0.00    -0.008 C 
ATOM      3  C   UNL     1      34.870 -18.068 -22.935  0.00  0.00    +0.011 C 
ATOM      4  C   UNL     1      34.736 -16.677 -22.914  0.00  0.00    +0.048 C 
ATOM      5  C   UNL     1      35.178 -17.355 -20.812  0.00  0.00    +0.057 C 
ATOM      6  C   UNL     1      34.719 -18.744 -24.161  0.00  0.00    +0.001 C 
ATOM      7  C   UNL     1      34.459 -15.927 -24.062  0.00  0.00    +0.015 C 
ATOM      8  C   UNL     1      34.441 -18.008 -25.319  0.00  0.00    +0.000 C 
ATOM      9  C   UNL     1      34.313 -16.620 -25.267  0.00  0.00    +0.001 C 
ATOM     10  H   UNL     1      34.891 -15.338 -21.302  0.00  0.00    +0.152 HD
ENDROOT
BRANCH   2  11
ATOM     11  C   UNL     1      35.367 -19.866 -21.139  0.00  0.00    +0.006 C 
BRANCH  11  12
ATOM     12  C   UNL     1      34.346 -20.363 -20.083  0.00  0.00    -0.061 C 
ATOM     13  C   UNL     1      32.911 -20.346 -20.610  0.00  0.00    -0.024 C 
BRANCH  12  14
ATOM     14  N   UNL     1      34.666 -21.730 -19.664  0.00  0.00    +0.382 N 
ATOM     15  H   UNL     1      35.595 -21.749 -19.243  0.00  0.00    -0.089 HD
ATOM     16  H   UNL     1      34.649 -22.347 -20.476  0.00  0.00    -0.089 HD
ATOM     17  H   UNL     1      33.978 -22.048 -18.982  0.00  0.00    -0.089 HD
ENDBRANCH  12  14
ENDBRANCH  11  12
ENDBRANCH   2  11
TORSDOF 3
ENDMDL
MODEL 6
REMARK VINA RESULT:      -7.0      3.065      4.771
REMARK  Name = 9287
REMARK  3 active torsions:
REMARK  status: ('A' for Active; 'I' for Inactive)
REMARK    1  A    between atoms: C_2  and  C_11
REMARK    2  A    between atoms: C_11  and  C_12
REMARK    3  A    between atoms: C_12  and  N_14
REMARK                            x       y       z     vdW  Elec       q    Type
REMARK                         _______ _______ _______ _____ _____    ______ ____
ROOT
ATOM      1  N   UNL     1      35.099 -17.534 -20.921  0.00  0.00    -0.312 N 
ATOM      2  C   UNL     1      34.455 -15.693 -21.982  0.00  0.00    -0.008 C 
ATOM      3  C   UNL     1      34.555 -16.744 -22.936  0.00  0.00    +0.011 C 
ATOM      4  C   UNL     1      34.961 -17.888 -22.245  0.00  0.00    +0.048 C 
ATOM      5  C   UNL     1      34.795 -16.210 -20.753  0.00  0.00    +0.057 C 
ATOM      6  C   UNL     1      34.338 -16.833 -24.325  0.00  0.00    +0.001 C 
ATOM      7  C   UNL     1      35.162 -19.121 -22.877  0.00  0.00    +0.015 C 
ATOM      8  C   UNL     1      34.535 -18.059 -24.971  0.00  0.00    +0.000 C 
ATOM      9  C   UNL     1      34.941 -19.184 -24.255  0.00  0.00    +0.001 C 
ATOM     10  H   UNL     1      35.376 -18.145 -20.201  0.00  0.00    +0.152 HD
ENDROOT
BRANCH   2  11
ATOM     11  C   UNL     1      34.058 -14.296 -22.251  0.00  0.00    +0.006 C 
BRANCH  11  12
ATOM     12  C   UNL     1      32.562 -13.988 -21.979  0.00  0.00    -0.061 C 
ATOM     13  C   UNL     1      32.343 -13.325 -20.619  0.00  0.00    -0.024 C 
BRANCH  12  14
ATOM     14  N   UNL     1      32.026 -13.100 -23.015  0.00  0.00    +0.382 N 
ATOM     15  H   UNL     1      31.289 -12.518 -22.616  0.00  0.00    -0.089 HD
ATOM     16  H   UNL     1      31.641 -13.659 -23.776  0.00  0.00    -0.089 HD
ATOM     17  H   UNL     1      32.772 -12.505 -23.374  0.00  0.00    -0.089 HD
ENDBRANCH  12  14
ENDBRANCH  11  12
ENDBRANCH   2  11
TORSDOF 3
ENDMDL
MODEL 7
REMARK VINA RESULT:      -6.9      2.910      4.880
REMARK  Name = 9287
REMARK  3 active torsions:
REMARK  status: ('A' for Active; 'I' for Inactive)
REMARK    1  A    between atoms: C_2  and  C_11
REMARK    2  A    between atoms: C_11  and  C_12
REMARK    3  A    between atoms: C_12  and  N_14
REMARK                            x       y       z     vdW  Elec       q    Type
REMARK                         _______ _______ _______ _____ _____    ______ ____
ROOT
ATOM      1  N   UNL     1      34.476 -17.063 -25.092  0.00  0.00    -0.312 N 
ATOM      2  C   UNL     1      34.215 -15.496 -23.542  0.00  0.00    -0.008 C 
ATOM      3  C   UNL     1      34.553 -16.715 -22.889  0.00  0.00    +0.011 C 
ATOM      4  C   UNL     1      34.710 -17.682 -23.885  0.00  0.00    +0.048 C 
ATOM      5  C   UNL     1      34.175 -15.741 -24.894  0.00  0.00    +0.057 C 
ATOM      6  C   UNL     1      34.740 -17.090 -21.545  0.00  0.00    +0.001 C 
ATOM      7  C   UNL     1      35.047 -19.010 -23.601  0.00  0.00    +0.015 C 
ATOM      8  C   UNL     1      35.078 -18.414 -21.245  0.00  0.00    +0.000 C 
ATOM      9  C   UNL     1      35.228 -19.359 -22.260  0.00  0.00    +0.001 C 
ATOM     10  H   UNL     1      34.517 -17.506 -25.970  0.00  0.00    +0.152 HD
ENDROOT
BRANCH   2  11
ATOM     11  C   UNL     1      33.953 -14.195 -22.893  0.00  0.00    +0.006 C 
BRANCH  11  12
ATOM     12  C   UNL     1      32.570 -14.085 -22.201  0.00  0.00    -0.061 C 
ATOM     13  C   UNL     1      32.677 -14.126 -20.676  0.00  0.00    -0.024 C 
BRANCH  12  14
ATOM     14  N   UNL     1      31.904 -12.837 -22.582  0.00  0.00    +0.382 N 
ATOM     15  H   UNL     1      31.300 -12.527 -21.820  0.00  0.00    -0.089 HD
ATOM     16  H   UNL     1      31.341 -12.993 -23.418  0.00  0.00    -0.089 HD
ATOM     17  H   UNL     1      32.605 -12.121 -22.773  0.00  0.00    -0.089 HD
ENDBRANCH  12  14
ENDBRANCH  11  12
ENDBRANCH   2  11
TORSDOF 3
ENDMDL
MODEL 8
REMARK VINA RESULT:      -6.9      9.615     11.038
REMARK  Name = 9287
REMARK  3 active torsions:
REMARK  status: ('A' for Active; 'I' for Inactive)
REMARK    1  A    between atoms: C_2  and  C_11
REMARK    2  A    between atoms: C_11  and  C_12
REMARK    3  A    between atoms: C_12  and  N_14
REMARK                            x       y       z     vdW  Elec       q    Type
REMARK                         _______ _______ _______ _____ _____    ______ ____
ROOT
ATOM      1  N   UNL     1      32.546  -7.996 -19.552  0.00  0.00    -0.312 N 
ATOM      2  C   UNL     1      32.632  -7.929 -21.769  0.00  0.00    -0.008 C 
ATOM      3  C   UNL     1      32.173  -9.219 -21.381  0.00  0.00    +0.011 C 
ATOM      4  C   UNL     1      32.129  -9.235 -19.984  0.00  0.00    +0.048 C 
ATOM      5  C   UNL     1      32.852  -7.200 -20.623  0.00  0.00    +0.057 C 
ATOM      6  C   UNL     1      31.790 -10.378 -22.084  0.00  0.00    +0.001 C 
ATOM      7  C   UNL     1      31.719 -10.356 -19.254  0.00  0.00    +0.015 C 
ATOM      8  C   UNL     1      31.378 -11.507 -21.368  0.00  0.00    +0.000 C 
ATOM      9  C   UNL     1      31.344 -11.494 -19.974  0.00  0.00    +0.001 C 
ATOM     10  H   UNL     1      32.615  -7.722 -18.609  0.00  0.00    +0.152 HD
ENDROOT
BRANCH   2  11
ATOM     11  C   UNL     1      32.837  -7.448 -23.150  0.00  0.00    +0.006 C 
BRANCH  11  12
ATOM     12  C   UNL     1      34.303  -7.521 -23.648  0.00  0.00    -0.061 C 
ATOM     13  C   UNL     1      34.706  -8.935 -24.066  0.00  0.00    -0.024 C 
BRANCH  12  14
ATOM     14  N   UNL     1      34.500  -6.629 -24.795  0.00  0.00    +0.382 N 
ATOM     15  H   UNL     1      34.103  -7.057 -25.631  0.00  0.00    -0.089 HD
ATOM     16  H   UNL     1      35.499  -6.473 -24.936  0.00  0.00    -0.089 HD
ATOM     17  H   UNL     1      34.039  -5.737 -24.616  0.00  0.00    -0.089 HD
ENDBRANCH  12  14
ENDBRANCH  11  12
ENDBRANCH   2  11
TORSDOF 3
ENDMDL
MODEL 9
REMARK VINA RESULT:      -6.8      2.587      5.523
REMARK  Name = 9287
REMARK  3 active torsions:
REMARK  status: ('A' for Active; 'I' for Inactive)
REMARK    1  A    between atoms: C_2  and  C_11
REMARK    2  A    between atoms: C_11  and  C_12
REMARK    3  A    between atoms: C_12  and  N_14
REMARK                            x       y       z     vdW  Elec       q    Type
REMARK                         _______ _______ _______ _____ _____    ______ ____
ROOT
ATOM      1  N   UNL     1      33.894 -15.699 -24.491  0.00  0.00    -0.312 N 
ATOM      2  C   UNL     1      35.017 -16.886 -22.989  0.00  0.00    -0.008 C 
ATOM      3  C   UNL     1      34.261 -15.898 -22.299  0.00  0.00    +0.011 C 
ATOM      4  C   UNL     1      33.565 -15.166 -23.265  0.00  0.00    +0.048 C 
ATOM      5  C   UNL     1      34.771 -16.739 -24.334  0.00  0.00    +0.057 C 
ATOM      6  C   UNL     1      34.099 -15.554 -20.943  0.00  0.00    +0.001 C 
ATOM      7  C   UNL     1      32.714 -14.104 -22.940  0.00  0.00    +0.015 C 
ATOM      8  C   UNL     1      33.251 -14.495 -20.602  0.00  0.00    +0.000 C 
ATOM      9  C   UNL     1      32.570 -13.782 -21.587  0.00  0.00    +0.001 C 
ATOM     10  H   UNL     1      33.549 -15.378 -25.355  0.00  0.00    +0.152 HD
ENDROOT
BRANCH   2  11
ATOM     11  C   UNL     1      35.909 -17.894 -22.381  0.00  0.00    +0.006 C 
BRANCH  11  12
ATOM     12  C   UNL     1      35.312 -18.622 -21.148  0.00  0.00    -0.061 C 
ATOM     13  C   UNL     1      34.190 -19.588 -21.530  0.00  0.00    -0.024 C 
BRANCH  12  14
ATOM     14  N   UNL     1      36.353 -19.381 -20.447  0.00  0.00    +0.382 N 
ATOM     15  H   UNL     1      37.150 -19.519 -21.068  0.00  0.00    -0.089 HD
ATOM     16  H   UNL     1      35.981 -20.288 -20.166  0.00  0.00    -0.089 HD
ATOM     17  H   UNL     1      36.652 -18.865 -19.620  0.00  0.00    -0.089 HD
ENDBRANCH  12  14
ENDBRANCH  11  12
ENDBRANCH   2  11
TORSDOF 3
ENDMDL
