MODEL 1
REMARK VINA RESULT:      -8.2      0.000      0.000
REMARK  Name = 2249
REMARK  9 active torsions:
REMARK  status: ('A' for Active; 'I' for Inactive)
REMARK    1  A    between atoms: O_1  and  C_2
REMARK    2  A    between atoms: O_1  and  C_14
REMARK    3  A    between atoms: C_3  and  C_8
REMARK    4  A    between atoms: C_8  and  C_11
REMARK    5  A    between atoms: C_14  and  C_15
REMARK    6  A    between atoms: C_15  and  O_16
REMARK    7  A    between atoms: C_15  and  C_18
REMARK    8  A    between atoms: C_18  and  N_19
REMARK    9  A    between atoms: N_19  and  C_22
REMARK                            x       y       z     vdW  Elec       q    Type
REMARK                         _______ _______ _______ _____ _____    ______ ____
ROOT
ATOM      1  O   UNL     1      35.533 -17.832 -22.650  0.00  0.00    -0.473 OA
ENDROOT
BRANCH   1   2
ATOM      2  C   UNL     1      35.424 -18.825 -21.713  0.00  0.00    +0.139 C 
ATOM      3  C   UNL     1      35.206 -20.843 -19.812  0.00  0.00    -0.013 C 
ATOM      4  C   UNL     1      36.562 -19.276 -21.054  0.00  0.00    +0.037 C 
ATOM      5  C   UNL     1      34.178 -19.373 -21.431  0.00  0.00    +0.037 C 
ATOM      6  C   UNL     1      36.452 -20.288 -20.100  0.00  0.00    -0.001 C 
ATOM      7  C   UNL     1      34.069 -20.386 -20.477  0.00  0.00    -0.001 C 
BRANCH   3   8
ATOM      8  C   UNL     1      35.089 -21.925 -18.792  0.00  0.00    +0.111 C 
BRANCH   8  11
ATOM      9  O   UNL     1      33.965 -23.858 -19.735  0.00  0.00    -0.275 OA
ATOM     10  N   UNL     1      32.780 -22.471 -18.337  0.00  0.00    -0.329 N 
ATOM     11  C   UNL     1      33.912 -22.859 -19.021  0.00  0.00    +0.224 C 
ATOM     12  H   UNL     1      31.955 -23.001 -18.409  0.00  0.00    +0.145 HD
ATOM     13  H   UNL     1      32.798 -21.662 -17.776  0.00  0.00    +0.145 HD
ENDBRANCH   8  11
ENDBRANCH   3   8
ENDBRANCH   1   2
BRANCH   1  14
ATOM     14  C   UNL     1      35.079 -18.141 -23.965  0.00  0.00    +0.232 C 
BRANCH  14  15
ATOM     15  C   UNL     1      34.383 -16.912 -24.547  0.00  0.00    +0.133 C 
BRANCH  15  16
ATOM     16  O   UNL     1      34.935 -16.646 -25.840  0.00  0.00    -0.383 OA
ATOM     17  H   UNL     1      34.644 -17.331 -26.462  0.00  0.00    +0.210 HD
ENDBRANCH  15  16
BRANCH  15  18
ATOM     18  C   UNL     1      34.549 -15.658 -23.688  0.00  0.00    -0.048 C 
BRANCH  18  19
ATOM     19  N   UNL     1      33.497 -15.534 -22.687  0.00  0.00    +0.387 N 
ATOM     20  H   UNL     1      33.327 -16.449 -22.269  0.00  0.00    -0.084 HD
ATOM     21  H   UNL     1      32.654 -15.188 -23.143  0.00  0.00    -0.084 HD
BRANCH  19  22
ATOM     22  C   UNL     1      33.880 -14.596 -21.642  0.00  0.00    -0.062 C 
ATOM     23  C   UNL     1      32.647 -13.834 -21.167  0.00  0.00    -0.023 C 
ATOM     24  C   UNL     1      34.548 -15.335 -20.485  0.00  0.00    -0.023 C 
ENDBRANCH  19  22
ENDBRANCH  18  19
ENDBRANCH  15  18
ENDBRANCH  14  15
ENDBRANCH   1  14
TORSDOF 9
ENDMDL
MODEL 2
REMARK VINA RESULT:      -8.1      2.966      8.105
REMARK  Name = 2249
REMARK  9 active torsions:
REMARK  status: ('A' for Active; 'I' for Inactive)
REMARK    1  A    between atoms: O_1  and  C_2
REMARK    2  A    between atoms: O_1  and  C_14
REMARK    3  A    between atoms: C_3  and  C_8
REMARK    4  A    between atoms: C_8  and  C_11
REMARK    5  A    between atoms: C_14  and  C_15
REMARK    6  A    between atoms: C_15  and  O_16
REMARK    7  A    between atoms: C_15  and  C_18
REMARK    8  A    between atoms: C_18  and  N_19
REMARK    9  A    between atoms: N_19  and  C_22
REMARK                            x       y       z     vdW  Elec       q    Type
REMARK                         _______ _______ _______ _____ _____    ______ ____
ROOT
ATOM      1  O   UNL     1      35.295 -22.841 -17.574  0.00  0.00    -0.473 OA
ENDROOT
BRANCH   1   2
ATOM      2  C   UNL     1      35.101 -21.973 -18.616  0.00  0.00    +0.139 C 
ATOM      3  C   UNL     1      34.705 -20.214 -20.734  0.00  0.00    -0.013 C 
ATOM      4  C   UNL     1      33.808 -21.697 -19.050  0.00  0.00    +0.037 C 
ATOM      5  C   UNL     1      36.196 -21.378 -19.231  0.00  0.00    +0.037 C 
ATOM      6  C   UNL     1      33.610 -20.815 -20.112  0.00  0.00    -0.001 C 
ATOM      7  C   UNL     1      35.997 -20.496 -20.294  0.00  0.00    -0.001 C 
BRANCH   3   8
ATOM      8  C   UNL     1      34.492 -19.270 -21.869  0.00  0.00    +0.111 C 
BRANCH   8  11
ATOM      9  O   UNL     1      35.247 -17.261 -20.735  0.00  0.00    -0.275 OA
ATOM     10  N   UNL     1      36.005 -17.672 -22.865  0.00  0.00    -0.329 N 
ATOM     11  C   UNL     1      35.268 -17.970 -21.738  0.00  0.00    +0.224 C 
ATOM     12  H   UNL     1      36.549 -16.854 -22.896  0.00  0.00    +0.145 HD
ATOM     13  H   UNL     1      35.986 -18.280 -23.639  0.00  0.00    +0.145 HD
ENDBRANCH   8  11
ENDBRANCH   3   8
ENDBRANCH   1   2
BRANCH   1  14
ATOM     14  C   UNL     1      36.259 -22.460 -16.597  0.00  0.00    +0.232 C 
BRANCH  14  15
ATOM     15  C   UNL     1      36.183 -23.437 -15.424  0.00  0.00    +0.133 C 
BRANCH  15  16
ATOM     16  O   UNL     1      37.112 -24.500 -15.656  0.00  0.00    -0.383 OA
ATOM     17  H   UNL     1      37.944 -24.306 -15.197  0.00  0.00    +0.210 HD
ENDBRANCH  15  16
BRANCH  15  18
ATOM     18  C   UNL     1      34.794 -24.048 -15.234  0.00  0.00    -0.048 C 
BRANCH  18  19
ATOM     19  N   UNL     1      33.800 -23.048 -14.865  0.00  0.00    +0.387 N 
ATOM     20  H   UNL     1      33.907 -22.233 -15.469  0.00  0.00    -0.084 HD
ATOM     21  H   UNL     1      33.946 -22.790 -13.889  0.00  0.00    -0.084 HD
BRANCH  19  22
ATOM     22  C   UNL     1      32.451 -23.576 -15.010  0.00  0.00    -0.062 C 
ATOM     23  C   UNL     1      31.550 -22.968 -13.940  0.00  0.00    -0.023 C 
ATOM     24  C   UNL     1      31.915 -23.284 -16.409  0.00  0.00    -0.023 C 
ENDBRANCH  19  22
ENDBRANCH  18  19
ENDBRANCH  15  18
ENDBRANCH  14  15
ENDBRANCH   1  14
TORSDOF 9
ENDMDL
MODEL 3
REMARK VINA RESULT:      -8.0      3.217      8.152
REMARK  Name = 2249
REMARK  9 active torsions:
REMARK  status: ('A' for Active; 'I' for Inactive)
REMARK    1  A    between atoms: O_1  and  C_2
REMARK    2  A    between atoms: O_1  and  C_14
REMARK    3  A    between atoms: C_3  and  C_8
REMARK    4  A    between atoms: C_8  and  C_11
REMARK    5  A    between atoms: C_14  and  C_15
REMARK    6  A    between atoms: C_15  and  O_16
REMARK    7  A    between atoms: C_15  and  C_18
REMARK    8  A    between atoms: C_18  and  N_19
REMARK    9  A    between atoms: N_19  and  C_22
REMARK                            x       y       z     vdW  Elec       q    Type
REMARK                         _______ _______ _______ _____ _____    ______ ____
ROOT
ATOM      1  O   UNL     1      34.222 -23.315 -18.372  0.00  0.00    -0.473 OA
ENDROOT
BRANCH   1   2
ATOM      2  C   UNL     1      34.275 -22.176 -19.132  0.00  0.00    +0.139 C 
ATOM      3  C   UNL     1      34.386 -19.863 -20.673  0.00  0.00    -0.013 C 
ATOM      4  C   UNL     1      35.506 -21.695 -19.564  0.00  0.00    +0.037 C 
ATOM      5  C   UNL     1      33.099 -21.512 -19.463  0.00  0.00    +0.037 C 
ATOM      6  C   UNL     1      35.562 -20.535 -20.337  0.00  0.00    -0.001 C 
ATOM      7  C   UNL     1      33.155 -20.352 -20.235  0.00  0.00    -0.001 C 
BRANCH   3   8
ATOM      8  C   UNL     1      34.446 -18.624 -21.499  0.00  0.00    +0.111 C 
BRANCH   8  11
ATOM      9  O   UNL     1      34.815 -19.538 -23.717  0.00  0.00    -0.275 OA
ATOM     10  N   UNL     1      36.334 -18.029 -22.883  0.00  0.00    -0.329 N 
ATOM     11  C   UNL     1      35.192 -18.797 -22.812  0.00  0.00    +0.224 C 
ATOM     12  H   UNL     1      36.899 -18.059 -23.688  0.00  0.00    +0.145 HD
ATOM     13  H   UNL     1      36.585 -17.450 -22.127  0.00  0.00    +0.145 HD
ENDBRANCH   8  11
ENDBRANCH   3   8
ENDBRANCH   1   2
BRANCH   1  14
ATOM     14  C   UNL     1      33.374 -23.280 -17.228  0.00  0.00    +0.232 C 
BRANCH  14  15
ATOM     15  C   UNL     1      34.242 -23.196 -15.974  0.00  0.00    +0.133 C 
BRANCH  15  16
ATOM     16  O   UNL     1      35.449 -23.927 -16.206  0.00  0.00    -0.383 OA
ATOM     17  H   UNL     1      35.943 -23.513 -16.932  0.00  0.00    +0.210 HD
ENDBRANCH  15  16
BRANCH  15  18
ATOM     18  C   UNL     1      33.565 -23.773 -14.729  0.00  0.00    -0.048 C 
BRANCH  18  19
ATOM     19  N   UNL     1      32.655 -22.819 -14.108  0.00  0.00    +0.387 N 
ATOM     20  H   UNL     1      32.490 -22.047 -14.754  0.00  0.00    -0.084 HD
ATOM     21  H   UNL     1      33.080 -22.478 -13.246  0.00  0.00    -0.084 HD
BRANCH  19  22
ATOM     22  C   UNL     1      31.383 -23.449 -13.782  0.00  0.00    -0.062 C 
ATOM     23  C   UNL     1      30.313 -22.962 -14.754  0.00  0.00    -0.023 C 
ATOM     24  C   UNL     1      31.516 -24.968 -13.828  0.00  0.00    -0.023 C 
ENDBRANCH  19  22
ENDBRANCH  18  19
ENDBRANCH  15  18
ENDBRANCH  14  15
ENDBRANCH   1  14
TORSDOF 9
ENDMDL
MODEL 4
REMARK VINA RESULT:      -8.0      4.056      9.040
REMARK  Name = 2249
REMARK  9 active torsions:
REMARK  status: ('A' for Active; 'I' for Inactive)
REMARK    1  A    between atoms: O_1  and  C_2
REMARK    2  A    between atoms: O_1  and  C_14
REMARK    3  A    between atoms: C_3  and  C_8
REMARK    4  A    between atoms: C_8  and  C_11
REMARK    5  A    between atoms: C_14  and  C_15
REMARK    6  A    between atoms: C_15  and  O_16
REMARK    7  A    between atoms: C_15  and  C_18
REMARK    8  A    between atoms: C_18  and  N_19
REMARK    9  A    between atoms: N_19  and  C_22
REMARK                            x       y       z     vdW  Elec       q    Type
REMARK                         _______ _______ _______ _____ _____    ______ ____
ROOT
ATOM      1  O   UNL     1      35.277 -22.868 -17.594  0.00  0.00    -0.473 OA
ENDROOT
BRANCH   1   2
ATOM      2  C   UNL     1      35.075 -21.989 -18.626  0.00  0.00    +0.139 C 
ATOM      3  C   UNL     1      34.667 -20.202 -20.718  0.00  0.00    -0.013 C 
ATOM      4  C   UNL     1      36.168 -21.387 -19.240  0.00  0.00    +0.037 C 
ATOM      5  C   UNL     1      33.781 -21.706 -19.047  0.00  0.00    +0.037 C 
ATOM      6  C   UNL     1      35.963 -20.490 -20.289  0.00  0.00    -0.001 C 
ATOM      7  C   UNL     1      33.576 -20.809 -20.097  0.00  0.00    -0.001 C 
BRANCH   3   8
ATOM      8  C   UNL     1      34.448 -19.245 -21.840  0.00  0.00    +0.111 C 
BRANCH   8  11
ATOM      9  O   UNL     1      35.229 -17.238 -20.720  0.00  0.00    -0.275 OA
ATOM     10  N   UNL     1      36.006 -17.690 -22.835  0.00  0.00    -0.329 N 
ATOM     11  C   UNL     1      35.249 -17.959 -21.715  0.00  0.00    +0.224 C 
ATOM     12  H   UNL     1      36.568 -16.883 -22.868  0.00  0.00    +0.145 HD
ATOM     13  H   UNL     1      35.986 -18.307 -23.602  0.00  0.00    +0.145 HD
ENDBRANCH   8  11
ENDBRANCH   3   8
ENDBRANCH   1   2
BRANCH   1  14
ATOM     14  C   UNL     1      36.243 -22.494 -16.616  0.00  0.00    +0.232 C 
BRANCH  14  15
ATOM     15  C   UNL     1      36.157 -23.468 -15.442  0.00  0.00    +0.133 C 
BRANCH  15  16
ATOM     16  O   UNL     1      35.402 -22.853 -14.394  0.00  0.00    -0.383 OA
ATOM     17  H   UNL     1      35.773 -21.978 -14.200  0.00  0.00    +0.210 HD
ENDBRANCH  15  16
BRANCH  15  18
ATOM     18  C   UNL     1      37.524 -23.861 -14.881  0.00  0.00    -0.048 C 
BRANCH  18  19
ATOM     19  N   UNL     1      37.915 -25.207 -15.279  0.00  0.00    +0.387 N 
ATOM     20  H   UNL     1      38.458 -25.154 -16.142  0.00  0.00    -0.084 HD
ATOM     21  H   UNL     1      37.072 -25.761 -15.422  0.00  0.00    -0.084 HD
BRANCH  19  22
ATOM     22  C   UNL     1      38.722 -25.842 -14.247  0.00  0.00    -0.062 C 
ATOM     23  C   UNL     1      40.198 -25.571 -14.517  0.00  0.00    -0.023 C 
ATOM     24  C   UNL     1      38.314 -25.333 -12.867  0.00  0.00    -0.023 C 
ENDBRANCH  19  22
ENDBRANCH  18  19
ENDBRANCH  15  18
ENDBRANCH  14  15
ENDBRANCH   1  14
TORSDOF 9
ENDMDL
MODEL 5
REMARK VINA RESULT:      -7.9      1.898      2.788
REMARK  Name = 2249
REMARK  9 active torsions:
REMARK  status: ('A' for Active; 'I' for Inactive)
REMARK    1  A    between atoms: O_1  and  C_2
REMARK    2  A    between atoms: O_1  and  C_14
REMARK    3  A    between atoms: C_3  and  C_8
REMARK    4  A    between atoms: C_8  and  C_11
REMARK    5  A    between atoms: C_14  and  C_15
REMARK    6  A    between atoms: C_15  and  O_16
REMARK    7  A    between atoms: C_15  and  C_18
REMARK    8  A    between atoms: C_18  and  N_19
REMARK    9  A    between atoms: N_19  and  C_22
REMARK                            x       y       z     vdW  Elec       q    Type
REMARK                         _______ _______ _______ _____ _____    ______ ____
ROOT
ATOM      1  O   UNL     1      35.042 -15.965 -24.187  0.00  0.00    -0.473 OA
ENDROOT
BRANCH   1   2
ATOM      2  C   UNL     1      34.964 -17.016 -23.312  0.00  0.00    +0.139 C 
ATOM      3  C   UNL     1      34.803 -19.150 -21.535  0.00  0.00    -0.013 C 
ATOM      4  C   UNL     1      34.821 -18.310 -23.801  0.00  0.00    +0.037 C 
ATOM      5  C   UNL     1      35.028 -16.779 -21.943  0.00  0.00    +0.037 C 
ATOM      6  C   UNL     1      34.740 -19.380 -22.909  0.00  0.00    -0.001 C 
ATOM      7  C   UNL     1      34.947 -17.850 -21.052  0.00  0.00    -0.001 C 
BRANCH   3   8
ATOM      8  C   UNL     1      34.718 -20.294 -20.583  0.00  0.00    +0.111 C 
BRANCH   8  11
ATOM      9  O   UNL     1      32.324 -19.939 -20.396  0.00  0.00    -0.275 OA
ATOM     10  N   UNL     1      33.211 -21.899 -19.589  0.00  0.00    -0.329 N 
ATOM     11  C   UNL     1      33.296 -20.663 -20.192  0.00  0.00    +0.224 C 
ATOM     12  H   UNL     1      32.339 -22.245 -19.293  0.00  0.00    +0.145 HD
ATOM     13  H   UNL     1      34.025 -22.438 -19.455  0.00  0.00    +0.145 HD
ENDBRANCH   8  11
ENDBRANCH   3   8
ENDBRANCH   1   2
BRANCH   1  14
ATOM     14  C   UNL     1      34.061 -15.919 -25.219  0.00  0.00    +0.232 C 
BRANCH  14  15
ATOM     15  C   UNL     1      33.075 -14.793 -24.910  0.00  0.00    +0.133 C 
BRANCH  15  16
ATOM     16  O   UNL     1      32.377 -14.457 -26.113  0.00  0.00    -0.383 OA
ATOM     17  H   UNL     1      32.020 -15.264 -26.515  0.00  0.00    +0.210 HD
ENDBRANCH  15  16
BRANCH  15  18
ATOM     18  C   UNL     1      33.749 -13.528 -24.377  0.00  0.00    -0.048 C 
BRANCH  18  19
ATOM     19  N   UNL     1      33.871 -13.541 -22.925  0.00  0.00    +0.387 N 
ATOM     20  H   UNL     1      34.332 -12.683 -22.622  0.00  0.00    -0.084 HD
ATOM     21  H   UNL     1      34.420 -14.356 -22.653  0.00  0.00    -0.084 HD
BRANCH  19  22
ATOM     22  C   UNL     1      32.562 -13.629 -22.293  0.00  0.00    -0.062 C 
ATOM     23  C   UNL     1      32.714 -14.205 -20.889  0.00  0.00    -0.023 C 
ATOM     24  C   UNL     1      31.899 -12.255 -22.254  0.00  0.00    -0.023 C 
ENDBRANCH  19  22
ENDBRANCH  18  19
ENDBRANCH  15  18
ENDBRANCH  14  15
ENDBRANCH   1  14
TORSDOF 9
ENDMDL
MODEL 6
REMARK VINA RESULT:      -7.6      3.931      8.764
REMARK  Name = 2249
REMARK  9 active torsions:
REMARK  status: ('A' for Active; 'I' for Inactive)
REMARK    1  A    between atoms: O_1  and  C_2
REMARK    2  A    between atoms: O_1  and  C_14
REMARK    3  A    between atoms: C_3  and  C_8
REMARK    4  A    between atoms: C_8  and  C_11
REMARK    5  A    between atoms: C_14  and  C_15
REMARK    6  A    between atoms: C_15  and  O_16
REMARK    7  A    between atoms: C_15  and  C_18
REMARK    8  A    between atoms: C_18  and  N_19
REMARK    9  A    between atoms: N_19  and  C_22
REMARK                            x       y       z     vdW  Elec       q    Type
REMARK                         _______ _______ _______ _____ _____    ______ ____
ROOT
ATOM      1  O   UNL     1      35.554 -22.831 -17.384  0.00  0.00    -0.473 OA
ENDROOT
BRANCH   1   2
ATOM      2  C   UNL     1      35.313 -22.006 -18.451  0.00  0.00    +0.139 C 
ATOM      3  C   UNL     1      34.826 -20.329 -20.616  0.00  0.00    -0.013 C 
ATOM      4  C   UNL     1      36.375 -21.360 -19.074  0.00  0.00    +0.037 C 
ATOM      5  C   UNL     1      34.010 -21.822 -18.900  0.00  0.00    +0.037 C 
ATOM      6  C   UNL     1      36.131 -20.518 -20.160  0.00  0.00    -0.001 C 
ATOM      7  C   UNL     1      33.766 -20.981 -19.986  0.00  0.00    -0.001 C 
BRANCH   3   8
ATOM      8  C   UNL     1      34.565 -19.431 -21.777  0.00  0.00    +0.111 C 
BRANCH   8  11
ATOM      9  O   UNL     1      35.286 -17.342 -20.773  0.00  0.00    -0.275 OA
ATOM     10  N   UNL     1      36.091 -17.898 -22.852  0.00  0.00    -0.329 N 
ATOM     11  C   UNL     1      35.332 -18.120 -21.723  0.00  0.00    +0.224 C 
ATOM     12  H   UNL     1      36.632 -17.080 -22.930  0.00  0.00    +0.145 HD
ATOM     13  H   UNL     1      36.092 -18.560 -23.582  0.00  0.00    +0.145 HD
ENDBRANCH   8  11
ENDBRANCH   3   8
ENDBRANCH   1   2
BRANCH   1  14
ATOM     14  C   UNL     1      36.561 -22.412 -16.467  0.00  0.00    +0.232 C 
BRANCH  14  15
ATOM     15  C   UNL     1      36.577 -23.374 -15.280  0.00  0.00    +0.133 C 
BRANCH  15  16
ATOM     16  O   UNL     1      36.937 -24.675 -15.754  0.00  0.00    -0.383 OA
ATOM     17  H   UNL     1      37.615 -25.054 -15.171  0.00  0.00    +0.210 HD
ENDBRANCH  15  16
BRANCH  15  18
ATOM     18  C   UNL     1      35.228 -23.480 -14.568  0.00  0.00    -0.048 C 
BRANCH  18  19
ATOM     19  N   UNL     1      35.356 -23.331 -13.124  0.00  0.00    +0.387 N 
ATOM     20  H   UNL     1      34.614 -23.862 -12.668  0.00  0.00    -0.084 HD
ATOM     21  H   UNL     1      35.282 -22.341 -12.892  0.00  0.00    -0.084 HD
BRANCH  19  22
ATOM     22  C   UNL     1      36.647 -23.822 -12.663  0.00  0.00    -0.062 C 
ATOM     23  C   UNL     1      37.220 -22.853 -11.633  0.00  0.00    -0.023 C 
ATOM     24  C   UNL     1      36.503 -25.223 -12.076  0.00  0.00    -0.023 C 
ENDBRANCH  19  22
ENDBRANCH  18  19
ENDBRANCH  15  18
ENDBRANCH  14  15
ENDBRANCH   1  14
TORSDOF 9
ENDMDL
MODEL 7
REMARK VINA RESULT:      -7.6      1.826      2.353
REMARK  Name = 2249
REMARK  9 active torsions:
REMARK  status: ('A' for Active; 'I' for Inactive)
REMARK    1  A    between atoms: O_1  and  C_2
REMARK    2  A    between atoms: O_1  and  C_14
REMARK    3  A    between atoms: C_3  and  C_8
REMARK    4  A    between atoms: C_8  and  C_11
REMARK    5  A    between atoms: C_14  and  C_15
REMARK    6  A    between atoms: C_15  and  O_16
REMARK    7  A    between atoms: C_15  and  C_18
REMARK    8  A    between atoms: C_18  and  N_19
REMARK    9  A    between atoms: N_19  and  C_22
REMARK                            x       y       z     vdW  Elec       q    Type
REMARK                         _______ _______ _______ _____ _____    ______ ____
ROOT
ATOM      1  O   UNL     1      35.760 -18.217 -21.393  0.00  0.00    -0.473 OA
ENDROOT
BRANCH   1   2
ATOM      2  C   UNL     1      35.283 -19.378 -20.844  0.00  0.00    +0.139 C 
ATOM      3  C   UNL     1      34.316 -21.737 -19.732  0.00  0.00    -0.013 C 
ATOM      4  C   UNL     1      36.176 -20.332 -20.370  0.00  0.00    +0.037 C 
ATOM      5  C   UNL     1      33.911 -19.592 -20.768  0.00  0.00    +0.037 C 
ATOM      6  C   UNL     1      35.691 -21.516 -19.812  0.00  0.00    -0.001 C 
ATOM      7  C   UNL     1      33.426 -20.775 -20.210  0.00  0.00    -0.001 C 
BRANCH   3   8
ATOM      8  C   UNL     1      33.797 -23.001 -19.135  0.00  0.00    +0.111 C 
BRANCH   8  11
ATOM      9  O   UNL     1      32.058 -22.479 -17.525  0.00  0.00    -0.275 OA
ATOM     10  N   UNL     1      34.125 -23.110 -16.745  0.00  0.00    -0.329 N 
ATOM     11  C   UNL     1      33.216 -22.828 -17.741  0.00  0.00    +0.224 C 
ATOM     12  H   UNL     1      33.861 -23.033 -15.800  0.00  0.00    +0.145 HD
ATOM     13  H   UNL     1      35.040 -23.389 -16.978  0.00  0.00    +0.145 HD
ENDBRANCH   8  11
ENDBRANCH   3   8
ENDBRANCH   1   2
BRANCH   1  14
ATOM     14  C   UNL     1      35.036 -17.026 -21.099  0.00  0.00    +0.232 C 
BRANCH  14  15
ATOM     15  C   UNL     1      34.597 -16.380 -22.411  0.00  0.00    +0.133 C 
BRANCH  15  16
ATOM     16  O   UNL     1      35.727 -16.312 -23.286  0.00  0.00    -0.383 OA
ATOM     17  H   UNL     1      35.764 -17.116 -23.828  0.00  0.00    +0.210 HD
ENDBRANCH  15  16
BRANCH  15  18
ATOM     18  C   UNL     1      34.043 -14.965 -22.234  0.00  0.00    -0.048 C 
BRANCH  18  19
ATOM     19  N   UNL     1      34.530 -14.053 -23.260  0.00  0.00    +0.387 N 
ATOM     20  H   UNL     1      35.078 -14.579 -23.941  0.00  0.00    -0.084 HD
ATOM     21  H   UNL     1      35.105 -13.339 -22.814  0.00  0.00    -0.084 HD
BRANCH  19  22
ATOM     22  C   UNL     1      33.423 -13.398 -23.943  0.00  0.00    -0.062 C 
ATOM     23  C   UNL     1      33.813 -11.963 -24.283  0.00  0.00    -0.023 C 
ATOM     24  C   UNL     1      33.041 -14.175 -25.199  0.00  0.00    -0.023 C 
ENDBRANCH  19  22
ENDBRANCH  18  19
ENDBRANCH  15  18
ENDBRANCH  14  15
ENDBRANCH   1  14
TORSDOF 9
ENDMDL
MODEL 8
REMARK VINA RESULT:      -7.6      7.866      9.853
REMARK  Name = 2249
REMARK  9 active torsions:
REMARK  status: ('A' for Active; 'I' for Inactive)
REMARK    1  A    between atoms: O_1  and  C_2
REMARK    2  A    between atoms: O_1  and  C_14
REMARK    3  A    between atoms: C_3  and  C_8
REMARK    4  A    between atoms: C_8  and  C_11
REMARK    5  A    between atoms: C_14  and  C_15
REMARK    6  A    between atoms: C_15  and  O_16
REMARK    7  A    between atoms: C_15  and  C_18
REMARK    8  A    between atoms: C_18  and  N_19
REMARK    9  A    between atoms: N_19  and  C_22
REMARK                            x       y       z     vdW  Elec       q    Type
REMARK                         _______ _______ _______ _____ _____    ______ ____
ROOT
ATOM      1  O   UNL     1      35.281 -23.720 -16.260  0.00  0.00    -0.473 OA
ENDROOT
BRANCH   1   2
ATOM      2  C   UNL     1      33.951 -23.538 -15.985  0.00  0.00    +0.139 C 
ATOM      3  C   UNL     1      31.251 -23.165 -15.429  0.00  0.00    -0.013 C 
ATOM      4  C   UNL     1      33.064 -23.273 -17.023  0.00  0.00    +0.037 C 
ATOM      5  C   UNL     1      33.501 -23.618 -14.672  0.00  0.00    +0.037 C 
ATOM      6  C   UNL     1      31.710 -23.086 -16.744  0.00  0.00    -0.001 C 
ATOM      7  C   UNL     1      32.146 -23.431 -14.394  0.00  0.00    -0.001 C 
BRANCH   3   8
ATOM      8  C   UNL     1      29.804 -22.966 -15.132  0.00  0.00    +0.111 C 
BRANCH   8  11
ATOM      9  O   UNL     1      28.273 -24.198 -16.557  0.00  0.00    -0.275 OA
ATOM     10  N   UNL     1      28.956 -25.161 -14.586  0.00  0.00    -0.329 N 
ATOM     11  C   UNL     1      28.930 -24.148 -15.520  0.00  0.00    +0.224 C 
ATOM     12  H   UNL     1      28.428 -25.978 -14.731  0.00  0.00    +0.145 HD
ATOM     13  H   UNL     1      29.504 -25.067 -13.773  0.00  0.00    +0.145 HD
ENDBRANCH   8  11
ENDBRANCH   3   8
ENDBRANCH   1   2
BRANCH   1  14
ATOM     14  C   UNL     1      36.094 -22.550 -16.285  0.00  0.00    +0.232 C 
BRANCH  14  15
ATOM     15  C   UNL     1      37.319 -22.783 -15.403  0.00  0.00    +0.133 C 
BRANCH  15  16
ATOM     16  O   UNL     1      38.453 -23.001 -16.248  0.00  0.00    -0.383 OA
ATOM     17  H   UNL     1      38.294 -22.591 -17.113  0.00  0.00    +0.210 HD
ENDBRANCH  15  16
BRANCH  15  18
ATOM     18  C   UNL     1      37.176 -23.989 -14.474  0.00  0.00    -0.048 C 
BRANCH  18  19
ATOM     19  N   UNL     1      37.622 -25.225 -15.105  0.00  0.00    +0.387 N 
ATOM     20  H   UNL     1      38.251 -24.997 -15.876  0.00  0.00    -0.084 HD
ATOM     21  H   UNL     1      36.804 -25.727 -15.449  0.00  0.00    -0.084 HD
BRANCH  19  22
ATOM     22  C   UNL     1      38.323 -26.073 -14.152  0.00  0.00    -0.062 C 
ATOM     23  C   UNL     1      39.768 -25.602 -14.022  0.00  0.00    -0.023 C 
ATOM     24  C   UNL     1      37.615 -26.051 -12.801  0.00  0.00    -0.023 C 
ENDBRANCH  19  22
ENDBRANCH  18  19
ENDBRANCH  15  18
ENDBRANCH  14  15
ENDBRANCH   1  14
TORSDOF 9
ENDMDL
MODEL 9
REMARK VINA RESULT:      -7.6      1.666      2.478
REMARK  Name = 2249
REMARK  9 active torsions:
REMARK  status: ('A' for Active; 'I' for Inactive)
REMARK    1  A    between atoms: O_1  and  C_2
REMARK    2  A    between atoms: O_1  and  C_14
REMARK    3  A    between atoms: C_3  and  C_8
REMARK    4  A    between atoms: C_8  and  C_11
REMARK    5  A    between atoms: C_14  and  C_15
REMARK    6  A    between atoms: C_15  and  O_16
REMARK    7  A    between atoms: C_15  and  C_18
REMARK    8  A    between atoms: C_18  and  N_19
REMARK    9  A    between atoms: N_19  and  C_22
REMARK                            x       y       z     vdW  Elec       q    Type
REMARK                         _______ _______ _______ _____ _____    ______ ____
ROOT
ATOM      1  O   UNL     1      35.634 -18.392 -21.475  0.00  0.00    -0.473 OA
ENDROOT
BRANCH   1   2
ATOM      2  C   UNL     1      35.167 -19.512 -20.840  0.00  0.00    +0.139 C 
ATOM      3  C   UNL     1      34.217 -21.785 -19.548  0.00  0.00    -0.013 C 
ATOM      4  C   UNL     1      33.797 -19.698 -20.693  0.00  0.00    +0.037 C 
ATOM      5  C   UNL     1      36.067 -20.451 -20.347  0.00  0.00    +0.037 C 
ATOM      6  C   UNL     1      33.321 -20.839 -20.045  0.00  0.00    -0.001 C 
ATOM      7  C   UNL     1      35.589 -21.591 -19.699  0.00  0.00    -0.001 C 
BRANCH   3   8
ATOM      8  C   UNL     1      33.707 -23.003 -18.856  0.00  0.00    +0.111 C 
BRANCH   8  11
ATOM      9  O   UNL     1      35.116 -22.952 -16.880  0.00  0.00    -0.275 OA
ATOM     10  N   UNL     1      32.841 -23.125 -16.605  0.00  0.00    -0.329 N 
ATOM     11  C   UNL     1      33.988 -23.024 -17.363  0.00  0.00    +0.224 C 
ATOM     12  H   UNL     1      32.899 -23.147 -15.623  0.00  0.00    +0.145 HD
ATOM     13  H   UNL     1      31.962 -23.176 -17.047  0.00  0.00    +0.145 HD
ENDBRANCH   8  11
ENDBRANCH   3   8
ENDBRANCH   1   2
BRANCH   1  14
ATOM     14  C   UNL     1      35.041 -17.152 -21.102  0.00  0.00    +0.232 C 
BRANCH  14  15
ATOM     15  C   UNL     1      34.595 -16.419 -22.366  0.00  0.00    +0.133 C 
BRANCH  15  16
ATOM     16  O   UNL     1      35.711 -16.326 -23.257  0.00  0.00    -0.383 OA
ATOM     17  H   UNL     1      35.895 -17.200 -23.636  0.00  0.00    +0.210 HD
ENDBRANCH  15  16
BRANCH  15  18
ATOM     18  C   UNL     1      34.078 -15.005 -22.096  0.00  0.00    -0.048 C 
BRANCH  18  19
ATOM     19  N   UNL     1      34.554 -14.049 -23.087  0.00  0.00    +0.387 N 
ATOM     20  H   UNL     1      35.087 -14.546 -23.801  0.00  0.00    -0.084 HD
ATOM     21  H   UNL     1      35.142 -13.360 -22.618  0.00  0.00    -0.084 HD
BRANCH  19  22
ATOM     22  C   UNL     1      33.440 -13.357 -23.720  0.00  0.00    -0.062 C 
ATOM     23  C   UNL     1      33.030 -14.105 -24.985  0.00  0.00    -0.023 C 
ATOM     24  C   UNL     1      32.269 -13.237 -22.749  0.00  0.00    -0.023 C 
ENDBRANCH  19  22
ENDBRANCH  18  19
ENDBRANCH  15  18
ENDBRANCH  14  15
ENDBRANCH   1  14
TORSDOF 9
ENDMDL
