MODEL 1
REMARK VINA RESULT:      -8.8      0.000      0.000
REMARK  Name = 64727
REMARK  14 active torsions:
REMARK  status: ('A' for Active; 'I' for Inactive)
REMARK    1  A    between atoms: C_2  and  C_20
REMARK    2  A    between atoms: C_3  and  O_13
REMARK    3  A    between atoms: O_13  and  C_15
REMARK    4  A    between atoms: C_15  and  C_16
REMARK    5  A    between atoms: C_16  and  C_18
REMARK    6  A    between atoms: C_20  and  C_21
REMARK    7  A    between atoms: C_21  and  C_22
REMARK    8  A    between atoms: C_22  and  O_23
REMARK    9  A    between atoms: C_22  and  C_25
REMARK   10  A    between atoms: C_25  and  C_26
REMARK   11  A    between atoms: C_26  and  O_27
REMARK   12  A    between atoms: C_26  and  C_29
REMARK   13  A    between atoms: C_29  and  C_31
REMARK   14  A    between atoms: C_31  and  O_32
REMARK                            x       y       z     vdW  Elec       q    Type
REMARK                         _______ _______ _______ _____ _____    ______ ____
ROOT
ATOM      1  C   UNL     1      34.408 -15.402 -23.981  0.00  0.00    +0.062 C 
ATOM      2  C   UNL     1      33.262 -14.485 -23.462  0.00  0.00    +0.012 C 
ATOM      3  C   UNL     1      34.893 -16.430 -22.933  0.00  0.00    +0.173 C 
ATOM      4  C   UNL     1      32.826 -13.457 -24.549  0.00  0.00    +0.022 C 
ATOM      5  C   UNL     1      34.011 -16.075 -25.291  0.00  0.00    -0.024 C 
ATOM      6  C   UNL     1      35.877 -17.429 -23.549  0.00  0.00    +0.048 C 
ATOM      7  C   UNL     1      35.304 -18.180 -24.764  0.00  0.00    +0.025 C 
ATOM      8  C   UNL     1      34.419 -17.314 -25.621  0.00  0.00    -0.030 C 
ATOM      9  C   UNL     1      32.635 -14.130 -25.883  0.00  0.00    -0.027 C 
ATOM     10  C   UNL     1      33.163 -15.320 -26.198  0.00  0.00    -0.009 C 
ATOM     11  C   UNL     1      33.778 -12.270 -24.720  0.00  0.00    +0.005 C 
ATOM     12  C   UNL     1      34.554 -19.451 -24.358  0.00  0.00    +0.005 C 
ENDROOT
BRANCH   3  13
ATOM     13  O   UNL     1      33.785 -17.115 -22.359  0.00  0.00    -0.452 OA
BRANCH  13  15
ATOM     14  O   UNL     1      34.215 -17.022 -20.095  0.00  0.00    -0.250 OA
ATOM     15  C   UNL     1      33.995 -17.656 -21.119  0.00  0.00    +0.316 C 
BRANCH  15  16
ATOM     16  C   UNL     1      33.946 -19.171 -21.201  0.00  0.00    +0.099 C 
ATOM     17  C   UNL     1      35.277 -19.723 -20.696  0.00  0.00    +0.012 C 
BRANCH  16  18
ATOM     18  C   UNL     1      32.773 -19.740 -20.391  0.00  0.00    +0.011 C 
ATOM     19  C   UNL     1      33.082 -21.107 -19.794  0.00  0.00    +0.001 C 
ENDBRANCH  16  18
ENDBRANCH  15  16
ENDBRANCH  13  15
ENDBRANCH   3  13
BRANCH   2  20
ATOM     20  C   UNL     1      33.604 -13.795 -22.137  0.00  0.00    +0.003 C 
BRANCH  20  21
ATOM     21  C   UNL     1      32.345 -13.561 -21.303  0.00  0.00    +0.029 C 
BRANCH  21  22
ATOM     22  C   UNL     1      31.894 -12.095 -21.263  0.00  0.00    +0.113 C 
BRANCH  22  23
ATOM     23  O   UNL     1      30.774 -11.949 -22.140  0.00  0.00    -0.384 OA
ATOM     24  H   UNL     1      30.658 -11.013 -22.364  0.00  0.00    +0.210 HD
ENDBRANCH  22  23
BRANCH  22  25
ATOM     25  C   UNL     1      31.500 -11.563 -19.876  0.00  0.00    +0.059 C 
BRANCH  25  26
ATOM     26  C   UNL     1      31.696 -10.055 -19.678  0.00  0.00    +0.124 C 
BRANCH  26  27
ATOM     27  O   UNL     1      32.618  -9.828 -18.615  0.00  0.00    -0.384 OA
ATOM     28  H   UNL     1      32.966  -8.924 -18.677  0.00  0.00    +0.210 HD
ENDBRANCH  26  27
BRANCH  26  29
ATOM     29  C   UNL     1      32.264  -9.416 -20.945  0.00  0.00    +0.139 C 
BRANCH  29  31
ATOM     30  O   UNL     1      31.633  -7.165 -21.559  0.00  0.00    -0.250 OA
ATOM     31  C   UNL     1      32.279  -7.910 -20.834  0.00  0.00    +0.316 C 
BRANCH  31  32
ATOM     32  O   UNL     1      33.074  -7.468 -19.828  0.00  0.00    -0.480 OA
ATOM     33  H   UNL     1      33.935  -7.823 -19.722  0.00  0.00    +0.295 HD
ENDBRANCH  31  32
ENDBRANCH  29  31
ENDBRANCH  26  29
ENDBRANCH  25  26
ENDBRANCH  22  25
ENDBRANCH  21  22
ENDBRANCH  20  21
ENDBRANCH   2  20
TORSDOF 14
ENDMDL
MODEL 2
REMARK VINA RESULT:      -8.5      8.709     13.199
REMARK  Name = 64727
REMARK  14 active torsions:
REMARK  status: ('A' for Active; 'I' for Inactive)
REMARK    1  A    between atoms: C_2  and  C_20
REMARK    2  A    between atoms: C_3  and  O_13
REMARK    3  A    between atoms: O_13  and  C_15
REMARK    4  A    between atoms: C_15  and  C_16
REMARK    5  A    between atoms: C_16  and  C_18
REMARK    6  A    between atoms: C_20  and  C_21
REMARK    7  A    between atoms: C_21  and  C_22
REMARK    8  A    between atoms: C_22  and  O_23
REMARK    9  A    between atoms: C_22  and  C_25
REMARK   10  A    between atoms: C_25  and  C_26
REMARK   11  A    between atoms: C_26  and  O_27
REMARK   12  A    between atoms: C_26  and  C_29
REMARK   13  A    between atoms: C_29  and  C_31
REMARK   14  A    between atoms: C_31  and  O_32
REMARK                            x       y       z     vdW  Elec       q    Type
REMARK                         _______ _______ _______ _____ _____    ______ ____
ROOT
ATOM      1  C   UNL     1      35.305 -22.857 -17.403  0.00  0.00    +0.062 C 
ATOM      2  C   UNL     1      35.645 -22.625 -15.902  0.00  0.00    +0.012 C 
ATOM      3  C   UNL     1      33.820 -23.212 -17.648  0.00  0.00    +0.173 C 
ATOM      4  C   UNL     1      37.154 -22.291 -15.709  0.00  0.00    +0.022 C 
ATOM      5  C   UNL     1      35.749 -21.667 -18.248  0.00  0.00    -0.024 C 
ATOM      6  C   UNL     1      33.495 -23.238 -19.145  0.00  0.00    +0.048 C 
ATOM      7  C   UNL     1      33.824 -21.918 -19.865  0.00  0.00    +0.025 C 
ATOM      8  C   UNL     1      35.075 -21.264 -19.341  0.00  0.00    -0.030 C 
ATOM      9  C   UNL     1      37.607 -21.249 -16.699  0.00  0.00    -0.027 C 
ATOM     10  C   UNL     1      36.953 -20.968 -17.833  0.00  0.00    -0.009 C 
ATOM     11  C   UNL     1      38.089 -23.501 -15.795  0.00  0.00    +0.005 C 
ATOM     12  C   UNL     1      32.658 -20.928 -19.818  0.00  0.00    +0.005 C 
ENDROOT
BRANCH   3  13
ATOM     13  O   UNL     1      32.971 -22.290 -16.974  0.00  0.00    -0.452 OA
BRANCH  13  15
ATOM     14  O   UNL     1      30.685 -22.344 -17.281  0.00  0.00    -0.250 OA
ATOM     15  C   UNL     1      31.700 -22.729 -16.715  0.00  0.00    +0.316 C 
BRANCH  15  16
ATOM     16  C   UNL     1      31.726 -23.751 -15.592  0.00  0.00    +0.099 C 
ATOM     17  C   UNL     1      31.737 -23.003 -14.262  0.00  0.00    +0.012 C 
BRANCH  16  18
ATOM     18  C   UNL     1      30.527 -24.707 -15.675  0.00  0.00    +0.011 C 
ATOM     19  C   UNL     1      29.824 -24.880 -14.334  0.00  0.00    +0.001 C 
ENDBRANCH  16  18
ENDBRANCH  15  16
ENDBRANCH  13  15
ENDBRANCH   3  13
BRANCH   2  20
ATOM     20  C   UNL     1      35.204 -23.787 -15.004  0.00  0.00    +0.003 C 
BRANCH  20  21
ATOM     21  C   UNL     1      35.650 -23.560 -13.560  0.00  0.00    +0.029 C 
BRANCH  21  22
ATOM     22  C   UNL     1      36.428 -24.739 -12.961  0.00  0.00    +0.113 C 
BRANCH  22  23
ATOM     23  O   UNL     1      35.677 -25.254 -11.858  0.00  0.00    -0.384 OA
ATOM     24  H   UNL     1      34.843 -24.767 -11.779  0.00  0.00    +0.210 HD
ENDBRANCH  22  23
BRANCH  22  25
ATOM     25  C   UNL     1      36.727 -25.894 -13.929  0.00  0.00    +0.059 C 
BRANCH  25  26
ATOM     26  C   UNL     1      38.080 -26.584 -13.722  0.00  0.00    +0.124 C 
BRANCH  26  27
ATOM     27  O   UNL     1      38.295 -27.537 -14.760  0.00  0.00    -0.384 OA
ATOM     28  H   UNL     1      37.785 -27.282 -15.545  0.00  0.00    +0.210 HD
ENDBRANCH  26  27
BRANCH  26  29
ATOM     29  C   UNL     1      39.217 -25.563 -13.772  0.00  0.00    +0.139 C 
BRANCH  29  31
ATOM     30  O   UNL     1      41.310 -26.753 -13.981  0.00  0.00    -0.250 OA
ATOM     31  C   UNL     1      40.411 -26.115 -14.513  0.00  0.00    +0.316 C 
BRANCH  31  32
ATOM     32  O   UNL     1      40.373 -25.843 -15.841  0.00  0.00    -0.480 OA
ATOM     33  H   UNL     1      41.143 -25.950 -16.364  0.00  0.00    +0.295 HD
ENDBRANCH  31  32
ENDBRANCH  29  31
ENDBRANCH  26  29
ENDBRANCH  25  26
ENDBRANCH  22  25
ENDBRANCH  21  22
ENDBRANCH  20  21
ENDBRANCH   2  20
TORSDOF 14
ENDMDL
MODEL 3
REMARK VINA RESULT:      -8.5      2.271      5.456
REMARK  Name = 64727
REMARK  14 active torsions:
REMARK  status: ('A' for Active; 'I' for Inactive)
REMARK    1  A    between atoms: C_2  and  C_20
REMARK    2  A    between atoms: C_3  and  O_13
REMARK    3  A    between atoms: O_13  and  C_15
REMARK    4  A    between atoms: C_15  and  C_16
REMARK    5  A    between atoms: C_16  and  C_18
REMARK    6  A    between atoms: C_20  and  C_21
REMARK    7  A    between atoms: C_21  and  C_22
REMARK    8  A    between atoms: C_22  and  O_23
REMARK    9  A    between atoms: C_22  and  C_25
REMARK   10  A    between atoms: C_25  and  C_26
REMARK   11  A    between atoms: C_26  and  O_27
REMARK   12  A    between atoms: C_26  and  C_29
REMARK   13  A    between atoms: C_29  and  C_31
REMARK   14  A    between atoms: C_31  and  O_32
REMARK                            x       y       z     vdW  Elec       q    Type
REMARK                         _______ _______ _______ _____ _____    ______ ____
ROOT
ATOM      1  C   UNL     1      33.345 -14.498 -23.554  0.00  0.00    +0.062 C 
ATOM      2  C   UNL     1      34.276 -14.282 -22.325  0.00  0.00    +0.012 C 
ATOM      3  C   UNL     1      32.857 -13.177 -24.194  0.00  0.00    +0.173 C 
ATOM      4  C   UNL     1      34.721 -15.641 -21.709  0.00  0.00    +0.022 C 
ATOM      5  C   UNL     1      34.007 -15.412 -24.580  0.00  0.00    -0.024 C 
ATOM      6  C   UNL     1      32.109 -13.438 -25.505  0.00  0.00    +0.048 C 
ATOM      7  C   UNL     1      32.940 -14.222 -26.537  0.00  0.00    +0.025 C 
ATOM      8  C   UNL     1      33.815 -15.272 -25.905  0.00  0.00    -0.030 C 
ATOM      9  C   UNL     1      35.184 -16.594 -22.780  0.00  0.00    -0.027 C 
ATOM     10  C   UNL     1      34.867 -16.468 -24.074  0.00  0.00    -0.009 C 
ATOM     11  C   UNL     1      33.654 -16.331 -20.853  0.00  0.00    +0.005 C 
ATOM     12  C   UNL     1      33.786 -13.299 -27.418  0.00  0.00    +0.005 C 
ENDROOT
BRANCH   3  13
ATOM     13  O   UNL     1      33.953 -12.298 -24.416  0.00  0.00    -0.452 OA
BRANCH  13  15
ATOM     14  O   UNL     1      32.613 -10.486 -23.925  0.00  0.00    -0.250 OA
ATOM     15  C   UNL     1      33.688 -10.963 -24.264  0.00  0.00    +0.316 C 
BRANCH  15  16
ATOM     16  C   UNL     1      34.923 -10.149 -24.609  0.00  0.00    +0.099 C 
ATOM     17  C   UNL     1      35.469 -10.646 -25.944  0.00  0.00    +0.012 C 
BRANCH  16  18
ATOM     18  C   UNL     1      34.607  -8.648 -24.669  0.00  0.00    +0.011 C 
ATOM     19  C   UNL     1      34.788  -7.957 -23.323  0.00  0.00    +0.001 C 
ENDBRANCH  16  18
ENDBRANCH  15  16
ENDBRANCH  13  15
ENDBRANCH   3  13
BRANCH   2  20
ATOM     20  C   UNL     1      33.663 -13.355 -21.269  0.00  0.00    +0.003 C 
BRANCH  20  21
ATOM     21  C   UNL     1      32.157 -13.209 -21.480  0.00  0.00    +0.029 C 
BRANCH  21  22
ATOM     22  C   UNL     1      31.642 -11.777 -21.286  0.00  0.00    +0.113 C 
BRANCH  22  23
ATOM     23  O   UNL     1      30.433 -11.632 -22.036  0.00  0.00    -0.384 OA
ATOM     24  H   UNL     1      29.938 -12.466 -22.016  0.00  0.00    +0.210 HD
ENDBRANCH  22  23
BRANCH  22  25
ATOM     25  C   UNL     1      31.366 -11.365 -19.831  0.00  0.00    +0.059 C 
BRANCH  25  26
ATOM     26  C   UNL     1      31.669  -9.899 -19.501  0.00  0.00    +0.124 C 
BRANCH  26  27
ATOM     27  O   UNL     1      32.677  -9.834 -18.495  0.00  0.00    -0.384 OA
ATOM     28  H   UNL     1      32.649 -10.640 -17.956  0.00  0.00    +0.210 HD
ENDBRANCH  26  27
BRANCH  26  29
ATOM     29  C   UNL     1      32.186  -9.165 -20.739  0.00  0.00    +0.139 C 
BRANCH  29  31
ATOM     30  O   UNL     1      31.660  -6.816 -20.951  0.00  0.00    -0.250 OA
ATOM     31  C   UNL     1      32.363  -7.691 -20.462  0.00  0.00    +0.316 C 
BRANCH  31  32
ATOM     32  O   UNL     1      33.375  -7.440 -19.596  0.00  0.00    -0.480 OA
ATOM     33  H   UNL     1      33.507  -7.996 -18.854  0.00  0.00    +0.295 HD
ENDBRANCH  31  32
ENDBRANCH  29  31
ENDBRANCH  26  29
ENDBRANCH  25  26
ENDBRANCH  22  25
ENDBRANCH  21  22
ENDBRANCH  20  21
ENDBRANCH   2  20
TORSDOF 14
ENDMDL
MODEL 4
REMARK VINA RESULT:      -8.4      2.565      7.508
REMARK  Name = 64727
REMARK  14 active torsions:
REMARK  status: ('A' for Active; 'I' for Inactive)
REMARK    1  A    between atoms: C_2  and  C_20
REMARK    2  A    between atoms: C_3  and  O_13
REMARK    3  A    between atoms: O_13  and  C_15
REMARK    4  A    between atoms: C_15  and  C_16
REMARK    5  A    between atoms: C_16  and  C_18
REMARK    6  A    between atoms: C_20  and  C_21
REMARK    7  A    between atoms: C_21  and  C_22
REMARK    8  A    between atoms: C_22  and  O_23
REMARK    9  A    between atoms: C_22  and  C_25
REMARK   10  A    between atoms: C_25  and  C_26
REMARK   11  A    between atoms: C_26  and  O_27
REMARK   12  A    between atoms: C_26  and  C_29
REMARK   13  A    between atoms: C_29  and  C_31
REMARK   14  A    between atoms: C_31  and  O_32
REMARK                            x       y       z     vdW  Elec       q    Type
REMARK                         _______ _______ _______ _____ _____    ______ ____
ROOT
ATOM      1  C   UNL     1      31.845  -9.515 -22.001  0.00  0.00    +0.062 C 
ATOM      2  C   UNL     1      33.055  -9.349 -22.966  0.00  0.00    +0.012 C 
ATOM      3  C   UNL     1      31.416 -10.987 -21.801  0.00  0.00    +0.173 C 
ATOM      4  C   UNL     1      33.431  -7.849 -23.147  0.00  0.00    +0.022 C 
ATOM      5  C   UNL     1      32.114  -8.819 -20.670  0.00  0.00    -0.024 C 
ATOM      6  C   UNL     1      30.357 -11.113 -20.701  0.00  0.00    +0.048 C 
ATOM      7  C   UNL     1      30.807 -10.530 -19.349  0.00  0.00    +0.025 C 
ATOM      8  C   UNL     1      31.644  -9.288 -19.500  0.00  0.00    -0.030 C 
ATOM      9  C   UNL     1      33.494  -7.143 -21.817  0.00  0.00    -0.027 C 
ATOM     10  C   UNL     1      32.908  -7.602 -20.705  0.00  0.00    -0.009 C 
ATOM     11  C   UNL     1      32.503  -7.069 -24.083  0.00  0.00    +0.005 C 
ATOM     12  C   UNL     1      31.550 -11.560 -18.495  0.00  0.00    +0.005 C 
ENDROOT
BRANCH   3  13
ATOM     13  O   UNL     1      32.547 -11.796 -21.494  0.00  0.00    -0.452 OA
BRANCH  13  15
ATOM     14  O   UNL     1      31.769 -13.598 -22.706  0.00  0.00    -0.250 OA
ATOM     15  C   UNL     1      32.423 -13.129 -21.785  0.00  0.00    +0.316 C 
BRANCH  15  16
ATOM     16  C   UNL     1      33.199 -13.951 -20.771  0.00  0.00    +0.099 C 
ATOM     17  C   UNL     1      32.255 -14.991 -20.173  0.00  0.00    +0.012 C 
BRANCH  16  18
ATOM     18  C   UNL     1      34.421 -14.624 -21.412  0.00  0.00    +0.011 C 
ATOM     19  C   UNL     1      34.598 -16.068 -20.959  0.00  0.00    +0.001 C 
ENDBRANCH  16  18
ENDBRANCH  15  16
ENDBRANCH  13  15
ENDBRANCH   3  13
BRANCH   2  20
ATOM     20  C   UNL     1      32.842 -10.045 -24.314  0.00  0.00    +0.003 C 
BRANCH  20  21
ATOM     21  C   UNL     1      34.053 -10.901 -24.684  0.00  0.00    +0.029 C 
BRANCH  21  22
ATOM     22  C   UNL     1      33.715 -12.091 -25.592  0.00  0.00    +0.113 C 
BRANCH  22  23
ATOM     23  O   UNL     1      34.382 -11.901 -26.843  0.00  0.00    -0.384 OA
ATOM     24  H   UNL     1      35.342 -11.938 -26.706  0.00  0.00    +0.210 HD
ENDBRANCH  22  23
BRANCH  22  25
ATOM     25  C   UNL     1      34.098 -13.473 -25.039  0.00  0.00    +0.059 C 
BRANCH  25  26
ATOM     26  C   UNL     1      33.250 -14.640 -25.558  0.00  0.00    +0.124 C 
BRANCH  26  27
ATOM     27  O   UNL     1      33.664 -14.983 -26.878  0.00  0.00    -0.384 OA
ATOM     28  H   UNL     1      33.771 -15.946 -26.943  0.00  0.00    +0.210 HD
ENDBRANCH  26  27
BRANCH  26  29
ATOM     29  C   UNL     1      33.428 -15.870 -24.668  0.00  0.00    +0.139 C 
BRANCH  29  31
ATOM     30  O   UNL     1      34.861 -17.337 -25.947  0.00  0.00    -0.250 OA
ATOM     31  C   UNL     1      34.716 -16.590 -24.988  0.00  0.00    +0.316 C 
BRANCH  31  32
ATOM     32  O   UNL     1      35.706 -16.306 -24.106  0.00  0.00    -0.480 OA
ATOM     33  H   UNL     1      36.560 -16.674 -24.225  0.00  0.00    +0.295 HD
ENDBRANCH  31  32
ENDBRANCH  29  31
ENDBRANCH  26  29
ENDBRANCH  25  26
ENDBRANCH  22  25
ENDBRANCH  21  22
ENDBRANCH  20  21
ENDBRANCH   2  20
TORSDOF 14
ENDMDL
MODEL 5
REMARK VINA RESULT:      -8.2      6.028     10.857
REMARK  Name = 64727
REMARK  14 active torsions:
REMARK  status: ('A' for Active; 'I' for Inactive)
REMARK    1  A    between atoms: C_2  and  C_20
REMARK    2  A    between atoms: C_3  and  O_13
REMARK    3  A    between atoms: O_13  and  C_15
REMARK    4  A    between atoms: C_15  and  C_16
REMARK    5  A    between atoms: C_16  and  C_18
REMARK    6  A    between atoms: C_20  and  C_21
REMARK    7  A    between atoms: C_21  and  C_22
REMARK    8  A    between atoms: C_22  and  O_23
REMARK    9  A    between atoms: C_22  and  C_25
REMARK   10  A    between atoms: C_25  and  C_26
REMARK   11  A    between atoms: C_26  and  O_27
REMARK   12  A    between atoms: C_26  and  C_29
REMARK   13  A    between atoms: C_29  and  C_31
REMARK   14  A    between atoms: C_31  and  O_32
REMARK                            x       y       z     vdW  Elec       q    Type
REMARK                         _______ _______ _______ _____ _____    ______ ____
ROOT
ATOM      1  C   UNL     1      35.089 -22.726 -17.947  0.00  0.00    +0.062 C 
ATOM      2  C   UNL     1      33.947 -22.667 -16.891  0.00  0.00    +0.012 C 
ATOM      3  C   UNL     1      34.665 -22.200 -19.338  0.00  0.00    +0.173 C 
ATOM      4  C   UNL     1      34.420 -23.226 -15.516  0.00  0.00    +0.022 C 
ATOM      5  C   UNL     1      36.339 -22.020 -17.433  0.00  0.00    -0.024 C 
ATOM      6  C   UNL     1      35.866 -22.097 -20.283  0.00  0.00    +0.048 C 
ATOM      7  C   UNL     1      37.001 -21.214 -19.734  0.00  0.00    +0.025 C 
ATOM      8  C   UNL     1      37.178 -21.350 -18.245  0.00  0.00    -0.030 C 
ATOM      9  C   UNL     1      35.760 -22.653 -15.133  0.00  0.00    -0.027 C 
ATOM     10  C   UNL     1      36.608 -22.098 -16.007  0.00  0.00    -0.009 C 
ATOM     11  C   UNL     1      34.491 -24.755 -15.441  0.00  0.00    +0.005 C 
ATOM     12  C   UNL     1      36.818 -19.740 -20.105  0.00  0.00    +0.005 C 
ENDROOT
BRANCH   3  13
ATOM     13  O   UNL     1      34.021 -20.937 -19.217  0.00  0.00    -0.452 OA
BRANCH  13  15
ATOM     14  O   UNL     1      32.333 -21.120 -20.779  0.00  0.00    -0.250 OA
ATOM     15  C   UNL     1      33.295 -20.530 -20.305  0.00  0.00    +0.316 C 
BRANCH  15  16
ATOM     16  C   UNL     1      33.879 -19.244 -20.862  0.00  0.00    +0.099 C 
ATOM     17  C   UNL     1      34.222 -19.470 -22.332  0.00  0.00    +0.012 C 
BRANCH  16  18
ATOM     18  C   UNL     1      32.904 -18.069 -20.701  0.00  0.00    +0.011 C 
ATOM     19  C   UNL     1      33.492 -16.750 -21.187  0.00  0.00    +0.001 C 
ENDBRANCH  16  18
ENDBRANCH  15  16
ENDBRANCH  13  15
ENDBRANCH   3  13
BRANCH   2  20
ATOM     20  C   UNL     1      32.659 -23.350 -17.366  0.00  0.00    +0.003 C 
BRANCH  20  21
ATOM     21  C   UNL     1      31.447 -22.824 -16.598  0.00  0.00    +0.029 C 
BRANCH  21  22
ATOM     22  C   UNL     1      30.838 -23.844 -15.628  0.00  0.00    +0.113 C 
BRANCH  22  23
ATOM     23  O   UNL     1      30.975 -23.334 -14.299  0.00  0.00    -0.384 OA
ATOM     24  H   UNL     1      30.110 -23.036 -13.977  0.00  0.00    +0.210 HD
ENDBRANCH  22  23
BRANCH  22  25
ATOM     25  C   UNL     1      29.360 -24.185 -15.870  0.00  0.00    +0.059 C 
BRANCH  25  26
ATOM     26  C   UNL     1      28.630 -23.261 -16.852  0.00  0.00    +0.124 C 
BRANCH  26  27
ATOM     27  O   UNL     1      27.598 -23.986 -17.515  0.00  0.00    -0.384 OA
ATOM     28  H   UNL     1      27.833 -24.101 -18.450  0.00  0.00    +0.210 HD
ENDBRANCH  26  27
BRANCH  26  29
ATOM     29  C   UNL     1      27.986 -22.090 -16.110  0.00  0.00    +0.139 C 
BRANCH  29  31
ATOM     30  O   UNL     1      25.569 -22.088 -16.088  0.00  0.00    -0.250 OA
ATOM     31  C   UNL     1      26.611 -21.790 -16.658  0.00  0.00    +0.316 C 
BRANCH  31  32
ATOM     32  O   UNL     1      26.653 -21.137 -17.845  0.00  0.00    -0.480 OA
ATOM     33  H   UNL     1      27.382 -20.586 -18.052  0.00  0.00    +0.295 HD
ENDBRANCH  31  32
ENDBRANCH  29  31
ENDBRANCH  26  29
ENDBRANCH  25  26
ENDBRANCH  22  25
ENDBRANCH  21  22
ENDBRANCH  20  21
ENDBRANCH   2  20
TORSDOF 14
ENDMDL
MODEL 6
REMARK VINA RESULT:      -8.1     10.319     12.570
REMARK  Name = 64727
REMARK  14 active torsions:
REMARK  status: ('A' for Active; 'I' for Inactive)
REMARK    1  A    between atoms: C_2  and  C_20
REMARK    2  A    between atoms: C_3  and  O_13
REMARK    3  A    between atoms: O_13  and  C_15
REMARK    4  A    between atoms: C_15  and  C_16
REMARK    5  A    between atoms: C_16  and  C_18
REMARK    6  A    between atoms: C_20  and  C_21
REMARK    7  A    between atoms: C_21  and  C_22
REMARK    8  A    between atoms: C_22  and  O_23
REMARK    9  A    between atoms: C_22  and  C_25
REMARK   10  A    between atoms: C_25  and  C_26
REMARK   11  A    between atoms: C_26  and  O_27
REMARK   12  A    between atoms: C_26  and  C_29
REMARK   13  A    between atoms: C_29  and  C_31
REMARK   14  A    between atoms: C_31  and  O_32
REMARK                            x       y       z     vdW  Elec       q    Type
REMARK                         _______ _______ _______ _____ _____    ______ ____
ROOT
ATOM      1  C   UNL     1      34.559 -22.878 -15.629  0.00  0.00    +0.062 C 
ATOM      2  C   UNL     1      33.403 -23.896 -15.852  0.00  0.00    +0.012 C 
ATOM      3  C   UNL     1      35.499 -23.264 -14.463  0.00  0.00    +0.173 C 
ATOM      4  C   UNL     1      32.477 -23.451 -17.022  0.00  0.00    +0.022 C 
ATOM      5  C   UNL     1      35.331 -22.645 -16.923  0.00  0.00    -0.024 C 
ATOM      6  C   UNL     1      36.723 -22.344 -14.408  0.00  0.00    +0.048 C 
ATOM      7  C   UNL     1      37.529 -22.320 -15.719  0.00  0.00    +0.025 C 
ATOM      8  C   UNL     1      36.655 -22.399 -16.943  0.00  0.00    -0.030 C 
ATOM      9  C   UNL     1      33.286 -23.036 -18.224  0.00  0.00    -0.027 C 
ATOM     10  C   UNL     1      34.578 -22.690 -18.165  0.00  0.00    -0.009 C 
ATOM     11  C   UNL     1      31.498 -22.327 -16.667  0.00  0.00    +0.005 C 
ATOM     12  C   UNL     1      38.590 -23.422 -15.765  0.00  0.00    +0.005 C 
ENDROOT
BRANCH   3  13
ATOM     13  O   UNL     1      35.907 -24.622 -14.581  0.00  0.00    -0.452 OA
BRANCH  13  15
ATOM     14  O   UNL     1      35.434 -25.117 -12.378  0.00  0.00    -0.250 OA
ATOM     15  C   UNL     1      36.078 -25.299 -13.403  0.00  0.00    +0.316 C 
BRANCH  15  16
ATOM     16  C   UNL     1      37.214 -26.297 -13.541  0.00  0.00    +0.099 C 
ATOM     17  C   UNL     1      37.215 -26.828 -14.972  0.00  0.00    +0.012 C 
BRANCH  16  18
ATOM     18  C   UNL     1      38.567 -25.659 -13.193  0.00  0.00    +0.011 C 
ATOM     19  C   UNL     1      38.451 -24.603 -12.100  0.00  0.00    +0.001 C 
ENDBRANCH  16  18
ENDBRANCH  15  16
ENDBRANCH  13  15
ENDBRANCH   3  13
BRANCH   2  20
ATOM     20  C   UNL     1      32.603 -24.180 -14.575  0.00  0.00    +0.003 C 
BRANCH  20  21
ATOM     21  C   UNL     1      31.456 -25.150 -14.854  0.00  0.00    +0.029 C 
BRANCH  21  22
ATOM     22  C   UNL     1      30.180 -24.844 -14.059  0.00  0.00    +0.113 C 
BRANCH  22  23
ATOM     23  O   UNL     1      30.318 -23.546 -13.476  0.00  0.00    -0.384 OA
ATOM     24  H   UNL     1      30.585 -22.911 -14.159  0.00  0.00    +0.210 HD
ENDBRANCH  22  23
BRANCH  22  25
ATOM     25  C   UNL     1      28.874 -24.879 -14.868  0.00  0.00    +0.059 C 
BRANCH  25  26
ATOM     26  C   UNL     1      28.730 -23.776 -15.922  0.00  0.00    +0.124 C 
BRANCH  26  27
ATOM     27  O   UNL     1      28.035 -24.285 -17.057  0.00  0.00    -0.384 OA
ATOM     28  H   UNL     1      27.704 -23.547 -17.592  0.00  0.00    +0.210 HD
ENDBRANCH  26  27
BRANCH  26  29
ATOM     29  C   UNL     1      27.927 -22.600 -15.362  0.00  0.00    +0.139 C 
BRANCH  29  31
ATOM     30  O   UNL     1      27.283 -21.667 -17.497  0.00  0.00    -0.250 OA
ATOM     31  C   UNL     1      26.954 -22.070 -16.388  0.00  0.00    +0.316 C 
BRANCH  31  32
ATOM     32  O   UNL     1      25.670 -22.104 -15.956  0.00  0.00    -0.480 OA
ATOM     33  H   UNL     1      25.150 -21.324 -15.967  0.00  0.00    +0.295 HD
ENDBRANCH  31  32
ENDBRANCH  29  31
ENDBRANCH  26  29
ENDBRANCH  25  26
ENDBRANCH  22  25
ENDBRANCH  21  22
ENDBRANCH  20  21
ENDBRANCH   2  20
TORSDOF 14
ENDMDL
MODEL 7
REMARK VINA RESULT:      -8.0      2.118      8.085
REMARK  Name = 64727
REMARK  14 active torsions:
REMARK  status: ('A' for Active; 'I' for Inactive)
REMARK    1  A    between atoms: C_2  and  C_20
REMARK    2  A    between atoms: C_3  and  O_13
REMARK    3  A    between atoms: O_13  and  C_15
REMARK    4  A    between atoms: C_15  and  C_16
REMARK    5  A    between atoms: C_16  and  C_18
REMARK    6  A    between atoms: C_20  and  C_21
REMARK    7  A    between atoms: C_21  and  C_22
REMARK    8  A    between atoms: C_22  and  O_23
REMARK    9  A    between atoms: C_22  and  C_25
REMARK   10  A    between atoms: C_25  and  C_26
REMARK   11  A    between atoms: C_26  and  O_27
REMARK   12  A    between atoms: C_26  and  C_29
REMARK   13  A    between atoms: C_29  and  C_31
REMARK   14  A    between atoms: C_31  and  O_32
REMARK                            x       y       z     vdW  Elec       q    Type
REMARK                         _______ _______ _______ _____ _____    ______ ____
ROOT
ATOM      1  C   UNL     1      32.764  -9.569 -23.943  0.00  0.00    +0.062 C 
ATOM      2  C   UNL     1      33.661 -10.828 -23.762  0.00  0.00    +0.012 C 
ATOM      3  C   UNL     1      31.539  -9.548 -22.999  0.00  0.00    +0.173 C 
ATOM      4  C   UNL     1      34.866 -10.809 -24.748  0.00  0.00    +0.022 C 
ATOM      5  C   UNL     1      33.591  -8.293 -23.824  0.00  0.00    -0.024 C 
ATOM      6  C   UNL     1      30.801  -8.208 -23.077  0.00  0.00    +0.048 C 
ATOM      7  C   UNL     1      31.698  -6.996 -22.766  0.00  0.00    +0.025 C 
ATOM      8  C   UNL     1      33.099  -7.157 -23.295  0.00  0.00    -0.030 C 
ATOM      9  C   UNL     1      35.542  -9.461 -24.750  0.00  0.00    -0.027 C 
ATOM     10  C   UNL     1      34.958  -8.338 -24.314  0.00  0.00    -0.009 C 
ATOM     11  C   UNL     1      34.516 -11.193 -26.189  0.00  0.00    +0.005 C 
ATOM     12  C   UNL     1      31.739  -6.676 -21.270  0.00  0.00    +0.005 C 
ENDROOT
BRANCH   3  13
ATOM     13  O   UNL     1      31.939  -9.815 -21.659  0.00  0.00    -0.452 OA
BRANCH  13  15
ATOM     14  O   UNL     1      30.196 -11.302 -21.389  0.00  0.00    -0.250 OA
ATOM     15  C   UNL     1      31.260 -10.819 -21.023  0.00  0.00    +0.316 C 
BRANCH  15  16
ATOM     16  C   UNL     1      32.009 -11.233 -19.768  0.00  0.00    +0.099 C 
ATOM     17  C   UNL     1      31.429 -10.460 -18.586  0.00  0.00    +0.012 C 
BRANCH  16  18
ATOM     18  C   UNL     1      31.915 -12.747 -19.532  0.00  0.00    +0.011 C 
ATOM     19  C   UNL     1      32.642 -13.552 -20.603  0.00  0.00    +0.001 C 
ENDBRANCH  16  18
ENDBRANCH  15  16
ENDBRANCH  13  15
ENDBRANCH   3  13
BRANCH   2  20
ATOM     20  C   UNL     1      32.874 -12.140 -23.857  0.00  0.00    +0.003 C 
BRANCH  20  21
ATOM     21  C   UNL     1      33.804 -13.345 -23.721  0.00  0.00    +0.029 C 
BRANCH  21  22
ATOM     22  C   UNL     1      33.220 -14.644 -24.291  0.00  0.00    +0.113 C 
BRANCH  22  23
ATOM     23  O   UNL     1      32.853 -14.409 -25.653  0.00  0.00    -0.384 OA
ATOM     24  H   UNL     1      32.241 -15.101 -25.947  0.00  0.00    +0.210 HD
ENDBRANCH  22  23
BRANCH  22  25
ATOM     25  C   UNL     1      34.152 -15.865 -24.240  0.00  0.00    +0.059 C 
BRANCH  25  26
ATOM     26  C   UNL     1      34.778 -16.150 -22.871  0.00  0.00    +0.124 C 
BRANCH  26  27
ATOM     27  O   UNL     1      33.749 -16.379 -21.912  0.00  0.00    -0.384 OA
ATOM     28  H   UNL     1      33.382 -15.529 -21.623  0.00  0.00    +0.210 HD
ENDBRANCH  26  27
BRANCH  26  29
ATOM     29  C   UNL     1      35.657 -17.400 -22.932  0.00  0.00    +0.139 C 
BRANCH  29  31
ATOM     30  O   UNL     1      35.745 -18.277 -20.681  0.00  0.00    -0.250 OA
ATOM     31  C   UNL     1      35.309 -18.363 -21.822  0.00  0.00    +0.316 C 
BRANCH  31  32
ATOM     32  O   UNL     1      34.444 -19.329 -22.220  0.00  0.00    -0.480 OA
ATOM     33  H   UNL     1      34.700 -20.230 -22.187  0.00  0.00    +0.295 HD
ENDBRANCH  31  32
ENDBRANCH  29  31
ENDBRANCH  26  29
ENDBRANCH  25  26
ENDBRANCH  22  25
ENDBRANCH  21  22
ENDBRANCH  20  21
ENDBRANCH   2  20
TORSDOF 14
ENDMDL
MODEL 8
REMARK VINA RESULT:      -8.0      3.454      7.548
REMARK  Name = 64727
REMARK  14 active torsions:
REMARK  status: ('A' for Active; 'I' for Inactive)
REMARK    1  A    between atoms: C_2  and  C_20
REMARK    2  A    between atoms: C_3  and  O_13
REMARK    3  A    between atoms: O_13  and  C_15
REMARK    4  A    between atoms: C_15  and  C_16
REMARK    5  A    between atoms: C_16  and  C_18
REMARK    6  A    between atoms: C_20  and  C_21
REMARK    7  A    between atoms: C_21  and  C_22
REMARK    8  A    between atoms: C_22  and  O_23
REMARK    9  A    between atoms: C_22  and  C_25
REMARK   10  A    between atoms: C_25  and  C_26
REMARK   11  A    between atoms: C_26  and  O_27
REMARK   12  A    between atoms: C_26  and  C_29
REMARK   13  A    between atoms: C_29  and  C_31
REMARK   14  A    between atoms: C_31  and  O_32
REMARK                            x       y       z     vdW  Elec       q    Type
REMARK                         _______ _______ _______ _____ _____    ______ ____
ROOT
ATOM      1  C   UNL     1      31.754  -9.280 -21.842  0.00  0.00    +0.062 C 
ATOM      2  C   UNL     1      32.821  -8.250 -22.316  0.00  0.00    +0.012 C 
ATOM      3  C   UNL     1      31.796 -10.611 -22.628  0.00  0.00    +0.173 C 
ATOM      4  C   UNL     1      32.722  -6.923 -21.507  0.00  0.00    +0.022 C 
ATOM      5  C   UNL     1      31.854  -9.508 -20.337  0.00  0.00    -0.024 C 
ATOM      6  C   UNL     1      30.867 -11.656 -22.002  0.00  0.00    +0.048 C 
ATOM      7  C   UNL     1      31.173 -11.935 -20.519  0.00  0.00    +0.025 C 
ATOM      8  C   UNL     1      31.592 -10.699 -19.767  0.00  0.00    -0.030 C 
ATOM      9  C   UNL     1      32.621  -7.197 -20.029  0.00  0.00    -0.027 C 
ATOM     10  C   UNL     1      32.243  -8.375 -19.516  0.00  0.00    -0.009 C 
ATOM     11  C   UNL     1      31.566  -6.007 -21.925  0.00  0.00    +0.005 C 
ATOM     12  C   UNL     1      32.224 -13.034 -20.343  0.00  0.00    +0.005 C 
ENDROOT
BRANCH   3  13
ATOM     13  O   UNL     1      33.128 -11.109 -22.692  0.00  0.00    -0.452 OA
BRANCH  13  15
ATOM     14  O   UNL     1      33.965 -11.098 -24.842  0.00  0.00    -0.250 OA
ATOM     15  C   UNL     1      33.492 -11.688 -23.879  0.00  0.00    +0.316 C 
BRANCH  15  16
ATOM     16  C   UNL     1      33.195 -13.176 -23.839  0.00  0.00    +0.099 C 
ATOM     17  C   UNL     1      33.164 -13.698 -25.273  0.00  0.00    +0.012 C 
BRANCH  16  18
ATOM     18  C   UNL     1      34.235 -13.934 -23.001  0.00  0.00    +0.011 C 
ATOM     19  C   UNL     1      34.513 -15.332 -23.538  0.00  0.00    +0.001 C 
ENDBRANCH  16  18
ENDBRANCH  15  16
ENDBRANCH  13  15
ENDBRANCH   3  13
BRANCH   2  20
ATOM     20  C   UNL     1      32.774  -7.995 -23.827  0.00  0.00    +0.003 C 
BRANCH  20  21
ATOM     21  C   UNL     1      34.074  -7.355 -24.313  0.00  0.00    +0.029 C 
BRANCH  21  22
ATOM     22  C   UNL     1      33.885  -5.967 -24.937  0.00  0.00    +0.113 C 
BRANCH  22  23
ATOM     23  O   UNL     1      34.582  -5.940 -26.185  0.00  0.00    -0.384 OA
ATOM     24  H   UNL     1      35.016  -5.079 -26.294  0.00  0.00    +0.210 HD
ENDBRANCH  22  23
BRANCH  22  25
ATOM     25  C   UNL     1      32.427  -5.547 -25.184  0.00  0.00    +0.059 C 
BRANCH  25  26
ATOM     26  C   UNL     1      32.219  -4.057 -25.476  0.00  0.00    +0.124 C 
BRANCH  26  27
ATOM     27  O   UNL     1      32.087  -3.858 -26.881  0.00  0.00    -0.384 OA
ATOM     28  H   UNL     1      31.232  -3.439 -27.069  0.00  0.00    +0.210 HD
ENDBRANCH  26  27
BRANCH  26  29
ATOM     29  C   UNL     1      30.943  -3.551 -24.802  0.00  0.00    +0.139 C 
BRANCH  29  31
ATOM     30  O   UNL     1      32.183  -1.856 -23.605  0.00  0.00    -0.250 OA
ATOM     31  C   UNL     1      31.266  -2.667 -23.621  0.00  0.00    +0.316 C 
BRANCH  31  32
ATOM     32  O   UNL     1      30.417  -2.855 -22.581  0.00  0.00    -0.480 OA
ATOM     33  H   UNL     1      30.583  -3.534 -21.957  0.00  0.00    +0.295 HD
ENDBRANCH  31  32
ENDBRANCH  29  31
ENDBRANCH  26  29
ENDBRANCH  25  26
ENDBRANCH  22  25
ENDBRANCH  21  22
ENDBRANCH  20  21
ENDBRANCH   2  20
TORSDOF 14
ENDMDL
MODEL 9
REMARK VINA RESULT:      -7.9      2.097      7.356
REMARK  Name = 64727
REMARK  14 active torsions:
REMARK  status: ('A' for Active; 'I' for Inactive)
REMARK    1  A    between atoms: C_2  and  C_20
REMARK    2  A    between atoms: C_3  and  O_13
REMARK    3  A    between atoms: O_13  and  C_15
REMARK    4  A    between atoms: C_15  and  C_16
REMARK    5  A    between atoms: C_16  and  C_18
REMARK    6  A    between atoms: C_20  and  C_21
REMARK    7  A    between atoms: C_21  and  C_22
REMARK    8  A    between atoms: C_22  and  O_23
REMARK    9  A    between atoms: C_22  and  C_25
REMARK   10  A    between atoms: C_25  and  C_26
REMARK   11  A    between atoms: C_26  and  O_27
REMARK   12  A    between atoms: C_26  and  C_29
REMARK   13  A    between atoms: C_29  and  C_31
REMARK   14  A    between atoms: C_31  and  O_32
REMARK                            x       y       z     vdW  Elec       q    Type
REMARK                         _______ _______ _______ _____ _____    ______ ____
ROOT
ATOM      1  C   UNL     1      32.722 -11.238 -23.741  0.00  0.00    +0.062 C 
ATOM      2  C   UNL     1      33.755 -12.321 -24.172  0.00  0.00    +0.012 C 
ATOM      3  C   UNL     1      31.945 -11.611 -22.457  0.00  0.00    +0.173 C 
ATOM      4  C   UNL     1      34.494 -11.906 -25.479  0.00  0.00    +0.022 C 
ATOM      5  C   UNL     1      33.389  -9.872 -23.621  0.00  0.00    -0.024 C 
ATOM      6  C   UNL     1      31.088 -10.439 -21.966  0.00  0.00    +0.048 C 
ATOM      7  C   UNL     1      31.898  -9.155 -21.712  0.00  0.00    +0.025 C 
ATOM      8  C   UNL     1      33.008  -8.958 -22.710  0.00  0.00    -0.030 C 
ATOM      9  C   UNL     1      34.967 -10.477 -25.401  0.00  0.00    -0.027 C 
ATOM     10  C   UNL     1      34.469  -9.575 -24.546  0.00  0.00    -0.009 C 
ATOM     11  C   UNL     1      33.675 -12.092 -26.760  0.00  0.00    +0.005 C 
ATOM     12  C   UNL     1      32.460  -9.098 -20.289  0.00  0.00    +0.005 C 
ENDROOT
BRANCH   3  13
ATOM     13  O   UNL     1      32.843 -12.028 -21.435  0.00  0.00    -0.452 OA
BRANCH  13  15
ATOM     14  O   UNL     1      31.700 -12.665 -19.535  0.00  0.00    -0.250 OA
ATOM     15  C   UNL     1      32.347 -12.936 -20.538  0.00  0.00    +0.316 C 
BRANCH  15  16
ATOM     16  C   UNL     1      32.744 -14.342 -20.955  0.00  0.00    +0.099 C 
ATOM     17  C   UNL     1      34.243 -14.506 -20.721  0.00  0.00    +0.012 C 
BRANCH  16  18
ATOM     18  C   UNL     1      31.949 -15.402 -20.180  0.00  0.00    +0.011 C 
ATOM     19  C   UNL     1      32.098 -16.796 -20.777  0.00  0.00    +0.001 C 
ENDBRANCH  16  18
ENDBRANCH  15  16
ENDBRANCH  13  15
ENDBRANCH   3  13
BRANCH   2  20
ATOM     20  C   UNL     1      33.139 -13.719 -24.291  0.00  0.00    +0.003 C 
BRANCH  20  21
ATOM     21  C   UNL     1      34.218 -14.799 -24.220  0.00  0.00    +0.029 C 
BRANCH  21  22
ATOM     22  C   UNL     1      33.871 -16.073 -25.001  0.00  0.00    +0.113 C 
BRANCH  22  23
ATOM     23  O   UNL     1      33.747 -15.729 -26.383  0.00  0.00    -0.384 OA
ATOM     24  H   UNL     1      33.174 -14.951 -26.473  0.00  0.00    +0.210 HD
ENDBRANCH  22  23
BRANCH  22  25
ATOM     25  C   UNL     1      34.883 -17.222 -24.873  0.00  0.00    +0.059 C 
BRANCH  25  26
ATOM     26  C   UNL     1      34.595 -18.221 -23.746  0.00  0.00    +0.124 C 
BRANCH  26  27
ATOM     27  O   UNL     1      35.013 -19.524 -24.143  0.00  0.00    -0.384 OA
ATOM     28  H   UNL     1      35.780 -19.793 -23.613  0.00  0.00    +0.210 HD
ENDBRANCH  26  27
BRANCH  26  29
ATOM     29  C   UNL     1      35.364 -17.840 -22.481  0.00  0.00    +0.139 C 
BRANCH  29  31
ATOM     30  O   UNL     1      34.226 -19.627 -21.317  0.00  0.00    -0.250 OA
ATOM     31  C   UNL     1      35.200 -18.890 -21.408  0.00  0.00    +0.316 C 
BRANCH  31  32
ATOM     32  O   UNL     1      36.257 -18.942 -20.561  0.00  0.00    -0.480 OA
ATOM     33  H   UNL     1      36.146 -19.269 -19.690  0.00  0.00    +0.295 HD
ENDBRANCH  31  32
ENDBRANCH  29  31
ENDBRANCH  26  29
ENDBRANCH  25  26
ENDBRANCH  22  25
ENDBRANCH  21  22
ENDBRANCH  20  21
ENDBRANCH   2  20
TORSDOF 14
ENDMDL
