MODEL 1
REMARK VINA RESULT:      -9.4      0.000      0.000
REMARK  Name = 11705956
REMARK  16 active torsions:
REMARK  status: ('A' for Active; 'I' for Inactive)
REMARK    1  A    between atoms: P_1  and  O_3
REMARK    2  A    between atoms: P_1  and  C_5
REMARK    3  A    between atoms: P_1  and  C_23
REMARK    4  A    between atoms: C_5  and  C_6
REMARK    5  A    between atoms: C_5  and  N_9
REMARK    6  A    between atoms: N_9  and  S_11
REMARK    7  A    between atoms: S_11  and  C_14
REMARK    8  A    between atoms: C_14  and  C_15
REMARK    9  A    between atoms: C_15  and  C_16
REMARK   10  A    between atoms: C_16  and  C_17
REMARK   11  A    between atoms: C_23  and  C_24
REMARK   12  A    between atoms: C_24  and  C_25
REMARK   13  A    between atoms: C_24  and  C_37
REMARK   14  A    between atoms: C_28  and  C_31
REMARK   15  A    between atoms: C_31  and  N_32
REMARK   16  A    between atoms: C_37  and  O_38
REMARK                            x       y       z     vdW  Elec       q    Type
REMARK                         _______ _______ _______ _____ _____    ______ ____
ROOT
ATOM      1  P   UNL     1      33.015 -13.146 -24.107  0.00  0.00    +0.236 P 
ATOM      2  O   UNL     1      33.011 -13.726 -25.491  0.00  0.00    -0.288 OA
ENDROOT
BRANCH   1   3
ATOM      3  O   UNL     1      31.650 -13.413 -23.283  0.00  0.00    -0.342 OA
ATOM      4  H   UNL     1      31.867 -13.751 -22.399  0.00  0.00    +0.218 HD
ENDBRANCH   1   3
BRANCH   1   5
ATOM      5  C   UNL     1      33.240 -11.370 -24.021  0.00  0.00    +0.152 C 
BRANCH   5   6
ATOM      6  C   UNL     1      34.609 -10.793 -24.437  0.00  0.00    +0.025 C 
ATOM      7  C   UNL     1      34.935 -10.988 -25.919  0.00  0.00    +0.002 C 
ATOM      8  C   UNL     1      34.740  -9.314 -24.068  0.00  0.00    +0.002 C 
ENDBRANCH   5   6
BRANCH   5   9
ATOM      9  N   UNL     1      32.984 -11.004 -22.606  0.00  0.00    -0.175 NA
ATOM     10  H   UNL     1      33.017 -11.875 -22.074  0.00  0.00    +0.149 HD
BRANCH   9  11
ATOM     11  S   UNL     1      31.558 -10.212 -22.138  0.00  0.00    +0.041 S 
ATOM     12  O   UNL     1      30.629 -11.161 -21.556  0.00  0.00    -0.157 OA
ATOM     13  O   UNL     1      31.144  -9.335 -23.218  0.00  0.00    -0.157 OA
BRANCH  11  14
ATOM     14  C   UNL     1      32.164  -9.174 -20.829  0.00  0.00    +0.169 C 
BRANCH  14  15
ATOM     15  C   UNL     1      32.840  -7.906 -21.339  0.00  0.00    +0.032 C 
BRANCH  15  16
ATOM     16  C   UNL     1      31.961  -6.649 -21.315  0.00  0.00    +0.028 C 
BRANCH  16  17
ATOM     17  C   UNL     1      31.940  -5.891 -22.619  0.00  0.00    -0.022 C 
ATOM     18  C   UNL     1      31.189  -4.721 -22.733  0.00  0.00    -0.004 C 
ATOM     19  C   UNL     1      32.671  -6.360 -23.710  0.00  0.00    -0.004 C 
ATOM     20  C   UNL     1      31.169  -4.019 -23.938  0.00  0.00    -0.000 C 
ATOM     21  C   UNL     1      32.652  -5.659 -24.916  0.00  0.00    -0.000 C 
ATOM     22  C   UNL     1      31.901  -4.488 -25.030  0.00  0.00    -0.000 C 
ENDBRANCH  16  17
ENDBRANCH  15  16
ENDBRANCH  14  15
ENDBRANCH  11  14
ENDBRANCH   9  11
ENDBRANCH   5   9
ENDBRANCH   1   5
BRANCH   1  23
ATOM     23  C   UNL     1      34.239 -13.888 -23.045  0.00  0.00    +0.104 C 
BRANCH  23  24
ATOM     24  C   UNL     1      33.695 -15.072 -22.234  0.00  0.00    +0.131 C 
BRANCH  24  25
ATOM     25  C   UNL     1      34.247 -16.410 -22.701  0.00  0.00    -0.012 C 
ATOM     26  C   UNL     1      34.499 -17.422 -21.776  0.00  0.00    -0.010 C 
ATOM     27  C   UNL     1      34.499 -16.626 -24.056  0.00  0.00    -0.004 C 
ATOM     28  C   UNL     1      35.003 -18.650 -22.206  0.00  0.00    -0.045 C 
ATOM     29  C   UNL     1      35.003 -17.854 -24.486  0.00  0.00    -0.001 C 
ATOM     30  C   UNL     1      35.256 -18.866 -23.560  0.00  0.00    -0.006 C 
BRANCH  28  31
ATOM     31  C   UNL     1      35.274 -19.733 -21.215  0.00  0.00    -0.059 C 
BRANCH  31  32
ATOM     32  N   UNL     1      36.425 -19.433 -20.361  0.00  0.00    +0.383 N 
ATOM     33  H   UNL     1      36.102 -19.229 -19.416  0.00  0.00    -0.089 HD
ATOM     34  H   UNL     1      36.922 -18.625 -20.734  0.00  0.00    -0.089 HD
ATOM     35  H   UNL     1      37.051 -20.239 -20.340  0.00  0.00    -0.089 HD
ENDBRANCH  31  32
ENDBRANCH  28  31
ENDBRANCH  24  25
BRANCH  24  37
ATOM     36  O   UNL     1      35.035 -14.682 -20.228  0.00  0.00    -0.250 OA
ATOM     37  C   UNL     1      33.940 -14.851 -20.749  0.00  0.00    +0.318 C 
BRANCH  37  38
ATOM     38  O   UNL     1      32.785 -14.858 -20.032  0.00  0.00    -0.480 OA
ATOM     39  H   UNL     1      32.321 -14.057 -19.884  0.00  0.00    +0.295 HD
ENDBRANCH  37  38
ENDBRANCH  24  37
ENDBRANCH  23  24
ENDBRANCH   1  23
TORSDOF 16
ENDMDL
MODEL 2
REMARK VINA RESULT:      -9.4      1.963      3.308
REMARK  Name = 11705956
REMARK  16 active torsions:
REMARK  status: ('A' for Active; 'I' for Inactive)
REMARK    1  A    between atoms: P_1  and  O_3
REMARK    2  A    between atoms: P_1  and  C_5
REMARK    3  A    between atoms: P_1  and  C_23
REMARK    4  A    between atoms: C_5  and  C_6
REMARK    5  A    between atoms: C_5  and  N_9
REMARK    6  A    between atoms: N_9  and  S_11
REMARK    7  A    between atoms: S_11  and  C_14
REMARK    8  A    between atoms: C_14  and  C_15
REMARK    9  A    between atoms: C_15  and  C_16
REMARK   10  A    between atoms: C_16  and  C_17
REMARK   11  A    between atoms: C_23  and  C_24
REMARK   12  A    between atoms: C_24  and  C_25
REMARK   13  A    between atoms: C_24  and  C_37
REMARK   14  A    between atoms: C_28  and  C_31
REMARK   15  A    between atoms: C_31  and  N_32
REMARK   16  A    between atoms: C_37  and  O_38
REMARK                            x       y       z     vdW  Elec       q    Type
REMARK                         _______ _______ _______ _____ _____    ______ ____
ROOT
ATOM      1  P   UNL     1      33.207 -14.795 -21.127  0.00  0.00    +0.236 P 
ATOM      2  O   UNL     1      32.411 -14.816 -19.855  0.00  0.00    -0.288 OA
ENDROOT
BRANCH   1   3
ATOM      3  O   UNL     1      34.782 -14.500 -20.909  0.00  0.00    -0.342 OA
ATOM      4  H   UNL     1      34.895 -13.871 -20.178  0.00  0.00    +0.218 HD
ENDBRANCH   1   3
BRANCH   1   5
ATOM      5  C   UNL     1      32.694 -13.571 -22.332  0.00  0.00    +0.152 C 
BRANCH   5   6
ATOM      6  C   UNL     1      33.453 -13.512 -23.672  0.00  0.00    +0.025 C 
ATOM      7  C   UNL     1      32.736 -14.226 -24.819  0.00  0.00    +0.002 C 
ATOM      8  C   UNL     1      33.777 -12.074 -24.081  0.00  0.00    +0.002 C 
ENDBRANCH   5   6
BRANCH   5   9
ATOM      9  N   UNL     1      32.833 -12.260 -21.651  0.00  0.00    -0.175 NA
ATOM     10  H   UNL     1      33.448 -12.415 -20.852  0.00  0.00    +0.149 HD
BRANCH   9  11
ATOM     11  S   UNL     1      31.483 -11.419 -21.060  0.00  0.00    +0.041 S 
ATOM     12  O   UNL     1      31.495 -11.415 -19.610  0.00  0.00    -0.157 OA
ATOM     13  O   UNL     1      30.310 -11.859 -21.791  0.00  0.00    -0.157 OA
BRANCH  11  14
ATOM     14  C   UNL     1      31.848  -9.768 -21.609  0.00  0.00    +0.169 C 
BRANCH  14  15
ATOM     15  C   UNL     1      32.296  -8.849 -20.479  0.00  0.00    +0.032 C 
BRANCH  15  16
ATOM     16  C   UNL     1      32.414  -7.367 -20.857  0.00  0.00    +0.028 C 
BRANCH  16  17
ATOM     17  C   UNL     1      33.005  -7.129 -22.225  0.00  0.00    -0.022 C 
ATOM     18  C   UNL     1      34.259  -7.651 -22.543  0.00  0.00    -0.004 C 
ATOM     19  C   UNL     1      32.298  -6.387 -23.171  0.00  0.00    -0.004 C 
ATOM     20  C   UNL     1      34.806  -7.432 -23.807  0.00  0.00    -0.000 C 
ATOM     21  C   UNL     1      32.844  -6.168 -24.435  0.00  0.00    -0.000 C 
ATOM     22  C   UNL     1      34.098  -6.690 -24.753  0.00  0.00    -0.000 C 
ENDBRANCH  16  17
ENDBRANCH  15  16
ENDBRANCH  14  15
ENDBRANCH  11  14
ENDBRANCH   9  11
ENDBRANCH   5   9
ENDBRANCH   1   5
BRANCH   1  23
ATOM     23  C   UNL     1      33.239 -16.374 -21.955  0.00  0.00    +0.104 C 
BRANCH  23  24
ATOM     24  C   UNL     1      34.659 -16.918 -22.160  0.00  0.00    +0.131 C 
BRANCH  24  25
ATOM     25  C   UNL     1      34.897 -18.233 -21.434  0.00  0.00    -0.012 C 
ATOM     26  C   UNL     1      33.813 -18.996 -20.999  0.00  0.00    -0.010 C 
ATOM     27  C   UNL     1      36.199 -18.677 -21.205  0.00  0.00    -0.004 C 
ATOM     28  C   UNL     1      34.032 -20.203 -20.335  0.00  0.00    -0.045 C 
ATOM     29  C   UNL     1      36.418 -19.885 -20.540  0.00  0.00    -0.001 C 
ATOM     30  C   UNL     1      35.335 -20.648 -20.105  0.00  0.00    -0.006 C 
BRANCH  28  31
ATOM     31  C   UNL     1      32.873 -21.019 -19.869  0.00  0.00    -0.059 C 
BRANCH  31  32
ATOM     32  N   UNL     1      33.248 -22.403 -19.572  0.00  0.00    +0.383 N 
ATOM     33  H   UNL     1      34.230 -22.546 -19.806  0.00  0.00    -0.089 HD
ATOM     34  H   UNL     1      32.670 -23.037 -20.124  0.00  0.00    -0.089 HD
ATOM     35  H   UNL     1      33.104 -22.588 -18.579  0.00  0.00    -0.089 HD
ENDBRANCH  31  32
ENDBRANCH  28  31
ENDBRANCH  24  25
BRANCH  24  37
ATOM     36  O   UNL     1      34.595 -17.934 -24.382  0.00  0.00    -0.250 OA
ATOM     37  C   UNL     1      34.971 -17.032 -23.645  0.00  0.00    +0.318 C 
BRANCH  37  38
ATOM     38  O   UNL     1      35.733 -15.997 -24.089  0.00  0.00    -0.480 OA
ATOM     39  H   UNL     1      35.325 -15.247 -24.476  0.00  0.00    +0.295 HD
ENDBRANCH  37  38
ENDBRANCH  24  37
ENDBRANCH  23  24
ENDBRANCH   1  23
TORSDOF 16
ENDMDL
MODEL 3
REMARK VINA RESULT:      -9.4      1.935      3.162
REMARK  Name = 11705956
REMARK  16 active torsions:
REMARK  status: ('A' for Active; 'I' for Inactive)
REMARK    1  A    between atoms: P_1  and  O_3
REMARK    2  A    between atoms: P_1  and  C_5
REMARK    3  A    between atoms: P_1  and  C_23
REMARK    4  A    between atoms: C_5  and  C_6
REMARK    5  A    between atoms: C_5  and  N_9
REMARK    6  A    between atoms: N_9  and  S_11
REMARK    7  A    between atoms: S_11  and  C_14
REMARK    8  A    between atoms: C_14  and  C_15
REMARK    9  A    between atoms: C_15  and  C_16
REMARK   10  A    between atoms: C_16  and  C_17
REMARK   11  A    between atoms: C_23  and  C_24
REMARK   12  A    between atoms: C_24  and  C_25
REMARK   13  A    between atoms: C_24  and  C_37
REMARK   14  A    between atoms: C_28  and  C_31
REMARK   15  A    between atoms: C_31  and  N_32
REMARK   16  A    between atoms: C_37  and  O_38
REMARK                            x       y       z     vdW  Elec       q    Type
REMARK                         _______ _______ _______ _____ _____    ______ ____
ROOT
ATOM      1  P   UNL     1      33.252 -14.782 -21.246  0.00  0.00    +0.236 P 
ATOM      2  O   UNL     1      32.509 -14.712 -19.944  0.00  0.00    -0.288 OA
ENDROOT
BRANCH   1   3
ATOM      3  O   UNL     1      34.847 -14.557 -21.102  0.00  0.00    -0.342 OA
ATOM      4  H   UNL     1      35.091 -14.561 -20.162  0.00  0.00    +0.218 HD
ENDBRANCH   1   3
BRANCH   1   5
ATOM      5  C   UNL     1      32.749 -13.584 -22.480  0.00  0.00    +0.152 C 
BRANCH   5   6
ATOM      6  C   UNL     1      33.520 -13.552 -23.815  0.00  0.00    +0.025 C 
ATOM      7  C   UNL     1      32.825 -14.311 -24.947  0.00  0.00    +0.002 C 
ATOM      8  C   UNL     1      33.826 -12.122 -24.263  0.00  0.00    +0.002 C 
ENDBRANCH   5   6
BRANCH   5   9
ATOM      9  N   UNL     1      32.882 -12.258 -21.826  0.00  0.00    -0.175 NA
ATOM     10  H   UNL     1      33.493 -12.396 -21.020  0.00  0.00    +0.149 HD
BRANCH   9  11
ATOM     11  S   UNL     1      31.528 -11.407 -21.261  0.00  0.00    +0.041 S 
ATOM     12  O   UNL     1      31.433 -11.522 -19.819  0.00  0.00    -0.157 OA
ATOM     13  O   UNL     1      30.394 -11.731 -22.107  0.00  0.00    -0.157 OA
BRANCH  11  14
ATOM     14  C   UNL     1      31.998  -9.736 -21.641  0.00  0.00    +0.169 C 
BRANCH  14  15
ATOM     15  C   UNL     1      32.109  -8.852 -20.404  0.00  0.00    +0.032 C 
BRANCH  15  16
ATOM     16  C   UNL     1      32.914  -7.560 -20.600  0.00  0.00    +0.028 C 
BRANCH  16  17
ATOM     17  C   UNL     1      33.133  -7.189 -22.046  0.00  0.00    -0.022 C 
ATOM     18  C   UNL     1      32.193  -6.403 -22.714  0.00  0.00    -0.004 C 
ATOM     19  C   UNL     1      34.274  -7.631 -22.715  0.00  0.00    -0.004 C 
ATOM     20  C   UNL     1      32.395  -6.060 -24.051  0.00  0.00    -0.000 C 
ATOM     21  C   UNL     1      34.477  -7.287 -24.051  0.00  0.00    -0.000 C 
ATOM     22  C   UNL     1      33.537  -6.501 -24.719  0.00  0.00    -0.000 C 
ENDBRANCH  16  17
ENDBRANCH  15  16
ENDBRANCH  14  15
ENDBRANCH  11  14
ENDBRANCH   9  11
ENDBRANCH   5   9
ENDBRANCH   1   5
BRANCH   1  23
ATOM     23  C   UNL     1      33.173 -16.392 -22.006  0.00  0.00    +0.104 C 
BRANCH  23  24
ATOM     24  C   UNL     1      34.496 -17.166 -21.918  0.00  0.00    +0.131 C 
BRANCH  24  25
ATOM     25  C   UNL     1      34.345 -18.516 -21.233  0.00  0.00    -0.012 C 
ATOM     26  C   UNL     1      35.477 -19.251 -20.883  0.00  0.00    -0.010 C 
ATOM     27  C   UNL     1      33.074 -19.018 -20.955  0.00  0.00    -0.004 C 
ATOM     28  C   UNL     1      35.337 -20.487 -20.253  0.00  0.00    -0.045 C 
ATOM     29  C   UNL     1      32.934 -20.255 -20.325  0.00  0.00    -0.001 C 
ATOM     30  C   UNL     1      34.066 -20.990 -19.975  0.00  0.00    -0.006 C 
BRANCH  28  31
ATOM     31  C   UNL     1      36.548 -21.274 -19.878  0.00  0.00    -0.059 C 
BRANCH  31  32
ATOM     32  N   UNL     1      36.538 -21.678 -18.471  0.00  0.00    +0.383 N 
ATOM     33  H   UNL     1      35.627 -22.070 -18.236  0.00  0.00    -0.089 HD
ATOM     34  H   UNL     1      36.721 -20.865 -17.883  0.00  0.00    -0.089 HD
ATOM     35  H   UNL     1      37.261 -22.381 -18.314  0.00  0.00    -0.089 HD
ENDBRANCH  31  32
ENDBRANCH  28  31
ENDBRANCH  24  25
BRANCH  24  37
ATOM     36  O   UNL     1      35.027 -18.283 -24.025  0.00  0.00    -0.250 OA
ATOM     37  C   UNL     1      35.121 -17.302 -23.298  0.00  0.00    +0.318 C 
BRANCH  37  38
ATOM     38  O   UNL     1      35.816 -16.191 -23.658  0.00  0.00    -0.480 OA
ATOM     39  H   UNL     1      35.472 -15.340 -23.466  0.00  0.00    +0.295 HD
ENDBRANCH  37  38
ENDBRANCH  24  37
ENDBRANCH  23  24
ENDBRANCH   1  23
TORSDOF 16
ENDMDL
MODEL 4
REMARK VINA RESULT:      -9.3      2.733      9.878
REMARK  Name = 11705956
REMARK  16 active torsions:
REMARK  status: ('A' for Active; 'I' for Inactive)
REMARK    1  A    between atoms: P_1  and  O_3
REMARK    2  A    between atoms: P_1  and  C_5
REMARK    3  A    between atoms: P_1  and  C_23
REMARK    4  A    between atoms: C_5  and  C_6
REMARK    5  A    between atoms: C_5  and  N_9
REMARK    6  A    between atoms: N_9  and  S_11
REMARK    7  A    between atoms: S_11  and  C_14
REMARK    8  A    between atoms: C_14  and  C_15
REMARK    9  A    between atoms: C_15  and  C_16
REMARK   10  A    between atoms: C_16  and  C_17
REMARK   11  A    between atoms: C_23  and  C_24
REMARK   12  A    between atoms: C_24  and  C_25
REMARK   13  A    between atoms: C_24  and  C_37
REMARK   14  A    between atoms: C_28  and  C_31
REMARK   15  A    between atoms: C_31  and  N_32
REMARK   16  A    between atoms: C_37  and  O_38
REMARK                            x       y       z     vdW  Elec       q    Type
REMARK                         _______ _______ _______ _____ _____    ______ ____
ROOT
ATOM      1  P   UNL     1      32.670 -13.485 -22.928  0.00  0.00    +0.236 P 
ATOM      2  O   UNL     1      32.151 -12.884 -21.654  0.00  0.00    -0.288 OA
ENDROOT
BRANCH   1   3
ATOM      3  O   UNL     1      31.600 -13.475 -24.139  0.00  0.00    -0.342 OA
ATOM      4  H   UNL     1      32.063 -13.615 -24.981  0.00  0.00    +0.218 HD
ENDBRANCH   1   3
BRANCH   1   5
ATOM      5  C   UNL     1      33.187 -15.197 -22.812  0.00  0.00    +0.152 C 
BRANCH   5   6
ATOM      6  C   UNL     1      33.639 -15.726 -21.436  0.00  0.00    +0.025 C 
ATOM      7  C   UNL     1      34.681 -14.842 -20.748  0.00  0.00    +0.002 C 
ATOM      8  C   UNL     1      32.454 -15.955 -20.496  0.00  0.00    +0.002 C 
ENDBRANCH   5   6
BRANCH   5   9
ATOM      9  N   UNL     1      34.316 -15.337 -23.766  0.00  0.00    -0.175 NA
ATOM     10  H   UNL     1      34.476 -14.409 -24.159  0.00  0.00    +0.149 HD
BRANCH   9  11
ATOM     11  S   UNL     1      34.239 -16.407 -25.081  0.00  0.00    +0.041 S 
ATOM     12  O   UNL     1      35.521 -16.457 -25.757  0.00  0.00    -0.157 OA
ATOM     13  O   UNL     1      33.020 -16.139 -25.821  0.00  0.00    -0.157 OA
BRANCH  11  14
ATOM     14  C   UNL     1      34.008 -17.956 -24.241  0.00  0.00    +0.169 C 
BRANCH  14  15
ATOM     15  C   UNL     1      35.312 -18.557 -23.729  0.00  0.00    +0.032 C 
BRANCH  15  16
ATOM     16  C   UNL     1      35.599 -18.310 -22.242  0.00  0.00    +0.028 C 
BRANCH  16  17
ATOM     17  C   UNL     1      35.017 -19.356 -21.324  0.00  0.00    -0.022 C 
ATOM     18  C   UNL     1      35.860 -20.239 -20.649  0.00  0.00    -0.004 C 
ATOM     19  C   UNL     1      33.635 -19.440 -21.150  0.00  0.00    -0.004 C 
ATOM     20  C   UNL     1      35.322 -21.206 -19.800  0.00  0.00    -0.000 C 
ATOM     21  C   UNL     1      33.097 -20.407 -20.301  0.00  0.00    -0.000 C 
ATOM     22  C   UNL     1      33.941 -21.290 -19.626  0.00  0.00    -0.000 C 
ENDBRANCH  16  17
ENDBRANCH  15  16
ENDBRANCH  14  15
ENDBRANCH  11  14
ENDBRANCH   9  11
ENDBRANCH   5   9
ENDBRANCH   1   5
BRANCH   1  23
ATOM     23  C   UNL     1      34.028 -12.567 -23.628  0.00  0.00    +0.104 C 
BRANCH  23  24
ATOM     24  C   UNL     1      33.574 -11.421 -24.542  0.00  0.00    +0.131 C 
BRANCH  24  25
ATOM     25  C   UNL     1      33.742 -10.052 -23.899  0.00  0.00    -0.012 C 
ATOM     26  C   UNL     1      32.880  -9.649 -22.880  0.00  0.00    -0.010 C 
ATOM     27  C   UNL     1      34.759  -9.201 -24.329  0.00  0.00    -0.004 C 
ATOM     28  C   UNL     1      33.036  -8.396 -22.290  0.00  0.00    -0.045 C 
ATOM     29  C   UNL     1      34.915  -7.946 -23.739  0.00  0.00    -0.001 C 
ATOM     30  C   UNL     1      34.053  -7.543 -22.720  0.00  0.00    -0.006 C 
BRANCH  28  31
ATOM     31  C   UNL     1      32.113  -7.964 -21.199  0.00  0.00    -0.059 C 
BRANCH  31  32
ATOM     32  N   UNL     1      32.773  -7.924 -19.893  0.00  0.00    +0.383 N 
ATOM     33  H   UNL     1      33.706  -7.524 -19.996  0.00  0.00    -0.089 HD
ATOM     34  H   UNL     1      32.847  -8.870 -19.521  0.00  0.00    -0.089 HD
ATOM     35  H   UNL     1      32.225  -7.348 -19.253  0.00  0.00    -0.089 HD
ENDBRANCH  31  32
ENDBRANCH  28  31
ENDBRANCH  24  25
BRANCH  24  37
ATOM     36  O   UNL     1      35.263 -10.842 -26.210  0.00  0.00    -0.250 OA
ATOM     37  C   UNL     1      34.285 -11.503 -25.884  0.00  0.00    +0.318 C 
BRANCH  37  38
ATOM     38  O   UNL     1      33.711 -12.413 -26.714  0.00  0.00    -0.480 OA
ATOM     39  H   UNL     1      33.019 -12.962 -26.400  0.00  0.00    +0.295 HD
ENDBRANCH  37  38
ENDBRANCH  24  37
ENDBRANCH  23  24
ENDBRANCH   1  23
TORSDOF 16
ENDMDL
MODEL 5
REMARK VINA RESULT:      -9.1      2.375     10.307
REMARK  Name = 11705956
REMARK  16 active torsions:
REMARK  status: ('A' for Active; 'I' for Inactive)
REMARK    1  A    between atoms: P_1  and  O_3
REMARK    2  A    between atoms: P_1  and  C_5
REMARK    3  A    between atoms: P_1  and  C_23
REMARK    4  A    between atoms: C_5  and  C_6
REMARK    5  A    between atoms: C_5  and  N_9
REMARK    6  A    between atoms: N_9  and  S_11
REMARK    7  A    between atoms: S_11  and  C_14
REMARK    8  A    between atoms: C_14  and  C_15
REMARK    9  A    between atoms: C_15  and  C_16
REMARK   10  A    between atoms: C_16  and  C_17
REMARK   11  A    between atoms: C_23  and  C_24
REMARK   12  A    between atoms: C_24  and  C_25
REMARK   13  A    between atoms: C_24  and  C_37
REMARK   14  A    between atoms: C_28  and  C_31
REMARK   15  A    between atoms: C_31  and  N_32
REMARK   16  A    between atoms: C_37  and  O_38
REMARK                            x       y       z     vdW  Elec       q    Type
REMARK                         _______ _______ _______ _____ _____    ______ ____
ROOT
ATOM      1  P   UNL     1      31.731 -11.076 -21.524  0.00  0.00    +0.236 P 
ATOM      2  O   UNL     1      31.999 -10.879 -20.061  0.00  0.00    -0.288 OA
ENDROOT
BRANCH   1   3
ATOM      3  O   UNL     1      30.277 -11.706 -21.844  0.00  0.00    -0.342 OA
ATOM      4  H   UNL     1      29.743 -11.718 -21.033  0.00  0.00    +0.218 HD
ENDBRANCH   1   3
BRANCH   1   5
ATOM      5  C   UNL     1      32.877 -12.161 -22.374  0.00  0.00    +0.152 C 
BRANCH   5   6
ATOM      6  C   UNL     1      33.004 -12.024 -23.904  0.00  0.00    +0.025 C 
ATOM      7  C   UNL     1      34.168 -11.136 -24.349  0.00  0.00    +0.002 C 
ATOM      8  C   UNL     1      33.100 -13.386 -24.593  0.00  0.00    +0.002 C 
ENDBRANCH   5   6
BRANCH   5   9
ATOM      9  N   UNL     1      32.428 -13.540 -22.058  0.00  0.00    -0.175 NA
ATOM     10  H   UNL     1      31.480 -13.456 -21.689  0.00  0.00    +0.149 HD
BRANCH   9  11
ATOM     11  S   UNL     1      33.279 -14.524 -20.970  0.00  0.00    +0.041 S 
ATOM     12  O   UNL     1      32.451 -14.826 -19.819  0.00  0.00    -0.157 OA
ATOM     13  O   UNL     1      34.613 -13.977 -20.801  0.00  0.00    -0.157 OA
BRANCH  11  14
ATOM     14  C   UNL     1      33.447 -16.014 -21.923  0.00  0.00    +0.169 C 
BRANCH  14  15
ATOM     15  C   UNL     1      34.567 -16.919 -21.424  0.00  0.00    +0.032 C 
BRANCH  15  16
ATOM     16  C   UNL     1      34.646 -18.291 -22.106  0.00  0.00    +0.028 C 
BRANCH  16  17
ATOM     17  C   UNL     1      34.464 -19.455 -21.164  0.00  0.00    -0.022 C 
ATOM     18  C   UNL     1      33.188 -19.789 -20.709  0.00  0.00    -0.004 C 
ATOM     19  C   UNL     1      35.570 -20.196 -20.748  0.00  0.00    -0.004 C 
ATOM     20  C   UNL     1      33.019 -20.866 -19.838  0.00  0.00    -0.000 C 
ATOM     21  C   UNL     1      35.400 -21.272 -19.877  0.00  0.00    -0.000 C 
ATOM     22  C   UNL     1      34.125 -21.607 -19.422  0.00  0.00    -0.000 C 
ENDBRANCH  16  17
ENDBRANCH  15  16
ENDBRANCH  14  15
ENDBRANCH  11  14
ENDBRANCH   9  11
ENDBRANCH   5   9
ENDBRANCH   1   5
BRANCH   1  23
ATOM     23  C   UNL     1      31.677  -9.544 -22.434  0.00  0.00    +0.104 C 
BRANCH  23  24
ATOM     24  C   UNL     1      32.795  -8.569 -22.039  0.00  0.00    +0.131 C 
BRANCH  24  25
ATOM     25  C   UNL     1      33.207  -7.651 -23.180  0.00  0.00    -0.012 C 
ATOM     26  C   UNL     1      32.286  -6.755 -23.722  0.00  0.00    -0.010 C 
ATOM     27  C   UNL     1      34.506  -7.706 -23.683  0.00  0.00    -0.004 C 
ATOM     28  C   UNL     1      32.666  -5.912 -24.766  0.00  0.00    -0.045 C 
ATOM     29  C   UNL     1      34.886  -6.863 -24.728  0.00  0.00    -0.001 C 
ATOM     30  C   UNL     1      33.966  -5.966 -25.270  0.00  0.00    -0.006 C 
BRANCH  28  31
ATOM     31  C   UNL     1      31.681  -4.953 -25.346  0.00  0.00    -0.059 C 
BRANCH  31  32
ATOM     32  N   UNL     1      30.649  -4.563 -24.383  0.00  0.00    +0.383 N 
ATOM     33  H   UNL     1      29.728  -4.699 -24.799  0.00  0.00    -0.089 HD
ATOM     34  H   UNL     1      30.769  -3.581 -24.136  0.00  0.00    -0.089 HD
ATOM     35  H   UNL     1      30.732  -5.138 -23.544  0.00  0.00    -0.089 HD
ENDBRANCH  31  32
ENDBRANCH  28  31
ENDBRANCH  24  25
BRANCH  24  37
ATOM     36  O   UNL     1      31.600  -6.850 -20.778  0.00  0.00    -0.250 OA
ATOM     37  C   UNL     1      32.394  -7.781 -20.801  0.00  0.00    +0.318 C 
BRANCH  37  38
ATOM     38  O   UNL     1      33.026  -8.228 -19.683  0.00  0.00    -0.480 OA
ATOM     39  H   UNL     1      32.663  -8.051 -18.837  0.00  0.00    +0.295 HD
ENDBRANCH  37  38
ENDBRANCH  24  37
ENDBRANCH  23  24
ENDBRANCH   1  23
TORSDOF 16
ENDMDL
MODEL 6
REMARK VINA RESULT:      -9.0      3.468     11.003
REMARK  Name = 11705956
REMARK  16 active torsions:
REMARK  status: ('A' for Active; 'I' for Inactive)
REMARK    1  A    between atoms: P_1  and  O_3
REMARK    2  A    between atoms: P_1  and  C_5
REMARK    3  A    between atoms: P_1  and  C_23
REMARK    4  A    between atoms: C_5  and  C_6
REMARK    5  A    between atoms: C_5  and  N_9
REMARK    6  A    between atoms: N_9  and  S_11
REMARK    7  A    between atoms: S_11  and  C_14
REMARK    8  A    between atoms: C_14  and  C_15
REMARK    9  A    between atoms: C_15  and  C_16
REMARK   10  A    between atoms: C_16  and  C_17
REMARK   11  A    between atoms: C_23  and  C_24
REMARK   12  A    between atoms: C_24  and  C_25
REMARK   13  A    between atoms: C_24  and  C_37
REMARK   14  A    between atoms: C_28  and  C_31
REMARK   15  A    between atoms: C_31  and  N_32
REMARK   16  A    between atoms: C_37  and  O_38
REMARK                            x       y       z     vdW  Elec       q    Type
REMARK                         _______ _______ _______ _____ _____    ______ ____
ROOT
ATOM      1  P   UNL     1      34.238 -15.485 -23.752  0.00  0.00    +0.236 P 
ATOM      2  O   UNL     1      33.447 -15.703 -25.008  0.00  0.00    -0.288 OA
ENDROOT
BRANCH   1   3
ATOM      3  O   UNL     1      35.782 -15.951 -23.861  0.00  0.00    -0.342 OA
ATOM      4  H   UNL     1      36.065 -16.334 -23.014  0.00  0.00    +0.218 HD
ENDBRANCH   1   3
BRANCH   1   5
ATOM      5  C   UNL     1      33.622 -16.339 -22.301  0.00  0.00    +0.152 C 
BRANCH   5   6
ATOM      6  C   UNL     1      33.160 -15.487 -21.102  0.00  0.00    +0.025 C 
ATOM      7  C   UNL     1      31.942 -16.058 -20.373  0.00  0.00    +0.002 C 
ATOM      8  C   UNL     1      34.294 -15.246 -20.103  0.00  0.00    +0.002 C 
ENDBRANCH   5   6
BRANCH   5   9
ATOM      9  N   UNL     1      34.731 -17.219 -21.857  0.00  0.00    -0.175 NA
ATOM     10  H   UNL     1      35.530 -16.996 -22.451  0.00  0.00    +0.149 HD
BRANCH   9  11
ATOM     11  S   UNL     1      34.582 -18.909 -21.869  0.00  0.00    +0.041 S 
ATOM     12  O   UNL     1      34.708 -19.410 -23.224  0.00  0.00    -0.157 OA
ATOM     13  O   UNL     1      33.447 -19.277 -21.044  0.00  0.00    -0.157 OA
BRANCH  11  14
ATOM     14  C   UNL     1      36.046 -19.382 -20.979  0.00  0.00    +0.169 C 
BRANCH  14  15
ATOM     15  C   UNL     1      36.055 -20.855 -20.587  0.00  0.00    +0.032 C 
BRANCH  15  16
ATOM     16  C   UNL     1      36.559 -21.145 -19.167  0.00  0.00    +0.028 C 
BRANCH  16  17
ATOM     17  C   UNL     1      35.582 -21.919 -18.317  0.00  0.00    -0.022 C 
ATOM     18  C   UNL     1      35.943 -22.317 -17.029  0.00  0.00    -0.004 C 
ATOM     19  C   UNL     1      34.320 -22.236 -18.817  0.00  0.00    -0.004 C 
ATOM     20  C   UNL     1      35.040 -23.031 -16.242  0.00  0.00    -0.000 C 
ATOM     21  C   UNL     1      33.417 -22.951 -18.030  0.00  0.00    -0.000 C 
ATOM     22  C   UNL     1      33.777 -23.348 -16.742  0.00  0.00    -0.000 C 
ENDBRANCH  16  17
ENDBRANCH  15  16
ENDBRANCH  14  15
ENDBRANCH  11  14
ENDBRANCH   9  11
ENDBRANCH   5   9
ENDBRANCH   1   5
BRANCH   1  23
ATOM     23  C   UNL     1      34.402 -13.762 -23.323  0.00  0.00    +0.104 C 
BRANCH  23  24
ATOM     24  C   UNL     1      33.311 -12.880 -23.944  0.00  0.00    +0.131 C 
BRANCH  24  25
ATOM     25  C   UNL     1      32.612 -11.998 -22.920  0.00  0.00    -0.012 C 
ATOM     26  C   UNL     1      32.579 -10.615 -23.096  0.00  0.00    -0.010 C 
ATOM     27  C   UNL     1      32.003 -12.574 -21.805  0.00  0.00    -0.004 C 
ATOM     28  C   UNL     1      31.935  -9.809 -22.158  0.00  0.00    -0.045 C 
ATOM     29  C   UNL     1      31.359 -11.766 -20.866  0.00  0.00    -0.001 C 
ATOM     30  C   UNL     1      31.326 -10.383 -21.043  0.00  0.00    -0.006 C 
BRANCH  28  31
ATOM     31  C   UNL     1      31.900  -8.329 -22.347  0.00  0.00    -0.059 C 
BRANCH  31  32
ATOM     32  N   UNL     1      30.930  -7.919 -23.364  0.00  0.00    +0.383 N 
ATOM     33  H   UNL     1      30.184  -8.611 -23.420  0.00  0.00    -0.089 HD
ATOM     34  H   UNL     1      31.397  -7.847 -24.268  0.00  0.00    -0.089 HD
ATOM     35  H   UNL     1      30.536  -7.012 -23.112  0.00  0.00    -0.089 HD
ENDBRANCH  31  32
ENDBRANCH  28  31
ENDBRANCH  24  25
BRANCH  24  37
ATOM     36  O   UNL     1      33.514 -12.120 -26.257  0.00  0.00    -0.250 OA
ATOM     37  C   UNL     1      33.884 -12.062 -25.092  0.00  0.00    +0.318 C 
BRANCH  37  38
ATOM     38  O   UNL     1      34.879 -11.231 -24.682  0.00  0.00    -0.480 OA
ATOM     39  H   UNL     1      34.712 -10.591 -24.018  0.00  0.00    +0.295 HD
ENDBRANCH  37  38
ENDBRANCH  24  37
ENDBRANCH  23  24
ENDBRANCH   1  23
TORSDOF 16
ENDMDL
MODEL 7
REMARK VINA RESULT:      -9.0      2.796     10.200
REMARK  Name = 11705956
REMARK  16 active torsions:
REMARK  status: ('A' for Active; 'I' for Inactive)
REMARK    1  A    between atoms: P_1  and  O_3
REMARK    2  A    between atoms: P_1  and  C_5
REMARK    3  A    between atoms: P_1  and  C_23
REMARK    4  A    between atoms: C_5  and  C_6
REMARK    5  A    between atoms: C_5  and  N_9
REMARK    6  A    between atoms: N_9  and  S_11
REMARK    7  A    between atoms: S_11  and  C_14
REMARK    8  A    between atoms: C_14  and  C_15
REMARK    9  A    between atoms: C_15  and  C_16
REMARK   10  A    between atoms: C_16  and  C_17
REMARK   11  A    between atoms: C_23  and  C_24
REMARK   12  A    between atoms: C_24  and  C_25
REMARK   13  A    between atoms: C_24  and  C_37
REMARK   14  A    between atoms: C_28  and  C_31
REMARK   15  A    between atoms: C_31  and  N_32
REMARK   16  A    between atoms: C_37  and  O_38
REMARK                            x       y       z     vdW  Elec       q    Type
REMARK                         _______ _______ _______ _____ _____    ______ ____
ROOT
ATOM      1  P   UNL     1      33.174 -13.763 -22.588  0.00  0.00    +0.236 P 
ATOM      2  O   UNL     1      34.284 -13.605 -21.590  0.00  0.00    -0.288 OA
ENDROOT
BRANCH   1   3
ATOM      3  O   UNL     1      32.094 -14.899 -22.192  0.00  0.00    -0.342 OA
ATOM      4  H   UNL     1      31.673 -15.240 -22.998  0.00  0.00    +0.218 HD
ENDBRANCH   1   3
BRANCH   1   5
ATOM      5  C   UNL     1      33.692 -14.207 -24.245  0.00  0.00    +0.152 C 
BRANCH   5   6
ATOM      6  C   UNL     1      32.951 -13.560 -25.433  0.00  0.00    +0.025 C 
ATOM      7  C   UNL     1      33.682 -12.359 -26.035  0.00  0.00    +0.002 C 
ATOM      8  C   UNL     1      32.636 -14.578 -26.531  0.00  0.00    +0.002 C 
ENDBRANCH   5   6
BRANCH   5   9
ATOM      9  N   UNL     1      33.529 -15.680 -24.332  0.00  0.00    -0.175 NA
ATOM     10  H   UNL     1      33.037 -15.965 -23.484  0.00  0.00    +0.149 HD
BRANCH   9  11
ATOM     11  S   UNL     1      34.866 -16.714 -24.479  0.00  0.00    +0.041 S 
ATOM     12  O   UNL     1      35.849 -16.405 -23.460  0.00  0.00    -0.157 OA
ATOM     13  O   UNL     1      35.243 -16.781 -25.879  0.00  0.00    -0.157 OA
BRANCH  11  14
ATOM     14  C   UNL     1      34.129 -18.277 -24.065  0.00  0.00    +0.169 C 
BRANCH  14  15
ATOM     15  C   UNL     1      34.831 -18.979 -22.908  0.00  0.00    +0.032 C 
BRANCH  15  16
ATOM     16  C   UNL     1      34.143 -18.830 -21.545  0.00  0.00    +0.028 C 
BRANCH  16  17
ATOM     17  C   UNL     1      34.325 -20.019 -20.634  0.00  0.00    -0.022 C 
ATOM     18  C   UNL     1      35.607 -20.493 -20.354  0.00  0.00    -0.004 C 
ATOM     19  C   UNL     1      33.212 -20.644 -20.073  0.00  0.00    -0.004 C 
ATOM     20  C   UNL     1      35.776 -21.592 -19.512  0.00  0.00    -0.000 C 
ATOM     21  C   UNL     1      33.381 -21.743 -19.230  0.00  0.00    -0.000 C 
ATOM     22  C   UNL     1      34.662 -22.217 -18.950  0.00  0.00    -0.000 C 
ENDBRANCH  16  17
ENDBRANCH  15  16
ENDBRANCH  14  15
ENDBRANCH  11  14
ENDBRANCH   9  11
ENDBRANCH   5   9
ENDBRANCH   1   5
BRANCH   1  23
ATOM     23  C   UNL     1      32.149 -12.310 -22.724  0.00  0.00    +0.104 C 
BRANCH  23  24
ATOM     24  C   UNL     1      32.370 -11.308 -21.584  0.00  0.00    +0.131 C 
BRANCH  24  25
ATOM     25  C   UNL     1      32.564  -9.883 -22.081  0.00  0.00    -0.012 C 
ATOM     26  C   UNL     1      32.165  -8.807 -21.288  0.00  0.00    -0.010 C 
ATOM     27  C   UNL     1      33.141  -9.653 -23.329  0.00  0.00    -0.004 C 
ATOM     28  C   UNL     1      32.346  -7.501 -21.743  0.00  0.00    -0.045 C 
ATOM     29  C   UNL     1      33.321  -8.346 -23.785  0.00  0.00    -0.001 C 
ATOM     30  C   UNL     1      32.922  -7.270 -22.992  0.00  0.00    -0.006 C 
BRANCH  28  31
ATOM     31  C   UNL     1      31.919  -6.350 -20.895  0.00  0.00    -0.059 C 
BRANCH  31  32
ATOM     32  N   UNL     1      31.038  -5.425 -21.611  0.00  0.00    +0.383 N 
ATOM     33  H   UNL     1      31.234  -4.470 -21.312  0.00  0.00    -0.089 HD
ATOM     34  H   UNL     1      30.066  -5.655 -21.405  0.00  0.00    -0.089 HD
ATOM     35  H   UNL     1      31.203  -5.508 -22.615  0.00  0.00    -0.089 HD
ENDBRANCH  31  32
ENDBRANCH  28  31
ENDBRANCH  24  25
BRANCH  24  37
ATOM     36  O   UNL     1      31.367 -11.346 -19.356  0.00  0.00    -0.250 OA
ATOM     37  C   UNL     1      31.238 -11.401 -20.572  0.00  0.00    +0.318 C 
BRANCH  37  38
ATOM     38  O   UNL     1      30.027 -11.555 -21.171  0.00  0.00    -0.480 OA
ATOM     39  H   UNL     1      29.619 -10.827 -21.597  0.00  0.00    +0.295 HD
ENDBRANCH  37  38
ENDBRANCH  24  37
ENDBRANCH  23  24
ENDBRANCH   1  23
TORSDOF 16
ENDMDL
MODEL 8
REMARK VINA RESULT:      -8.9      3.707     10.762
REMARK  Name = 11705956
REMARK  16 active torsions:
REMARK  status: ('A' for Active; 'I' for Inactive)
REMARK    1  A    between atoms: P_1  and  O_3
REMARK    2  A    between atoms: P_1  and  C_5
REMARK    3  A    between atoms: P_1  and  C_23
REMARK    4  A    between atoms: C_5  and  C_6
REMARK    5  A    between atoms: C_5  and  N_9
REMARK    6  A    between atoms: N_9  and  S_11
REMARK    7  A    between atoms: S_11  and  C_14
REMARK    8  A    between atoms: C_14  and  C_15
REMARK    9  A    between atoms: C_15  and  C_16
REMARK   10  A    between atoms: C_16  and  C_17
REMARK   11  A    between atoms: C_23  and  C_24
REMARK   12  A    between atoms: C_24  and  C_25
REMARK   13  A    between atoms: C_24  and  C_37
REMARK   14  A    between atoms: C_28  and  C_31
REMARK   15  A    between atoms: C_31  and  N_32
REMARK   16  A    between atoms: C_37  and  O_38
REMARK                            x       y       z     vdW  Elec       q    Type
REMARK                         _______ _______ _______ _____ _____    ______ ____
ROOT
ATOM      1  P   UNL     1      34.480 -16.083 -23.772  0.00  0.00    +0.236 P 
ATOM      2  O   UNL     1      33.809 -16.683 -24.973  0.00  0.00    -0.288 OA
ENDROOT
BRANCH   1   3
ATOM      3  O   UNL     1      36.062 -16.398 -23.680  0.00  0.00    -0.342 OA
ATOM      4  H   UNL     1      36.442 -16.414 -24.574  0.00  0.00    +0.218 HD
ENDBRANCH   1   3
BRANCH   1   5
ATOM      5  C   UNL     1      33.832 -16.615 -22.187  0.00  0.00    +0.152 C 
BRANCH   5   6
ATOM      6  C   UNL     1      33.230 -15.544 -21.256  0.00  0.00    +0.025 C 
ATOM      7  C   UNL     1      32.004 -16.025 -20.476  0.00  0.00    +0.002 C 
ATOM      8  C   UNL     1      34.270 -14.980 -20.287  0.00  0.00    +0.002 C 
ENDBRANCH   5   6
BRANCH   5   9
ATOM      9  N   UNL     1      34.971 -17.262 -21.489  0.00  0.00    -0.175 NA
ATOM     10  H   UNL     1      35.818 -16.817 -21.847  0.00  0.00    +0.149 HD
BRANCH   9  11
ATOM     11  S   UNL     1      35.235 -18.935 -21.583  0.00  0.00    +0.041 S 
ATOM     12  O   UNL     1      35.996 -19.384 -20.434  0.00  0.00    -0.157 OA
ATOM     13  O   UNL     1      35.665 -19.258 -22.931  0.00  0.00    -0.157 OA
BRANCH  11  14
ATOM     14  C   UNL     1      33.576 -19.547 -21.406  0.00  0.00    +0.169 C 
BRANCH  14  15
ATOM     15  C   UNL     1      33.317 -20.185 -20.046  0.00  0.00    +0.032 C 
BRANCH  15  16
ATOM     16  C   UNL     1      33.539 -21.701 -19.989  0.00  0.00    +0.028 C 
BRANCH  16  17
ATOM     17  C   UNL     1      34.087 -22.191 -18.671  0.00  0.00    -0.022 C 
ATOM     18  C   UNL     1      33.262 -22.891 -17.790  0.00  0.00    -0.004 C 
ATOM     19  C   UNL     1      35.417 -21.942 -18.333  0.00  0.00    -0.004 C 
ATOM     20  C   UNL     1      33.769 -23.344 -16.572  0.00  0.00    -0.000 C 
ATOM     21  C   UNL     1      35.923 -22.395 -17.115  0.00  0.00    -0.000 C 
ATOM     22  C   UNL     1      35.099 -23.096 -16.234  0.00  0.00    -0.000 C 
ENDBRANCH  16  17
ENDBRANCH  15  16
ENDBRANCH  14  15
ENDBRANCH  11  14
ENDBRANCH   9  11
ENDBRANCH   5   9
ENDBRANCH   1   5
BRANCH   1  23
ATOM     23  C   UNL     1      34.459 -14.300 -23.782  0.00  0.00    +0.104 C 
BRANCH  23  24
ATOM     24  C   UNL     1      33.112 -13.716 -24.228  0.00  0.00    +0.131 C 
BRANCH  24  25
ATOM     25  C   UNL     1      32.810 -12.371 -23.584  0.00  0.00    -0.012 C 
ATOM     26  C   UNL     1      31.999 -12.307 -22.451  0.00  0.00    -0.010 C 
ATOM     27  C   UNL     1      33.344 -11.203 -24.126  0.00  0.00    -0.004 C 
ATOM     28  C   UNL     1      31.725 -11.074 -21.859  0.00  0.00    -0.045 C 
ATOM     29  C   UNL     1      33.069  -9.969 -23.534  0.00  0.00    -0.001 C 
ATOM     30  C   UNL     1      32.259  -9.905 -22.401  0.00  0.00    -0.006 C 
BRANCH  28  31
ATOM     31  C   UNL     1      30.857 -11.006 -20.647  0.00  0.00    -0.059 C 
BRANCH  31  32
ATOM     32  N   UNL     1      31.498 -11.591 -19.468  0.00  0.00    +0.383 N 
ATOM     33  H   UNL     1      30.798 -11.748 -18.744  0.00  0.00    -0.089 HD
ATOM     34  H   UNL     1      32.214 -10.954 -19.119  0.00  0.00    -0.089 HD
ATOM     35  H   UNL     1      31.930 -12.481 -19.723  0.00  0.00    -0.089 HD
ENDBRANCH  31  32
ENDBRANCH  28  31
ENDBRANCH  24  25
BRANCH  24  37
ATOM     36  O   UNL     1      33.652 -12.832 -26.442  0.00  0.00    -0.250 OA
ATOM     37  C   UNL     1      33.048 -13.638 -25.747  0.00  0.00    +0.318 C 
BRANCH  37  38
ATOM     38  O   UNL     1      32.226 -14.585 -26.274  0.00  0.00    -0.480 OA
ATOM     39  H   UNL     1      32.503 -15.084 -27.018  0.00  0.00    +0.295 HD
ENDBRANCH  37  38
ENDBRANCH  24  37
ENDBRANCH  23  24
ENDBRANCH   1  23
TORSDOF 16
ENDMDL
MODEL 9
REMARK VINA RESULT:      -8.8     10.127     14.111
REMARK  Name = 11705956
REMARK  16 active torsions:
REMARK  status: ('A' for Active; 'I' for Inactive)
REMARK    1  A    between atoms: P_1  and  O_3
REMARK    2  A    between atoms: P_1  and  C_5
REMARK    3  A    between atoms: P_1  and  C_23
REMARK    4  A    between atoms: C_5  and  C_6
REMARK    5  A    between atoms: C_5  and  N_9
REMARK    6  A    between atoms: N_9  and  S_11
REMARK    7  A    between atoms: S_11  and  C_14
REMARK    8  A    between atoms: C_14  and  C_15
REMARK    9  A    between atoms: C_15  and  C_16
REMARK   10  A    between atoms: C_16  and  C_17
REMARK   11  A    between atoms: C_23  and  C_24
REMARK   12  A    between atoms: C_24  and  C_25
REMARK   13  A    between atoms: C_24  and  C_37
REMARK   14  A    between atoms: C_28  and  C_31
REMARK   15  A    between atoms: C_31  and  N_32
REMARK   16  A    between atoms: C_37  and  O_38
REMARK                            x       y       z     vdW  Elec       q    Type
REMARK                         _______ _______ _______ _____ _____    ______ ____
ROOT
ATOM      1  P   UNL     1      34.171 -24.288 -14.117  0.00  0.00    +0.236 P 
ATOM      2  O   UNL     1      34.429 -23.816 -12.716  0.00  0.00    -0.288 OA
ENDROOT
BRANCH   1   3
ATOM      3  O   UNL     1      33.058 -25.456 -14.220  0.00  0.00    -0.342 OA
ATOM      4  H   UNL     1      32.751 -25.690 -13.329  0.00  0.00    +0.218 HD
ENDBRANCH   1   3
BRANCH   1   5
ATOM      5  C   UNL     1      35.595 -24.959 -14.974  0.00  0.00    +0.152 C 
BRANCH   5   6
ATOM      6  C   UNL     1      36.784 -25.452 -14.125  0.00  0.00    +0.025 C 
ATOM      7  C   UNL     1      36.511 -25.448 -12.620  0.00  0.00    +0.002 C 
ATOM      8  C   UNL     1      37.261 -26.838 -14.560  0.00  0.00    +0.002 C 
ENDBRANCH   5   6
BRANCH   5   9
ATOM      9  N   UNL     1      36.070 -23.874 -15.868  0.00  0.00    -0.175 NA
ATOM     10  H   UNL     1      36.289 -24.314 -16.763  0.00  0.00    +0.149 HD
BRANCH   9  11
ATOM     11  S   UNL     1      37.410 -22.915 -15.466  0.00  0.00    +0.041 S 
ATOM     12  O   UNL     1      38.637 -23.600 -15.822  0.00  0.00    -0.157 OA
ATOM     13  O   UNL     1      37.214 -22.389 -14.128  0.00  0.00    -0.157 OA
BRANCH  11  14
ATOM     14  C   UNL     1      37.201 -21.557 -16.593  0.00  0.00    +0.169 C 
BRANCH  14  15
ATOM     15  C   UNL     1      36.278 -21.886 -17.759  0.00  0.00    +0.032 C 
BRANCH  15  16
ATOM     16  C   UNL     1      36.827 -21.521 -19.145  0.00  0.00    +0.028 C 
BRANCH  16  17
ATOM     17  C   UNL     1      35.923 -20.614 -19.942  0.00  0.00    -0.022 C 
ATOM     18  C   UNL     1      36.463 -19.536 -20.645  0.00  0.00    -0.004 C 
ATOM     19  C   UNL     1      34.550 -20.853 -19.977  0.00  0.00    -0.004 C 
ATOM     20  C   UNL     1      35.628 -18.697 -21.383  0.00  0.00    -0.000 C 
ATOM     21  C   UNL     1      33.715 -20.014 -20.715  0.00  0.00    -0.000 C 
ATOM     22  C   UNL     1      34.254 -18.936 -21.418  0.00  0.00    -0.000 C 
ENDBRANCH  16  17
ENDBRANCH  15  16
ENDBRANCH  14  15
ENDBRANCH  11  14
ENDBRANCH   9  11
ENDBRANCH   5   9
ENDBRANCH   1   5
BRANCH   1  23
ATOM     23  C   UNL     1      33.473 -23.021 -15.160  0.00  0.00    +0.104 C 
BRANCH  23  24
ATOM     24  C   UNL     1      32.442 -23.563 -16.159  0.00  0.00    +0.131 C 
BRANCH  24  25
ATOM     25  C   UNL     1      31.022 -23.125 -15.837  0.00  0.00    -0.012 C 
ATOM     26  C   UNL     1      30.018 -23.251 -16.797  0.00  0.00    -0.010 C 
ATOM     27  C   UNL     1      30.723 -22.597 -14.581  0.00  0.00    -0.004 C 
ATOM     28  C   UNL     1      28.715 -22.851 -16.500  0.00  0.00    -0.045 C 
ATOM     29  C   UNL     1      29.420 -22.196 -14.284  0.00  0.00    -0.001 C 
ATOM     30  C   UNL     1      28.416 -22.322 -15.244  0.00  0.00    -0.006 C 
BRANCH  28  31
ATOM     31  C   UNL     1      27.641 -22.986 -17.527  0.00  0.00    -0.059 C 
BRANCH  31  32
ATOM     32  N   UNL     1      26.757 -21.820 -17.566  0.00  0.00    +0.383 N 
ATOM     33  H   UNL     1      26.604 -21.542 -18.535  0.00  0.00    -0.089 HD
ATOM     34  H   UNL     1      27.187 -21.051 -17.053  0.00  0.00    -0.089 HD
ATOM     35  H   UNL     1      25.862 -22.058 -17.135  0.00  0.00    -0.089 HD
ENDBRANCH  31  32
ENDBRANCH  28  31
ENDBRANCH  24  25
BRANCH  24  37
ATOM     36  O   UNL     1      32.355 -22.273 -18.233  0.00  0.00    -0.250 OA
ATOM     37  C   UNL     1      32.837 -23.190 -17.580  0.00  0.00    +0.318 C 
BRANCH  37  38
ATOM     38  O   UNL     1      33.812 -24.001 -18.071  0.00  0.00    -0.480 OA
ATOM     39  H   UNL     1      34.475 -23.649 -18.633  0.00  0.00    +0.295 HD
ENDBRANCH  37  38
ENDBRANCH  24  37
ENDBRANCH  23  24
ENDBRANCH   1  23
TORSDOF 16
ENDMDL
