MODEL 1
REMARK VINA RESULT:      -3.5      0.000      0.000
REMARK  Name = 6386
REMARK  1 active torsions:
REMARK  status: ('A' for Active; 'I' for Inactive)
REMARK    1  A    between atoms: C_1  and  O_5
REMARK                            x       y       z     vdW  Elec       q    Type
REMARK                         _______ _______ _______ _____ _____    ______ ____
ROOT
ATOM      1  C   UNL     1      34.704 -19.375 -21.198  0.00  0.00    +0.089 C 
ATOM      2  C   UNL     1      33.259 -19.645 -20.780  0.00  0.00    +0.029 C 
ATOM      3  C   UNL     1      34.831 -19.366 -22.720  0.00  0.00    +0.029 C 
ATOM      4  C   UNL     1      35.649 -20.407 -20.585  0.00  0.00    +0.029 C 
ENDROOT
BRANCH   1   5
ATOM      5  O   UNL     1      35.078 -18.080 -20.727  0.00  0.00    -0.387 OA
ATOM      6  H   UNL     1      36.016 -18.084 -20.478  0.00  0.00    +0.210 HD
ENDBRANCH   1   5
TORSDOF 1
ENDMDL
MODEL 2
REMARK VINA RESULT:      -3.5      0.016      1.945
REMARK  Name = 6386
REMARK  1 active torsions:
REMARK  status: ('A' for Active; 'I' for Inactive)
REMARK    1  A    between atoms: C_1  and  O_5
REMARK                            x       y       z     vdW  Elec       q    Type
REMARK                         _______ _______ _______ _____ _____    ______ ____
ROOT
ATOM      1  C   UNL     1      34.706 -19.362 -21.209  0.00  0.00    +0.089 C 
ATOM      2  C   UNL     1      34.832 -19.362 -22.732  0.00  0.00    +0.029 C 
ATOM      3  C   UNL     1      35.657 -20.386 -20.591  0.00  0.00    +0.029 C 
ATOM      4  C   UNL     1      33.266 -19.639 -20.781  0.00  0.00    +0.029 C 
ENDROOT
BRANCH   1   5
ATOM      5  O   UNL     1      35.086 -18.074 -20.722  0.00  0.00    -0.387 OA
ATOM      6  H   UNL     1      35.112 -17.444 -21.459  0.00  0.00    +0.210 HD
ENDBRANCH   1   5
TORSDOF 1
ENDMDL
MODEL 3
REMARK VINA RESULT:      -3.5      0.015      1.948
REMARK  Name = 6386
REMARK  1 active torsions:
REMARK  status: ('A' for Active; 'I' for Inactive)
REMARK    1  A    between atoms: C_1  and  O_5
REMARK                            x       y       z     vdW  Elec       q    Type
REMARK                         _______ _______ _______ _____ _____    ______ ____
ROOT
ATOM      1  C   UNL     1      34.713 -19.366 -21.210  0.00  0.00    +0.089 C 
ATOM      2  C   UNL     1      35.657 -20.396 -20.590  0.00  0.00    +0.029 C 
ATOM      3  C   UNL     1      33.271 -19.634 -20.786  0.00  0.00    +0.029 C 
ATOM      4  C   UNL     1      34.834 -19.364 -22.733  0.00  0.00    +0.029 C 
ENDROOT
BRANCH   1   5
ATOM      5  O   UNL     1      35.071 -18.072 -20.724  0.00  0.00    -0.387 OA
ATOM      6  H   UNL     1      35.536 -18.160 -19.877  0.00  0.00    +0.210 HD
ENDBRANCH   1   5
TORSDOF 1
ENDMDL
MODEL 4
REMARK VINA RESULT:      -3.4      1.094      1.729
REMARK  Name = 6386
REMARK  1 active torsions:
REMARK  status: ('A' for Active; 'I' for Inactive)
REMARK    1  A    between atoms: C_1  and  O_5
REMARK                            x       y       z     vdW  Elec       q    Type
REMARK                         _______ _______ _______ _____ _____    ______ ____
ROOT
ATOM      1  C   UNL     1      34.540 -18.887 -21.362  0.00  0.00    +0.089 C 
ATOM      2  C   UNL     1      33.388 -19.712 -20.790  0.00  0.00    +0.029 C 
ATOM      3  C   UNL     1      34.225 -17.395 -21.282  0.00  0.00    +0.029 C 
ATOM      4  C   UNL     1      34.841 -19.296 -22.803  0.00  0.00    +0.029 C 
ENDROOT
BRANCH   1   5
ATOM      5  O   UNL     1      35.705 -19.123 -20.570  0.00  0.00    -0.387 OA
ATOM      6  H   UNL     1      36.122 -18.277 -20.345  0.00  0.00    +0.210 HD
ENDBRANCH   1   5
TORSDOF 1
ENDMDL
MODEL 5
REMARK VINA RESULT:      -3.4      1.096      1.664
REMARK  Name = 6386
REMARK  1 active torsions:
REMARK  status: ('A' for Active; 'I' for Inactive)
REMARK    1  A    between atoms: C_1  and  O_5
REMARK                            x       y       z     vdW  Elec       q    Type
REMARK                         _______ _______ _______ _____ _____    ______ ____
ROOT
ATOM      1  C   UNL     1      34.495 -18.932 -21.337  0.00  0.00    +0.089 C 
ATOM      2  C   UNL     1      34.209 -17.434 -21.255  0.00  0.00    +0.029 C 
ATOM      3  C   UNL     1      34.808 -19.341 -22.775  0.00  0.00    +0.029 C 
ATOM      4  C   UNL     1      33.321 -19.742 -20.792  0.00  0.00    +0.029 C 
ENDROOT
BRANCH   1   5
ATOM      5  O   UNL     1      35.651 -19.218 -20.548  0.00  0.00    -0.387 OA
ATOM      6  H   UNL     1      36.171 -19.916 -20.976  0.00  0.00    +0.210 HD
ENDBRANCH   1   5
TORSDOF 1
ENDMDL
MODEL 6
REMARK VINA RESULT:      -3.4      1.099      2.284
REMARK  Name = 6386
REMARK  1 active torsions:
REMARK  status: ('A' for Active; 'I' for Inactive)
REMARK    1  A    between atoms: C_1  and  O_5
REMARK                            x       y       z     vdW  Elec       q    Type
REMARK                         _______ _______ _______ _____ _____    ______ ____
ROOT
ATOM      1  C   UNL     1      34.536 -18.883 -21.356  0.00  0.00    +0.089 C 
ATOM      2  C   UNL     1      34.844 -19.298 -22.795  0.00  0.00    +0.029 C 
ATOM      3  C   UNL     1      33.381 -19.709 -20.794  0.00  0.00    +0.029 C 
ATOM      4  C   UNL     1      34.219 -17.391 -21.276  0.00  0.00    +0.029 C 
ENDROOT
BRANCH   1   5
ATOM      5  O   UNL     1      35.686 -19.147 -20.552  0.00  0.00    -0.387 OA
ATOM      6  H   UNL     1      36.094 -19.980 -20.833  0.00  0.00    +0.210 HD
ENDBRANCH   1   5
TORSDOF 1
ENDMDL
MODEL 7
REMARK VINA RESULT:      -3.4      3.850      4.497
REMARK  Name = 6386
REMARK  1 active torsions:
REMARK  status: ('A' for Active; 'I' for Inactive)
REMARK    1  A    between atoms: C_1  and  O_5
REMARK                            x       y       z     vdW  Elec       q    Type
REMARK                         _______ _______ _______ _____ _____    ______ ____
ROOT
ATOM      1  C   UNL     1      34.019 -22.472 -18.868  0.00  0.00    +0.089 C 
ATOM      2  C   UNL     1      33.233 -22.881 -17.623  0.00  0.00    +0.029 C 
ATOM      3  C   UNL     1      35.439 -22.051 -18.495  0.00  0.00    +0.029 C 
ATOM      4  C   UNL     1      33.305 -21.349 -19.618  0.00  0.00    +0.029 C 
ENDROOT
BRANCH   1   5
ATOM      5  O   UNL     1      34.119 -23.604 -19.733  0.00  0.00    -0.387 OA
ATOM      6  H   UNL     1      34.943 -23.551 -20.242  0.00  0.00    +0.210 HD
ENDBRANCH   1   5
TORSDOF 1
ENDMDL
MODEL 8
REMARK VINA RESULT:      -3.3      8.228      9.216
REMARK  Name = 6386
REMARK  1 active torsions:
REMARK  status: ('A' for Active; 'I' for Inactive)
REMARK    1  A    between atoms: C_1  and  O_5
REMARK                            x       y       z     vdW  Elec       q    Type
REMARK                         _______ _______ _______ _____ _____    ______ ____
ROOT
ATOM      1  C   UNL     1      28.462 -23.479 -16.263  0.00  0.00    +0.089 C 
ATOM      2  C   UNL     1      29.774 -22.795 -16.646  0.00  0.00    +0.029 C 
ATOM      3  C   UNL     1      27.461 -22.459 -15.724  0.00  0.00    +0.029 C 
ATOM      4  C   UNL     1      28.704 -24.588 -15.240  0.00  0.00    +0.029 C 
ENDROOT
BRANCH   1   5
ATOM      5  O   UNL     1      27.893 -24.060 -17.437  0.00  0.00    -0.387 OA
ATOM      6  H   UNL     1      27.972 -23.438 -18.177  0.00  0.00    +0.210 HD
ENDBRANCH   1   5
TORSDOF 1
ENDMDL
MODEL 9
REMARK VINA RESULT:      -3.3      8.231      9.205
REMARK  Name = 6386
REMARK  1 active torsions:
REMARK  status: ('A' for Active; 'I' for Inactive)
REMARK    1  A    between atoms: C_1  and  O_5
REMARK                            x       y       z     vdW  Elec       q    Type
REMARK                         _______ _______ _______ _____ _____    ______ ____
ROOT
ATOM      1  C   UNL     1      28.456 -23.479 -16.255  0.00  0.00    +0.089 C 
ATOM      2  C   UNL     1      28.712 -24.588 -15.236  0.00  0.00    +0.029 C 
ATOM      3  C   UNL     1      29.765 -22.800 -16.652  0.00  0.00    +0.029 C 
ATOM      4  C   UNL     1      27.464 -22.454 -15.707  0.00  0.00    +0.029 C 
ENDROOT
BRANCH   1   5
ATOM      5  O   UNL     1      27.901 -24.064 -17.433  0.00  0.00    -0.387 OA
ATOM      6  H   UNL     1      28.566 -24.065 -18.139  0.00  0.00    +0.210 HD
ENDBRANCH   1   5
TORSDOF 1
ENDMDL
