MODEL 1
REMARK VINA RESULT:      -8.1      0.000      0.000
REMARK  Name = 153994
REMARK  10 active torsions:
REMARK  status: ('A' for Active; 'I' for Inactive)
REMARK    1  A    between atoms: C_2  and  C_12
REMARK    2  A    between atoms: C_3  and  C_19
REMARK    3  A    between atoms: C_4  and  C_29
REMARK    4  A    between atoms: C_19  and  O_20
REMARK    5  A    between atoms: O_20  and  C_21
REMARK    6  A    between atoms: C_21  and  O_22
REMARK    7  A    between atoms: O_22  and  C_24
REMARK    8  A    between atoms: C_24  and  C_25
REMARK    9  A    between atoms: C_25  and  C_26
REMARK   10  A    between atoms: C_29  and  O_30
REMARK                            x       y       z     vdW  Elec       q    Type
REMARK                         _______ _______ _______ _____ _____    ______ ____
ROOT
ATOM      1  N   UNL     1      32.813 -23.729 -15.567  0.00  0.00    -0.334 N 
ATOM      2  C   UNL     1      35.476 -23.568 -14.615  0.00  0.00    +0.012 C 
ATOM      3  C   UNL     1      35.043 -23.063 -15.995  0.00  0.00    +0.071 C 
ATOM      4  C   UNL     1      34.297 -24.015 -13.746  0.00  0.00    +0.085 C 
ATOM      5  C   UNL     1      33.761 -23.175 -16.411  0.00  0.00    +0.098 C 
ATOM      6  C   UNL     1      33.046 -24.103 -14.253  0.00  0.00    +0.028 C 
ATOM      7  C   UNL     1      33.240 -22.747 -17.756  0.00  0.00    +0.026 C 
ATOM      8  C   UNL     1      31.831 -24.578 -13.503  0.00  0.00    +0.047 C 
ATOM      9  H   UNL     1      31.907 -23.868 -15.926  0.00  0.00    +0.147 HD
ENDROOT
BRANCH   2  12
ATOM     10 CL   UNL     1      38.290 -23.137 -13.535  0.00  0.00    -0.081 Cl
ATOM     11 CL   UNL     1      40.286 -25.625 -13.924  0.00  0.00    -0.081 Cl
ATOM     12  C   UNL     1      36.457 -24.696 -14.767  0.00  0.00    +0.012 C 
ATOM     13  C   UNL     1      37.770 -24.601 -14.306  0.00  0.00    +0.068 C 
ATOM     14  C   UNL     1      36.019 -25.865 -15.389  0.00  0.00    +0.001 C 
ATOM     15  C   UNL     1      38.646 -25.674 -14.469  0.00  0.00    +0.068 C 
ATOM     16  C   UNL     1      36.894 -26.938 -15.553  0.00  0.00    +0.001 C 
ATOM     17  C   UNL     1      38.208 -26.843 -15.093  0.00  0.00    +0.012 C 
ENDBRANCH   2  12
BRANCH   3  19
ATOM     18  O   UNL     1      37.043 -21.836 -16.330  0.00  0.00    -0.245 OA
ATOM     19  C   UNL     1      36.075 -22.398 -16.808  0.00  0.00    +0.341 C 
BRANCH  19  20
ATOM     20  O   UNL     1      35.742 -22.532 -18.114  0.00  0.00    -0.405 OA
BRANCH  20  21
ATOM     21  C   UNL     1      36.371 -21.611 -19.019  0.00  0.00    +0.433 C 
BRANCH  21  22
ATOM     22  O   UNL     1      35.562 -21.288 -20.162  0.00  0.00    -0.408 OA
BRANCH  22  24
ATOM     23  O   UNL     1      36.541 -19.211 -20.378  0.00  0.00    -0.250 OA
ATOM     24  C   UNL     1      35.636 -20.001 -20.611  0.00  0.00    +0.320 C 
BRANCH  24  25
ATOM     25  C   UNL     1      34.398 -19.689 -21.420  0.00  0.00    +0.110 C 
BRANCH  25  26
ATOM     26  C   UNL     1      34.633 -18.611 -22.477  0.00  0.00    +0.012 C 
ATOM     27  C   UNL     1      34.889 -19.194 -23.860  0.00  0.00    +0.001 C 
ENDBRANCH  25  26
ENDBRANCH  24  25
ENDBRANCH  22  24
ENDBRANCH  21  22
ENDBRANCH  20  21
ENDBRANCH  19  20
ENDBRANCH   3  19
BRANCH   4  29
ATOM     28  O   UNL     1      34.193 -25.286 -11.747  0.00  0.00    -0.245 OA
ATOM     29  C   UNL     1      34.589 -24.294 -12.330  0.00  0.00    +0.342 C 
BRANCH  29  30
ATOM     30  O   UNL     1      35.345 -23.280 -11.842  0.00  0.00    -0.441 OA
ATOM     31  C   UNL     1      36.288 -23.658 -10.834  0.00  0.00    +0.256 C 
ENDBRANCH  29  30
ENDBRANCH   4  29
TORSDOF 10
ENDMDL
MODEL 2
REMARK VINA RESULT:      -7.7      1.578      2.112
REMARK  Name = 153994
REMARK  10 active torsions:
REMARK  status: ('A' for Active; 'I' for Inactive)
REMARK    1  A    between atoms: C_2  and  C_12
REMARK    2  A    between atoms: C_3  and  C_19
REMARK    3  A    between atoms: C_4  and  C_29
REMARK    4  A    between atoms: C_19  and  O_20
REMARK    5  A    between atoms: O_20  and  C_21
REMARK    6  A    between atoms: C_21  and  O_22
REMARK    7  A    between atoms: O_22  and  C_24
REMARK    8  A    between atoms: C_24  and  C_25
REMARK    9  A    between atoms: C_25  and  C_26
REMARK   10  A    between atoms: C_29  and  O_30
REMARK                            x       y       z     vdW  Elec       q    Type
REMARK                         _______ _______ _______ _____ _____    ______ ____
ROOT
ATOM      1  N   UNL     1      32.605 -23.381 -17.271  0.00  0.00    -0.334 N 
ATOM      2  C   UNL     1      34.566 -23.259 -15.230  0.00  0.00    +0.012 C 
ATOM      3  C   UNL     1      34.828 -22.825 -16.676  0.00  0.00    +0.071 C 
ATOM      4  C   UNL     1      33.098 -23.607 -14.967  0.00  0.00    +0.085 C 
ATOM      5  C   UNL     1      33.862 -22.916 -17.620  0.00  0.00    +0.098 C 
ATOM      6  C   UNL     1      32.203 -23.681 -15.978  0.00  0.00    +0.028 C 
ATOM      7  C   UNL     1      34.025 -22.554 -19.071  0.00  0.00    +0.026 C 
ATOM      8  C   UNL     1      30.755 -24.064 -15.836  0.00  0.00    +0.047 C 
ATOM      9  H   UNL     1      31.948 -23.509 -17.993  0.00  0.00    +0.147 HD
ENDROOT
BRANCH   2  12
ATOM     10 CL   UNL     1      36.279 -23.031 -12.723  0.00  0.00    -0.081 Cl
ATOM     11 CL   UNL     1      38.101 -25.600 -12.089  0.00  0.00    -0.081 Cl
ATOM     12  C   UNL     1      35.441 -24.429 -14.880  0.00  0.00    +0.012 C 
ATOM     13  C   UNL     1      36.263 -24.426 -13.753  0.00  0.00    +0.068 C 
ATOM     14  C   UNL     1      35.413 -25.541 -15.721  0.00  0.00    +0.001 C 
ATOM     15  C   UNL     1      37.059 -25.536 -13.468  0.00  0.00    +0.068 C 
ATOM     16  C   UNL     1      36.209 -26.651 -15.436  0.00  0.00    +0.001 C 
ATOM     17  C   UNL     1      37.032 -26.648 -14.309  0.00  0.00    +0.012 C 
ENDBRANCH   2  12
BRANCH   3  19
ATOM     18  O   UNL     1      36.924 -21.885 -16.097  0.00  0.00    -0.245 OA
ATOM     19  C   UNL     1      36.152 -22.250 -16.963  0.00  0.00    +0.341 C 
BRANCH  19  20
ATOM     20  O   UNL     1      36.318 -22.213 -18.307  0.00  0.00    -0.405 OA
BRANCH  20  21
ATOM     21  C   UNL     1      36.726 -20.947 -18.853  0.00  0.00    +0.433 C 
BRANCH  21  22
ATOM     22  O   UNL     1      36.360 -20.774 -20.232  0.00  0.00    -0.408 OA
BRANCH  22  24
ATOM     23  O   UNL     1      37.753 -19.126 -21.047  0.00  0.00    -0.250 OA
ATOM     24  C   UNL     1      36.638 -19.556 -20.783  0.00  0.00    +0.320 C 
BRANCH  24  25
ATOM     25  C   UNL     1      35.345 -18.801 -20.987  0.00  0.00    +0.110 C 
BRANCH  25  26
ATOM     26  C   UNL     1      34.238 -19.665 -21.587  0.00  0.00    +0.012 C 
ATOM     27  C   UNL     1      32.964 -19.648 -20.752  0.00  0.00    +0.001 C 
ENDBRANCH  25  26
ENDBRANCH  24  25
ENDBRANCH  22  24
ENDBRANCH  21  22
ENDBRANCH  20  21
ENDBRANCH  19  20
ENDBRANCH   3  19
BRANCH   4  29
ATOM     28  O   UNL     1      32.805 -22.942 -12.710  0.00  0.00    -0.245 OA
ATOM     29  C   UNL     1      32.709 -23.807 -13.561  0.00  0.00    +0.342 C 
BRANCH  29  30
ATOM     30  O   UNL     1      32.248 -25.074 -13.421  0.00  0.00    -0.441 OA
ATOM     31  C   UNL     1      30.886 -25.180 -12.994  0.00  0.00    +0.256 C 
ENDBRANCH  29  30
ENDBRANCH   4  29
TORSDOF 10
ENDMDL
MODEL 3
REMARK VINA RESULT:      -7.2     14.363     18.106
REMARK  Name = 153994
REMARK  10 active torsions:
REMARK  status: ('A' for Active; 'I' for Inactive)
REMARK    1  A    between atoms: C_2  and  C_12
REMARK    2  A    between atoms: C_3  and  C_19
REMARK    3  A    between atoms: C_4  and  C_29
REMARK    4  A    between atoms: C_19  and  O_20
REMARK    5  A    between atoms: O_20  and  C_21
REMARK    6  A    between atoms: C_21  and  O_22
REMARK    7  A    between atoms: O_22  and  C_24
REMARK    8  A    between atoms: C_24  and  C_25
REMARK    9  A    between atoms: C_25  and  C_26
REMARK   10  A    between atoms: C_29  and  O_30
REMARK                            x       y       z     vdW  Elec       q    Type
REMARK                         _______ _______ _______ _____ _____    ______ ____
ROOT
ATOM      1  N   UNL     1      31.639 -11.090 -21.252  0.00  0.00    -0.334 N 
ATOM      2  C   UNL     1      33.030  -8.912 -22.412  0.00  0.00    +0.012 C 
ATOM      3  C   UNL     1      32.287  -8.820 -21.075  0.00  0.00    +0.071 C 
ATOM      4  C   UNL     1      33.081 -10.337 -22.970  0.00  0.00    +0.085 C 
ATOM      5  C   UNL     1      31.624  -9.885 -20.568  0.00  0.00    +0.098 C 
ATOM      6  C   UNL     1      32.377 -11.340 -22.397  0.00  0.00    +0.028 C 
ATOM      7  C   UNL     1      30.833  -9.891 -19.288  0.00  0.00    +0.026 C 
ATOM      8  C   UNL     1      32.316 -12.759 -22.895  0.00  0.00    +0.047 C 
ATOM      9  H   UNL     1      31.084 -11.822 -20.898  0.00  0.00    +0.147 HD
ENDROOT
BRANCH   2  12
ATOM     10 CL   UNL     1      34.858  -6.985 -23.902  0.00  0.00    -0.081 Cl
ATOM     11 CL   UNL     1      33.375  -5.074 -26.016  0.00  0.00    -0.081 Cl
ATOM     12  C   UNL     1      32.396  -7.991 -23.415  0.00  0.00    +0.012 C 
ATOM     13  C   UNL     1      33.144  -7.072 -24.150  0.00  0.00    +0.068 C 
ATOM     14  C   UNL     1      31.016  -8.077 -23.602  0.00  0.00    +0.001 C 
ATOM     15  C   UNL     1      32.511  -6.237 -25.072  0.00  0.00    +0.068 C 
ATOM     16  C   UNL     1      30.384  -7.242 -24.522  0.00  0.00    +0.001 C 
ATOM     17  C   UNL     1      31.131  -6.321 -25.258  0.00  0.00    +0.012 C 
ENDBRANCH   2  12
BRANCH   3  19
ATOM     18  O   UNL     1      33.318  -7.261 -19.619  0.00  0.00    -0.245 OA
ATOM     19  C   UNL     1      32.387  -7.543 -20.351  0.00  0.00    +0.341 C 
BRANCH  19  20
ATOM     20  O   UNL     1      31.296  -6.797 -20.648  0.00  0.00    -0.405 OA
BRANCH  20  21
ATOM     21  C   UNL     1      31.557  -5.511 -21.234  0.00  0.00    +0.433 C 
BRANCH  21  22
ATOM     22  O   UNL     1      30.458  -5.001 -22.007  0.00  0.00    -0.408 OA
BRANCH  22  24
ATOM     23  O   UNL     1      29.743  -2.813 -22.154  0.00  0.00    -0.250 OA
ATOM     24  C   UNL     1      30.551  -3.698 -22.403  0.00  0.00    +0.320 C 
BRANCH  24  25
ATOM     25  C   UNL     1      31.802  -3.523 -23.234  0.00  0.00    +0.110 C 
BRANCH  25  26
ATOM     26  C   UNL     1      31.729  -2.322 -24.175  0.00  0.00    +0.012 C 
ATOM     27  C   UNL     1      30.901  -2.605 -25.422  0.00  0.00    +0.001 C 
ENDBRANCH  25  26
ENDBRANCH  24  25
ENDBRANCH  22  24
ENDBRANCH  21  22
ENDBRANCH  20  21
ENDBRANCH  19  20
ENDBRANCH   3  19
BRANCH   4  29
ATOM     28  O   UNL     1      35.170 -10.365 -24.092  0.00  0.00    -0.245 OA
ATOM     29  C   UNL     1      33.969 -10.563 -24.123  0.00  0.00    +0.342 C 
BRANCH  29  30
ATOM     30  O   UNL     1      33.219 -11.012 -25.158  0.00  0.00    -0.441 OA
ATOM     31  C   UNL     1      33.891 -11.907 -26.051  0.00  0.00    +0.256 C 
ENDBRANCH  29  30
ENDBRANCH   4  29
TORSDOF 10
ENDMDL
MODEL 4
REMARK VINA RESULT:      -6.6     10.787     16.436
REMARK  Name = 153994
REMARK  10 active torsions:
REMARK  status: ('A' for Active; 'I' for Inactive)
REMARK    1  A    between atoms: C_2  and  C_12
REMARK    2  A    between atoms: C_3  and  C_19
REMARK    3  A    between atoms: C_4  and  C_29
REMARK    4  A    between atoms: C_19  and  O_20
REMARK    5  A    between atoms: O_20  and  C_21
REMARK    6  A    between atoms: C_21  and  O_22
REMARK    7  A    between atoms: O_22  and  C_24
REMARK    8  A    between atoms: C_24  and  C_25
REMARK    9  A    between atoms: C_25  and  C_26
REMARK   10  A    between atoms: C_29  and  O_30
REMARK                            x       y       z     vdW  Elec       q    Type
REMARK                         _______ _______ _______ _____ _____    ______ ____
ROOT
ATOM      1  N   UNL     1      33.733 -11.487 -24.658  0.00  0.00    -0.334 N 
ATOM      2  C   UNL     1      33.132  -9.445 -22.790  0.00  0.00    +0.012 C 
ATOM      3  C   UNL     1      32.504 -10.842 -22.741  0.00  0.00    +0.071 C 
ATOM      4  C   UNL     1      34.234  -9.321 -23.847  0.00  0.00    +0.085 C 
ATOM      5  C   UNL     1      32.812 -11.780 -23.666  0.00  0.00    +0.098 C 
ATOM      6  C   UNL     1      34.465 -10.313 -24.736  0.00  0.00    +0.028 C 
ATOM      7  C   UNL     1      32.227 -13.165 -23.732  0.00  0.00    +0.026 C 
ATOM      8  C   UNL     1      35.484 -10.272 -25.843  0.00  0.00    +0.047 C 
ATOM      9  H   UNL     1      33.878 -12.162 -25.361  0.00  0.00    +0.147 HD
ENDROOT
BRANCH   2  12
ATOM     10 CL   UNL     1      32.657  -7.370 -20.612  0.00  0.00    -0.081 Cl
ATOM     11 CL   UNL     1      30.357  -5.224 -21.265  0.00  0.00    -0.081 Cl
ATOM     12  C   UNL     1      32.068  -8.414 -23.036  0.00  0.00    +0.012 C 
ATOM     13  C   UNL     1      31.772  -7.420 -22.103  0.00  0.00    +0.068 C 
ATOM     14  C   UNL     1      31.368  -8.469 -24.241  0.00  0.00    +0.001 C 
ATOM     15  C   UNL     1      30.776  -6.482 -22.375  0.00  0.00    +0.068 C 
ATOM     16  C   UNL     1      30.371  -7.533 -24.513  0.00  0.00    +0.001 C 
ATOM     17  C   UNL     1      30.075  -6.539 -23.580  0.00  0.00    +0.012 C 
ENDBRANCH   2  12
BRANCH   3  19
ATOM     18  O   UNL     1      30.405 -10.939 -21.647  0.00  0.00    -0.245 OA
ATOM     19  C   UNL     1      31.607 -11.123 -21.609  0.00  0.00    +0.341 C 
BRANCH  19  20
ATOM     20  O   UNL     1      32.352 -11.596 -20.581  0.00  0.00    -0.405 OA
BRANCH  20  21
ATOM     21  C   UNL     1      32.209 -12.998 -20.297  0.00  0.00    +0.433 C 
BRANCH  21  22
ATOM     22  O   UNL     1      33.357 -13.778 -20.671  0.00  0.00    -0.408 OA
BRANCH  22  24
ATOM     23  O   UNL     1      32.072 -15.657 -21.047  0.00  0.00    -0.250 OA
ATOM     24  C   UNL     1      33.150 -15.118 -20.832  0.00  0.00    +0.320 C 
BRANCH  24  25
ATOM     25  C   UNL     1      34.466 -15.843 -20.670  0.00  0.00    +0.110 C 
BRANCH  25  26
ATOM     26  C   UNL     1      34.809 -16.731 -21.865  0.00  0.00    +0.012 C 
ATOM     27  C   UNL     1      34.903 -15.948 -23.168  0.00  0.00    +0.001 C 
ENDBRANCH  25  26
ENDBRANCH  24  25
ENDBRANCH  22  24
ENDBRANCH  21  22
ENDBRANCH  20  21
ENDBRANCH  19  20
ENDBRANCH   3  19
BRANCH   4  29
ATOM     28  O   UNL     1      35.606  -7.693 -22.804  0.00  0.00    -0.245 OA
ATOM     29  C   UNL     1      35.050  -8.097 -23.809  0.00  0.00    +0.342 C 
BRANCH  29  30
ATOM     30  O   UNL     1      35.056  -7.549 -25.048  0.00  0.00    -0.441 OA
ATOM     31  C   UNL     1      34.308  -6.335 -25.178  0.00  0.00    +0.256 C 
ENDBRANCH  29  30
ENDBRANCH   4  29
TORSDOF 10
ENDMDL
MODEL 5
REMARK VINA RESULT:      -6.5     11.009     14.888
REMARK  Name = 153994
REMARK  10 active torsions:
REMARK  status: ('A' for Active; 'I' for Inactive)
REMARK    1  A    between atoms: C_2  and  C_12
REMARK    2  A    between atoms: C_3  and  C_19
REMARK    3  A    between atoms: C_4  and  C_29
REMARK    4  A    between atoms: C_19  and  O_20
REMARK    5  A    between atoms: O_20  and  C_21
REMARK    6  A    between atoms: C_21  and  O_22
REMARK    7  A    between atoms: O_22  and  C_24
REMARK    8  A    between atoms: C_24  and  C_25
REMARK    9  A    between atoms: C_25  and  C_26
REMARK   10  A    between atoms: C_29  and  O_30
REMARK                            x       y       z     vdW  Elec       q    Type
REMARK                         _______ _______ _______ _____ _____    ______ ____
ROOT
ATOM      1  N   UNL     1      31.379 -13.132 -21.214  0.00  0.00    -0.334 N 
ATOM      2  C   UNL     1      33.547 -12.302 -22.837  0.00  0.00    +0.012 C 
ATOM      3  C   UNL     1      32.369 -11.391 -22.475  0.00  0.00    +0.071 C 
ATOM      4  C   UNL     1      33.513 -13.644 -22.101  0.00  0.00    +0.085 C 
ATOM      5  C   UNL     1      31.349 -11.838 -21.708  0.00  0.00    +0.098 C 
ATOM      6  C   UNL     1      32.442 -14.009 -21.359  0.00  0.00    +0.028 C 
ATOM      7  C   UNL     1      30.131 -11.042 -21.327  0.00  0.00    +0.026 C 
ATOM      8  C   UNL     1      32.286 -15.322 -20.640  0.00  0.00    +0.047 C 
ATOM      9  H   UNL     1      30.588 -13.453 -20.725  0.00  0.00    +0.147 HD
ENDROOT
BRANCH   2  12
ATOM     10 CL   UNL     1      35.380 -10.523 -24.495  0.00  0.00    -0.081 Cl
ATOM     11 CL   UNL     1      35.354 -11.120 -27.652  0.00  0.00    -0.081 Cl
ATOM     12  C   UNL     1      33.579 -12.532 -24.321  0.00  0.00    +0.012 C 
ATOM     13  C   UNL     1      34.385 -11.773 -25.170  0.00  0.00    +0.068 C 
ATOM     14  C   UNL     1      32.773 -13.543 -24.844  0.00  0.00    +0.001 C 
ATOM     15  C   UNL     1      34.382 -12.023 -26.542  0.00  0.00    +0.068 C 
ATOM     16  C   UNL     1      32.769 -13.792 -26.217  0.00  0.00    +0.001 C 
ATOM     17  C   UNL     1      33.574 -13.033 -27.066  0.00  0.00    +0.012 C 
ENDBRANCH   2  12
BRANCH   3  19
ATOM     18  O   UNL     1      31.970  -9.629 -24.009  0.00  0.00    -0.245 OA
ATOM     19  C   UNL     1      32.441 -10.000 -22.950  0.00  0.00    +0.341 C 
BRANCH  19  20
ATOM     20  O   UNL     1      33.101  -9.266 -22.022  0.00  0.00    -0.405 OA
BRANCH  20  21
ATOM     21  C   UNL     1      32.379  -8.151 -21.475  0.00  0.00    +0.433 C 
BRANCH  21  22
ATOM     22  O   UNL     1      32.748  -6.889 -22.055  0.00  0.00    -0.408 OA
BRANCH  22  24
ATOM     23  O   UNL     1      30.666  -6.012 -22.522  0.00  0.00    -0.250 OA
ATOM     24  C   UNL     1      31.812  -6.292 -22.850  0.00  0.00    +0.320 C 
BRANCH  24  25
ATOM     25  C   UNL     1      32.405  -6.058 -24.220  0.00  0.00    +0.110 C 
BRANCH  25  26
ATOM     26  C   UNL     1      33.813  -6.633 -24.366  0.00  0.00    +0.012 C 
ATOM     27  C   UNL     1      34.523  -6.128 -25.615  0.00  0.00    +0.001 C 
ENDBRANCH  25  26
ENDBRANCH  24  25
ENDBRANCH  22  24
ENDBRANCH  21  22
ENDBRANCH  20  21
ENDBRANCH  19  20
ENDBRANCH   3  19
BRANCH   4  29
ATOM     28  O   UNL     1      35.505 -14.641 -21.288  0.00  0.00    -0.245 OA
ATOM     29  C   UNL     1      34.718 -14.484 -22.204  0.00  0.00    +0.342 C 
BRANCH  29  30
ATOM     30  O   UNL     1      34.763 -15.016 -23.449  0.00  0.00    -0.441 OA
ATOM     31  C   UNL     1      34.677 -16.444 -23.503  0.00  0.00    +0.256 C 
ENDBRANCH  29  30
ENDBRANCH   4  29
TORSDOF 10
ENDMDL
MODEL 6
REMARK VINA RESULT:      -6.3      3.358      6.879
REMARK  Name = 153994
REMARK  10 active torsions:
REMARK  status: ('A' for Active; 'I' for Inactive)
REMARK    1  A    between atoms: C_2  and  C_12
REMARK    2  A    between atoms: C_3  and  C_19
REMARK    3  A    between atoms: C_4  and  C_29
REMARK    4  A    between atoms: C_19  and  O_20
REMARK    5  A    between atoms: O_20  and  C_21
REMARK    6  A    between atoms: C_21  and  O_22
REMARK    7  A    between atoms: O_22  and  C_24
REMARK    8  A    between atoms: C_24  and  C_25
REMARK    9  A    between atoms: C_25  and  C_26
REMARK   10  A    between atoms: C_29  and  O_30
REMARK                            x       y       z     vdW  Elec       q    Type
REMARK                         _______ _______ _______ _____ _____    ______ ____
ROOT
ATOM      1  N   UNL     1      33.151 -23.513 -13.490  0.00  0.00    -0.334 N 
ATOM      2  C   UNL     1      33.993 -23.909 -16.166  0.00  0.00    +0.012 C 
ATOM      3  C   UNL     1      34.705 -24.529 -14.959  0.00  0.00    +0.071 C 
ATOM      4  C   UNL     1      32.692 -23.194 -15.790  0.00  0.00    +0.085 C 
ATOM      5  C   UNL     1      34.273 -24.298 -13.697  0.00  0.00    +0.098 C 
ATOM      6  C   UNL     1      32.345 -23.004 -14.496  0.00  0.00    +0.028 C 
ATOM      7  C   UNL     1      34.920 -24.825 -12.445  0.00  0.00    +0.026 C 
ATOM      8  C   UNL     1      31.120 -22.272 -14.019  0.00  0.00    +0.047 C 
ATOM      9  H   UNL     1      32.908 -23.300 -12.560  0.00  0.00    +0.147 HD
ENDROOT
BRANCH   2  12
ATOM     10 CL   UNL     1      33.788 -23.742 -19.200  0.00  0.00    -0.081 Cl
ATOM     11 CL   UNL     1      35.815 -21.667 -20.581  0.00  0.00    -0.081 Cl
ATOM     12  C   UNL     1      34.916 -22.956 -16.871  0.00  0.00    +0.012 C 
ATOM     13  C   UNL     1      34.902 -22.804 -18.257  0.00  0.00    +0.068 C 
ATOM     14  C   UNL     1      35.803 -22.210 -16.096  0.00  0.00    +0.001 C 
ATOM     15  C   UNL     1      35.777 -21.906 -18.869  0.00  0.00    +0.068 C 
ATOM     16  C   UNL     1      36.679 -21.313 -16.707  0.00  0.00    +0.001 C 
ATOM     17  C   UNL     1      36.666 -21.161 -18.094  0.00  0.00    +0.012 C 
ENDBRANCH   2  12
BRANCH   3  19
ATOM     18  O   UNL     1      35.692 -26.553 -15.697  0.00  0.00    -0.245 OA
ATOM     19  C   UNL     1      35.832 -25.430 -15.249  0.00  0.00    +0.341 C 
BRANCH  19  20
ATOM     20  O   UNL     1      36.983 -24.790 -14.930  0.00  0.00    -0.405 OA
BRANCH  20  21
ATOM     21  C   UNL     1      38.175 -25.591 -14.964  0.00  0.00    +0.433 C 
BRANCH  21  22
ATOM     22  O   UNL     1      38.260 -26.537 -13.884  0.00  0.00    -0.408 OA
BRANCH  22  24
ATOM     23  O   UNL     1      37.436 -26.538 -11.730  0.00  0.00    -0.250 OA
ATOM     24  C   UNL     1      38.099 -26.033 -12.626  0.00  0.00    +0.320 C 
BRANCH  24  25
ATOM     25  C   UNL     1      38.849 -24.725 -12.518  0.00  0.00    +0.110 C 
BRANCH  25  26
ATOM     26  C   UNL     1      38.185 -23.733 -11.565  0.00  0.00    +0.012 C 
ATOM     27  C   UNL     1      37.473 -22.604 -12.298  0.00  0.00    +0.001 C 
ENDBRANCH  25  26
ENDBRANCH  24  25
ENDBRANCH  22  24
ENDBRANCH  21  22
ENDBRANCH  20  21
ENDBRANCH  19  20
ENDBRANCH   3  19
BRANCH   4  29
ATOM     28  O   UNL     1      32.110 -21.873 -17.670  0.00  0.00    -0.245 OA
ATOM     29  C   UNL     1      31.824 -22.774 -16.903  0.00  0.00    +0.342 C 
BRANCH  29  30
ATOM     30  O   UNL     1      30.714 -23.550 -16.896  0.00  0.00    -0.441 OA
ATOM     31  C   UNL     1      29.473 -22.836 -16.918  0.00  0.00    +0.256 C 
ENDBRANCH  29  30
ENDBRANCH   4  29
TORSDOF 10
ENDMDL
MODEL 7
REMARK VINA RESULT:      -6.2      8.993     13.981
REMARK  Name = 153994
REMARK  10 active torsions:
REMARK  status: ('A' for Active; 'I' for Inactive)
REMARK    1  A    between atoms: C_2  and  C_12
REMARK    2  A    between atoms: C_3  and  C_19
REMARK    3  A    between atoms: C_4  and  C_29
REMARK    4  A    between atoms: C_19  and  O_20
REMARK    5  A    between atoms: O_20  and  C_21
REMARK    6  A    between atoms: C_21  and  O_22
REMARK    7  A    between atoms: O_22  and  C_24
REMARK    8  A    between atoms: C_24  and  C_25
REMARK    9  A    between atoms: C_25  and  C_26
REMARK   10  A    between atoms: C_29  and  O_30
REMARK                            x       y       z     vdW  Elec       q    Type
REMARK                         _______ _______ _______ _____ _____    ______ ____
ROOT
ATOM      1  N   UNL     1      32.592 -12.920 -20.408  0.00  0.00    -0.334 N 
ATOM      2  C   UNL     1      32.434 -12.399 -23.188  0.00  0.00    +0.012 C 
ATOM      3  C   UNL     1      33.083 -13.658 -22.603  0.00  0.00    +0.071 C 
ATOM      4  C   UNL     1      31.739 -11.538 -22.129  0.00  0.00    +0.085 C 
ATOM      5  C   UNL     1      33.147 -13.856 -21.266  0.00  0.00    +0.098 C 
ATOM      6  C   UNL     1      31.867 -11.810 -20.810  0.00  0.00    +0.028 C 
ATOM      7  C   UNL     1      33.792 -15.034 -20.589  0.00  0.00    +0.026 C 
ATOM      8  C   UNL     1      31.271 -11.001 -19.690  0.00  0.00    +0.047 C 
ATOM      9  H   UNL     1      32.723 -13.053 -19.441  0.00  0.00    +0.147 HD
ENDROOT
BRANCH   2  12
ATOM     10 CL   UNL     1      33.071 -13.182 -26.061  0.00  0.00    -0.081 Cl
ATOM     11 CL   UNL     1      35.289 -11.359 -27.502  0.00  0.00    -0.081 Cl
ATOM     12  C   UNL     1      33.465 -11.584 -23.916  0.00  0.00    +0.012 C 
ATOM     13  C   UNL     1      33.828 -11.859 -25.234  0.00  0.00    +0.068 C 
ATOM     14  C   UNL     1      34.062 -10.523 -23.234  0.00  0.00    +0.001 C 
ATOM     15  C   UNL     1      34.790 -11.074 -25.871  0.00  0.00    +0.068 C 
ATOM     16  C   UNL     1      35.024  -9.739 -23.870  0.00  0.00    +0.001 C 
ATOM     17  C   UNL     1      35.388 -10.014 -25.189  0.00  0.00    +0.012 C 
ENDBRANCH   2  12
BRANCH   3  19
ATOM     18  O   UNL     1      32.856 -15.178 -24.406  0.00  0.00    -0.245 OA
ATOM     19  C   UNL     1      33.568 -14.659 -23.567  0.00  0.00    +0.341 C 
BRANCH  19  20
ATOM     20  O   UNL     1      34.886 -14.869 -23.336  0.00  0.00    -0.405 OA
BRANCH  20  21
ATOM     21  C   UNL     1      35.359 -16.205 -23.576  0.00  0.00    +0.433 C 
BRANCH  21  22
ATOM     22  O   UNL     1      34.592 -17.213 -22.897  0.00  0.00    -0.408 OA
BRANCH  22  24
ATOM     23  O   UNL     1      34.547 -18.765 -24.603  0.00  0.00    -0.250 OA
ATOM     24  C   UNL     1      34.653 -18.473 -23.419  0.00  0.00    +0.320 C 
BRANCH  24  25
ATOM     25  C   UNL     1      34.841 -19.465 -22.294  0.00  0.00    +0.110 C 
BRANCH  25  26
ATOM     26  C   UNL     1      34.060 -19.093 -21.035  0.00  0.00    +0.012 C 
ATOM     27  C   UNL     1      32.903 -20.044 -20.762  0.00  0.00    +0.001 C 
ENDBRANCH  25  26
ENDBRANCH  24  25
ENDBRANCH  22  24
ENDBRANCH  21  22
ENDBRANCH  20  21
ENDBRANCH  19  20
ENDBRANCH   3  19
BRANCH   4  29
ATOM     28  O   UNL     1      29.782 -10.606 -23.089  0.00  0.00    -0.245 OA
ATOM     29  C   UNL     1      30.894 -10.438 -22.623  0.00  0.00    +0.342 C 
BRANCH  29  30
ATOM     30  O   UNL     1      31.568  -9.274 -22.459  0.00  0.00    -0.441 OA
ATOM     31  C   UNL     1      31.199  -8.227 -23.364  0.00  0.00    +0.256 C 
ENDBRANCH  29  30
ENDBRANCH   4  29
TORSDOF 10
ENDMDL
MODEL 8
REMARK VINA RESULT:      -6.0     10.883     15.746
REMARK  Name = 153994
REMARK  10 active torsions:
REMARK  status: ('A' for Active; 'I' for Inactive)
REMARK    1  A    between atoms: C_2  and  C_12
REMARK    2  A    between atoms: C_3  and  C_19
REMARK    3  A    between atoms: C_4  and  C_29
REMARK    4  A    between atoms: C_19  and  O_20
REMARK    5  A    between atoms: O_20  and  C_21
REMARK    6  A    between atoms: C_21  and  O_22
REMARK    7  A    between atoms: O_22  and  C_24
REMARK    8  A    between atoms: C_24  and  C_25
REMARK    9  A    between atoms: C_25  and  C_26
REMARK   10  A    between atoms: C_29  and  O_30
REMARK                            x       y       z     vdW  Elec       q    Type
REMARK                         _______ _______ _______ _____ _____    ______ ____
ROOT
ATOM      1  N   UNL     1      32.164  -7.917 -20.100  0.00  0.00    -0.334 N 
ATOM      2  C   UNL     1      31.722  -9.398 -22.474  0.00  0.00    +0.012 C 
ATOM      3  C   UNL     1      31.791 -10.038 -21.084  0.00  0.00    +0.071 C 
ATOM      4  C   UNL     1      31.752  -7.867 -22.430  0.00  0.00    +0.085 C 
ATOM      5  C   UNL     1      32.018  -9.289 -19.980  0.00  0.00    +0.098 C 
ATOM      6  C   UNL     1      31.994  -7.204 -21.276  0.00  0.00    +0.028 C 
ATOM      7  C   UNL     1      32.142  -9.820 -18.577  0.00  0.00    +0.026 C 
ATOM      8  C   UNL     1      32.096  -5.710 -21.134  0.00  0.00    +0.047 C 
ATOM      9  H   UNL     1      32.405  -7.410 -19.291  0.00  0.00    +0.147 HD
ENDROOT
BRANCH   2  12
ATOM     10 CL   UNL     1      31.365 -12.122 -23.788  0.00  0.00    -0.081 Cl
ATOM     11 CL   UNL     1      33.844 -13.094 -25.586  0.00  0.00    -0.081 Cl
ATOM     12  C   UNL     1      32.848  -9.908 -23.329  0.00  0.00    +0.012 C 
ATOM     13  C   UNL     1      32.784 -11.142 -23.975  0.00  0.00    +0.068 C 
ATOM     14  C   UNL     1      33.980  -9.105 -23.468  0.00  0.00    +0.001 C 
ATOM     15  C   UNL     1      33.854 -11.575 -24.758  0.00  0.00    +0.068 C 
ATOM     16  C   UNL     1      35.050  -9.538 -24.250  0.00  0.00    +0.001 C 
ATOM     17  C   UNL     1      34.987 -10.773 -24.896  0.00  0.00    +0.012 C 
ENDBRANCH   2  12
BRANCH   3  19
ATOM     18  O   UNL     1      30.419 -11.970 -21.074  0.00  0.00    -0.245 OA
ATOM     19  C   UNL     1      31.534 -11.485 -21.010  0.00  0.00    +0.341 C 
BRANCH  19  20
ATOM     20  O   UNL     1      32.720 -12.122 -20.862  0.00  0.00    -0.405 OA
BRANCH  20  21
ATOM     21  C   UNL     1      32.651 -13.550 -20.718  0.00  0.00    +0.433 C 
BRANCH  21  22
ATOM     22  O   UNL     1      33.367 -14.264 -21.739  0.00  0.00    -0.408 OA
BRANCH  22  24
ATOM     23  O   UNL     1      34.916 -15.159 -20.284  0.00  0.00    -0.250 OA
ATOM     24  C   UNL     1      34.249 -15.213 -21.309  0.00  0.00    +0.320 C 
BRANCH  24  25
ATOM     25  C   UNL     1      34.298 -16.335 -22.319  0.00  0.00    +0.110 C 
BRANCH  25  26
ATOM     26  C   UNL     1      35.008 -15.942 -23.613  0.00  0.00    +0.012 C 
ATOM     27  C   UNL     1      34.747 -16.926 -24.746  0.00  0.00    +0.001 C 
ENDBRANCH  25  26
ENDBRANCH  24  25
ENDBRANCH  22  24
ENDBRANCH  21  22
ENDBRANCH  20  21
ENDBRANCH  19  20
ENDBRANCH   3  19
BRANCH   4  29
ATOM     28  O   UNL     1      30.421  -7.314 -24.313  0.00  0.00    -0.245 OA
ATOM     29  C   UNL     1      31.457  -7.164 -23.690  0.00  0.00    +0.342 C 
BRANCH  29  30
ATOM     30  O   UNL     1      32.509  -6.366 -23.991  0.00  0.00    -0.441 OA
ATOM     31  C   UNL     1      32.218  -5.293 -24.893  0.00  0.00    +0.256 C 
ENDBRANCH  29  30
ENDBRANCH   4  29
TORSDOF 10
ENDMDL
MODEL 9
REMARK VINA RESULT:      -5.9      3.812      6.035
REMARK  Name = 153994
REMARK  10 active torsions:
REMARK  status: ('A' for Active; 'I' for Inactive)
REMARK    1  A    between atoms: C_2  and  C_12
REMARK    2  A    between atoms: C_3  and  C_19
REMARK    3  A    between atoms: C_4  and  C_29
REMARK    4  A    between atoms: C_19  and  O_20
REMARK    5  A    between atoms: O_20  and  C_21
REMARK    6  A    between atoms: C_21  and  O_22
REMARK    7  A    between atoms: O_22  and  C_24
REMARK    8  A    between atoms: C_24  and  C_25
REMARK    9  A    between atoms: C_25  and  C_26
REMARK   10  A    between atoms: C_29  and  O_30
REMARK                            x       y       z     vdW  Elec       q    Type
REMARK                         _______ _______ _______ _____ _____    ______ ____
ROOT
ATOM      1  N   UNL     1      34.228 -25.593 -14.250  0.00  0.00    -0.334 N 
ATOM      2  C   UNL     1      34.727 -23.065 -15.426  0.00  0.00    +0.012 C 
ATOM      3  C   UNL     1      33.336 -23.523 -14.973  0.00  0.00    +0.071 C 
ATOM      4  C   UNL     1      35.837 -24.042 -15.028  0.00  0.00    +0.085 C 
ATOM      5  C   UNL     1      33.146 -24.748 -14.429  0.00  0.00    +0.098 C 
ATOM      6  C   UNL     1      35.548 -25.251 -14.495  0.00  0.00    +0.028 C 
ATOM      7  C   UNL     1      31.821 -25.309 -13.988  0.00  0.00    +0.026 C 
ATOM      8  C   UNL     1      36.557 -26.302 -14.119  0.00  0.00    +0.047 C 
ATOM      9  H   UNL     1      34.046 -26.504 -13.925  0.00  0.00    +0.147 HD
ENDROOT
BRANCH   2  12
ATOM     10 CL   UNL     1      36.740 -21.075 -16.549  0.00  0.00    -0.081 Cl
ATOM     11 CL   UNL     1      36.658 -20.720 -19.741  0.00  0.00    -0.081 Cl
ATOM     12  C   UNL     1      34.737 -22.854 -16.913  0.00  0.00    +0.012 C 
ATOM     13  C   UNL     1      35.620 -21.967 -17.528  0.00  0.00    +0.068 C 
ATOM     14  C   UNL     1      33.830 -23.582 -17.684  0.00  0.00    +0.001 C 
ATOM     15  C   UNL     1      35.594 -21.804 -18.913  0.00  0.00    +0.068 C 
ATOM     16  C   UNL     1      33.803 -23.419 -19.069  0.00  0.00    +0.001 C 
ATOM     17  C   UNL     1      34.685 -22.530 -19.684  0.00  0.00    +0.012 C 
ENDBRANCH   2  12
BRANCH   3  19
ATOM     18  O   UNL     1      31.977 -21.724 -14.244  0.00  0.00    -0.245 OA
ATOM     19  C   UNL     1      32.244 -22.545 -15.102  0.00  0.00    +0.341 C 
BRANCH  19  20
ATOM     20  O   UNL     1      31.637 -22.739 -16.297  0.00  0.00    -0.405 OA
BRANCH  20  21
ATOM     21  C   UNL     1      30.293 -23.245 -16.242  0.00  0.00    +0.433 C 
BRANCH  21  22
ATOM     22  O   UNL     1      29.348 -22.440 -16.967  0.00  0.00    -0.408 OA
BRANCH  22  24
ATOM     23  O   UNL     1      27.636 -23.754 -17.781  0.00  0.00    -0.250 OA
ATOM     24  C   UNL     1      28.065 -22.906 -17.010  0.00  0.00    +0.320 C 
BRANCH  24  25
ATOM     25  C   UNL     1      27.242 -22.182 -15.970  0.00  0.00    +0.110 C 
BRANCH  25  26
ATOM     26  C   UNL     1      25.878 -21.736 -16.493  0.00  0.00    +0.012 C 
ATOM     27  C   UNL     1      25.976 -20.972 -17.806  0.00  0.00    +0.001 C 
ENDBRANCH  25  26
ENDBRANCH  24  25
ENDBRANCH  22  24
ENDBRANCH  21  22
ENDBRANCH  20  21
ENDBRANCH  19  20
ENDBRANCH   3  19
BRANCH   4  29
ATOM     28  O   UNL     1      37.953 -23.983 -16.097  0.00  0.00    -0.245 OA
ATOM     29  C   UNL     1      37.222 -23.577 -15.212  0.00  0.00    +0.342 C 
BRANCH  29  30
ATOM     30  O   UNL     1      37.495 -22.660 -14.252  0.00  0.00    -0.441 OA
ATOM     31  C   UNL     1      37.792 -23.203 -12.961  0.00  0.00    +0.256 C 
ENDBRANCH  29  30
ENDBRANCH   4  29
TORSDOF 10
ENDMDL
