MODEL 1
REMARK VINA RESULT:     -11.9      0.000      0.000
REMARK  Name = 6914614
REMARK  7 active torsions:
REMARK  status: ('A' for Active; 'I' for Inactive)
REMARK    1  A    between atoms: O_1  and  C_4
REMARK    2  A    between atoms: O_1  and  C_18
REMARK    3  A    between atoms: C_9  and  C_13
REMARK    4  A    between atoms: C_18  and  C_19
REMARK    5  A    between atoms: C_19  and  N_20
REMARK    6  A    between atoms: C_19  and  C_24
REMARK    7  A    between atoms: C_24  and  C_26
REMARK                            x       y       z     vdW  Elec       q    Type
REMARK                         _______ _______ _______ _____ _____    ______ ____
ROOT
ATOM      1  O   UNL     1      33.649 -12.962 -23.846  0.00  0.00    -0.476 OA
ENDROOT
BRANCH   1   4
ATOM      2  N   UNL     1      34.558 -17.675 -23.319  0.00  0.00    -0.404 NA
ATOM      3  N   UNL     1      33.651 -15.684 -26.242  0.00  0.00    -0.258 NA
ATOM      4  C   UNL     1      33.773 -14.227 -24.328  0.00  0.00    +0.159 C 
ATOM      5  C   UNL     1      34.117 -15.311 -23.511  0.00  0.00    +0.063 C 
ATOM      6  C   UNL     1      34.230 -16.599 -24.062  0.00  0.00    +0.136 C 
ATOM      7  C   UNL     1      34.357 -15.159 -22.138  0.00  0.00    +0.008 C 
ATOM      8  C   UNL     1      33.553 -14.466 -25.672  0.00  0.00    +0.130 C 
ATOM      9  C   UNL     1      34.782 -17.486 -21.998  0.00  0.00    +0.131 C 
ATOM     10  C   UNL     1      34.696 -16.262 -21.365  0.00  0.00    +0.032 C 
ATOM     11  C   UNL     1      33.985 -16.708 -25.420  0.00  0.00    +0.184 C 
BRANCH   9  13
ATOM     12  N   UNL     1      35.801 -20.997 -19.845  0.00  0.00    -0.242 NA
ATOM     13  C   UNL     1      35.129 -18.681 -21.265  0.00  0.00    +0.033 C 
ATOM     14  C   UNL     1      36.461 -18.964 -20.978  0.00  0.00    +0.023 C 
ATOM     15  C   UNL     1      34.134 -19.557 -20.842  0.00  0.00    +0.023 C 
ATOM     16  C   UNL     1      36.741 -20.123 -20.271  0.00  0.00    +0.099 C 
ATOM     17  C   UNL     1      34.519 -20.690 -20.142  0.00  0.00    +0.099 C 
ENDBRANCH   9  13
ENDBRANCH   1   4
BRANCH   1  18
ATOM     18  C   UNL     1      33.773 -11.893 -24.784  0.00  0.00    +0.184 C 
BRANCH  18  19
ATOM     19  C   UNL     1      34.254 -10.600 -24.114  0.00  0.00    -0.017 C 
BRANCH  19  20
ATOM     20  N   UNL     1      35.406 -10.084 -24.864  0.00  0.00    +0.384 N 
ATOM     21  H   UNL     1      35.895  -9.388 -24.300  0.00  0.00    -0.089 HD
ATOM     22  H   UNL     1      35.083  -9.654 -25.730  0.00  0.00    -0.089 HD
ATOM     23  H   UNL     1      36.042 -10.852 -25.081  0.00  0.00    -0.089 HD
ENDBRANCH  19  20
BRANCH  19  24
ATOM     24  C   UNL     1      33.183  -9.494 -24.041  0.00  0.00    +0.009 C 
BRANCH  24  26
ATOM     25  N   UNL     1      32.834  -7.751 -20.852  0.00  0.00    -0.312 N 
ATOM     26  C   UNL     1      32.905  -9.018 -22.643  0.00  0.00    -0.008 C 
ATOM     27  C   UNL     1      32.243  -9.752 -21.641  0.00  0.00    +0.011 C 
ATOM     28  C   UNL     1      32.208  -8.930 -20.512  0.00  0.00    +0.048 C 
ATOM     29  C   UNL     1      33.261  -7.800 -22.152  0.00  0.00    +0.058 C 
ATOM     30  C   UNL     1      31.663 -11.034 -21.563  0.00  0.00    +0.001 C 
ATOM     31  C   UNL     1      31.620  -9.326 -19.306  0.00  0.00    +0.015 C 
ATOM     32  C   UNL     1      31.072 -11.445 -20.363  0.00  0.00    +0.000 C 
ATOM     33  C   UNL     1      31.052 -10.602 -19.253  0.00  0.00    +0.001 C 
ATOM     34  H   UNL     1      32.956  -6.984 -20.247  0.00  0.00    +0.152 HD
ENDBRANCH  24  26
ENDBRANCH  19  24
ENDBRANCH  18  19
ENDBRANCH   1  18
TORSDOF 7
ENDMDL
MODEL 2
REMARK VINA RESULT:     -11.8      1.400      2.412
REMARK  Name = 6914614
REMARK  7 active torsions:
REMARK  status: ('A' for Active; 'I' for Inactive)
REMARK    1  A    between atoms: O_1  and  C_4
REMARK    2  A    between atoms: O_1  and  C_18
REMARK    3  A    between atoms: C_9  and  C_13
REMARK    4  A    between atoms: C_18  and  C_19
REMARK    5  A    between atoms: C_19  and  N_20
REMARK    6  A    between atoms: C_19  and  C_24
REMARK    7  A    between atoms: C_24  and  C_26
REMARK                            x       y       z     vdW  Elec       q    Type
REMARK                         _______ _______ _______ _____ _____    ______ ____
ROOT
ATOM      1  O   UNL     1      34.194 -14.189 -23.526  0.00  0.00    -0.476 OA
ENDROOT
BRANCH   1   4
ATOM      2  N   UNL     1      34.708 -18.931 -22.770  0.00  0.00    -0.404 NA
ATOM      3  N   UNL     1      34.202 -16.995 -25.824  0.00  0.00    -0.258 NA
ATOM      4  C   UNL     1      34.266 -15.478 -23.954  0.00  0.00    +0.159 C 
ATOM      5  C   UNL     1      34.459 -16.552 -23.076  0.00  0.00    +0.063 C 
ATOM      6  C   UNL     1      34.525 -17.864 -23.573  0.00  0.00    +0.136 C 
ATOM      7  C   UNL     1      34.591 -16.365 -21.693  0.00  0.00    +0.008 C 
ATOM      8  C   UNL     1      34.145 -15.752 -25.305  0.00  0.00    +0.130 C 
ATOM      9  C   UNL     1      34.832 -18.708 -21.441  0.00  0.00    +0.131 C 
ATOM     10  C   UNL     1      34.782 -17.458 -20.859  0.00  0.00    +0.032 C 
ATOM     11  C   UNL     1      34.389 -18.007 -24.944  0.00  0.00    +0.184 C 
BRANCH   9  13
ATOM     12  N   UNL     1      35.402 -22.195 -19.094  0.00  0.00    -0.242 NA
ATOM     13  C   UNL     1      35.026 -19.895 -20.643  0.00  0.00    +0.033 C 
ATOM     14  C   UNL     1      33.929 -20.630 -20.203  0.00  0.00    +0.023 C 
ATOM     15  C   UNL     1      36.311 -20.311 -20.306  0.00  0.00    +0.023 C 
ATOM     16  C   UNL     1      34.169 -21.762 -19.440  0.00  0.00    +0.099 C 
ATOM     17  C   UNL     1      36.444 -21.457 -19.538  0.00  0.00    +0.099 C 
ENDBRANCH   9  13
ENDBRANCH   1   4
BRANCH   1  18
ATOM     18  C   UNL     1      32.892 -13.649 -23.301  0.00  0.00    +0.184 C 
BRANCH  18  19
ATOM     19  C   UNL     1      32.955 -12.196 -22.816  0.00  0.00    -0.017 C 
BRANCH  19  20
ATOM     20  N   UNL     1      33.343 -11.341 -23.944  0.00  0.00    +0.384 N 
ATOM     21  H   UNL     1      33.601 -10.416 -23.597  0.00  0.00    -0.089 HD
ATOM     22  H   UNL     1      32.559 -11.255 -24.590  0.00  0.00    -0.089 HD
ATOM     23  H   UNL     1      34.139 -11.756 -24.427  0.00  0.00    -0.089 HD
ENDBRANCH  19  20
BRANCH  19  24
ATOM     24  C   UNL     1      31.627 -11.670 -22.237  0.00  0.00    +0.009 C 
BRANCH  24  26
ATOM     25  N   UNL     1      32.049  -9.575 -19.276  0.00  0.00    -0.312 N 
ATOM     26  C   UNL     1      31.805 -10.590 -21.208  0.00  0.00    -0.008 C 
ATOM     27  C   UNL     1      31.907  -9.211 -21.472  0.00  0.00    +0.011 C 
ATOM     28  C   UNL     1      32.062  -8.585 -20.233  0.00  0.00    +0.048 C 
ATOM     29  C   UNL     1      31.893 -10.801 -19.866  0.00  0.00    +0.058 C 
ATOM     30  C   UNL     1      31.887  -8.415 -22.635  0.00  0.00    +0.001 C 
ATOM     31  C   UNL     1      32.197  -7.199 -20.098  0.00  0.00    +0.015 C 
ATOM     32  C   UNL     1      32.020  -7.027 -22.516  0.00  0.00    +0.000 C 
ATOM     33  C   UNL     1      32.173  -6.430 -21.265  0.00  0.00    +0.001 C 
ATOM     34  H   UNL     1      32.139  -9.423 -18.308  0.00  0.00    +0.152 HD
ENDBRANCH  24  26
ENDBRANCH  19  24
ENDBRANCH  18  19
ENDBRANCH   1  18
TORSDOF 7
ENDMDL
MODEL 3
REMARK VINA RESULT:     -11.6      4.749      8.734
REMARK  Name = 6914614
REMARK  7 active torsions:
REMARK  status: ('A' for Active; 'I' for Inactive)
REMARK    1  A    between atoms: O_1  and  C_4
REMARK    2  A    between atoms: O_1  and  C_18
REMARK    3  A    between atoms: C_9  and  C_13
REMARK    4  A    between atoms: C_18  and  C_19
REMARK    5  A    between atoms: C_19  and  N_20
REMARK    6  A    between atoms: C_19  and  C_24
REMARK    7  A    between atoms: C_24  and  C_26
REMARK                            x       y       z     vdW  Elec       q    Type
REMARK                         _______ _______ _______ _____ _____    ______ ____
ROOT
ATOM      1  O   UNL     1      35.954 -20.636 -19.712  0.00  0.00    -0.476 OA
ENDROOT
BRANCH   1   4
ATOM      2  N   UNL     1      35.191 -23.604 -15.980  0.00  0.00    -0.404 NA
ATOM      3  N   UNL     1      33.043 -22.570 -18.745  0.00  0.00    -0.258 NA
ATOM      4  C   UNL     1      35.179 -21.484 -18.984  0.00  0.00    +0.159 C 
ATOM      5  C   UNL     1      35.640 -22.110 -17.819  0.00  0.00    +0.063 C 
ATOM      6  C   UNL     1      34.796 -22.977 -17.106  0.00  0.00    +0.136 C 
ATOM      7  C   UNL     1      36.936 -21.901 -17.328  0.00  0.00    +0.008 C 
ATOM      8  C   UNL     1      33.886 -21.746 -19.399  0.00  0.00    +0.130 C 
ATOM      9  C   UNL     1      36.450 -23.376 -15.538  0.00  0.00    +0.131 C 
ATOM     10  C   UNL     1      37.352 -22.543 -16.169  0.00  0.00    +0.032 C 
ATOM     11  C   UNL     1      33.524 -23.156 -17.623  0.00  0.00    +0.184 C 
BRANCH   9  13
ATOM     12  N   UNL     1      37.493 -25.441 -11.983  0.00  0.00    -0.242 NA
ATOM     13  C   UNL     1      36.804 -24.079 -14.328  0.00  0.00    +0.033 C 
ATOM     14  C   UNL     1      37.120 -23.370 -13.173  0.00  0.00    +0.023 C 
ATOM     15  C   UNL     1      36.834 -25.470 -14.309  0.00  0.00    +0.023 C 
ATOM     16  C   UNL     1      37.453 -24.091 -12.038  0.00  0.00    +0.099 C 
ATOM     17  C   UNL     1      37.181 -26.097 -13.123  0.00  0.00    +0.099 C 
ENDBRANCH   9  13
ENDBRANCH   1   4
BRANCH   1  18
ATOM     18  C   UNL     1      35.320 -19.921 -20.773  0.00  0.00    +0.184 C 
BRANCH  18  19
ATOM     19  C   UNL     1      36.149 -18.711 -21.220  0.00  0.00    -0.017 C 
BRANCH  19  20
ATOM     20  N   UNL     1      37.564 -19.099 -21.252  0.00  0.00    +0.384 N 
ATOM     21  H   UNL     1      37.768 -19.573 -22.132  0.00  0.00    -0.089 HD
ATOM     22  H   UNL     1      37.762 -19.727 -20.474  0.00  0.00    -0.089 HD
ATOM     23  H   UNL     1      38.147 -18.265 -21.173  0.00  0.00    -0.089 HD
ENDBRANCH  19  20
BRANCH  19  24
ATOM     24  C   UNL     1      35.761 -18.163 -22.607  0.00  0.00    +0.009 C 
BRANCH  24  26
ATOM     25  N   UNL     1      34.127 -15.002 -21.786  0.00  0.00    -0.312 N 
ATOM     26  C   UNL     1      35.024 -16.854 -22.551  0.00  0.00    -0.008 C 
ATOM     27  C   UNL     1      34.418 -16.204 -23.642  0.00  0.00    +0.011 C 
ATOM     28  C   UNL     1      33.855 -15.031 -23.136  0.00  0.00    +0.048 C 
ATOM     29  C   UNL     1      34.841 -16.113 -21.424  0.00  0.00    +0.058 C 
ATOM     30  C   UNL     1      34.283 -16.482 -25.018  0.00  0.00    +0.001 C 
ATOM     31  C   UNL     1      33.162 -14.118 -23.938  0.00  0.00    +0.015 C 
ATOM     32  C   UNL     1      33.592 -15.578 -25.832  0.00  0.00    +0.000 C 
ATOM     33  C   UNL     1      33.040 -14.414 -25.299  0.00  0.00    +0.001 C 
ATOM     34  H   UNL     1      33.849 -14.286 -21.172  0.00  0.00    +0.152 HD
ENDBRANCH  24  26
ENDBRANCH  19  24
ENDBRANCH  18  19
ENDBRANCH   1  18
TORSDOF 7
ENDMDL
MODEL 4
REMARK VINA RESULT:     -11.6      4.815     11.521
REMARK  Name = 6914614
REMARK  7 active torsions:
REMARK  status: ('A' for Active; 'I' for Inactive)
REMARK    1  A    between atoms: O_1  and  C_4
REMARK    2  A    between atoms: O_1  and  C_18
REMARK    3  A    between atoms: C_9  and  C_13
REMARK    4  A    between atoms: C_18  and  C_19
REMARK    5  A    between atoms: C_19  and  N_20
REMARK    6  A    between atoms: C_19  and  C_24
REMARK    7  A    between atoms: C_24  and  C_26
REMARK                            x       y       z     vdW  Elec       q    Type
REMARK                         _______ _______ _______ _____ _____    ______ ____
ROOT
ATOM      1  O   UNL     1      36.600 -22.169 -18.604  0.00  0.00    -0.476 OA
ENDROOT
BRANCH   1   4
ATOM      2  N   UNL     1      33.956 -19.198 -21.343  0.00  0.00    -0.404 NA
ATOM      3  N   UNL     1      33.034 -22.047 -19.255  0.00  0.00    -0.258 NA
ATOM      4  C   UNL     1      35.419 -21.739 -19.124  0.00  0.00    +0.159 C 
ATOM      5  C   UNL     1      35.337 -20.644 -19.994  0.00  0.00    +0.063 C 
ATOM      6  C   UNL     1      34.090 -20.243 -20.503  0.00  0.00    +0.136 C 
ATOM      7  C   UNL     1      36.471 -19.920 -20.385  0.00  0.00    +0.008 C 
ATOM      8  C   UNL     1      34.250 -22.398 -18.791  0.00  0.00    +0.130 C 
ATOM      9  C   UNL     1      35.075 -18.523 -21.696  0.00  0.00    +0.131 C 
ATOM     10  C   UNL     1      36.343 -18.840 -21.249  0.00  0.00    +0.032 C 
ATOM     11  C   UNL     1      32.994 -20.985 -20.094  0.00  0.00    +0.184 C 
BRANCH   9  13
ATOM     12  N   UNL     1      34.438 -15.271 -24.343  0.00  0.00    -0.242 NA
ATOM     13  C   UNL     1      34.858 -17.416 -22.596  0.00  0.00    +0.033 C 
ATOM     14  C   UNL     1      34.779 -17.636 -23.968  0.00  0.00    +0.023 C 
ATOM     15  C   UNL     1      34.727 -16.123 -22.099  0.00  0.00    +0.023 C 
ATOM     16  C   UNL     1      34.569 -16.540 -24.791  0.00  0.00    +0.099 C 
ATOM     17  C   UNL     1      34.520 -15.095 -23.005  0.00  0.00    +0.099 C 
ENDBRANCH   9  13
ENDBRANCH   1   4
BRANCH   1  18
ATOM     18  C   UNL     1      36.910 -21.764 -17.271  0.00  0.00    +0.184 C 
BRANCH  18  19
ATOM     19  C   UNL     1      36.528 -22.838 -16.245  0.00  0.00    -0.017 C 
BRANCH  19  20
ATOM     20  N   UNL     1      37.753 -23.506 -15.788  0.00  0.00    +0.384 N 
ATOM     21  H   UNL     1      37.681 -23.703 -14.790  0.00  0.00    -0.089 HD
ATOM     22  H   UNL     1      38.555 -22.900 -15.958  0.00  0.00    -0.089 HD
ATOM     23  H   UNL     1      37.874 -24.381 -16.299  0.00  0.00    -0.089 HD
ENDBRANCH  19  20
BRANCH  19  24
ATOM     24  C   UNL     1      35.780 -22.292 -15.014  0.00  0.00    +0.009 C 
BRANCH  24  26
ATOM     25  N   UNL     1      34.148 -24.891 -13.035  0.00  0.00    -0.312 N 
ATOM     26  C   UNL     1      34.877 -23.301 -14.362  0.00  0.00    -0.008 C 
ATOM     27  C   UNL     1      33.533 -23.543 -14.703  0.00  0.00    +0.011 C 
ATOM     28  C   UNL     1      33.089 -24.555 -13.848  0.00  0.00    +0.048 C 
ATOM     29  C   UNL     1      35.242 -24.128 -13.345  0.00  0.00    +0.058 C 
ATOM     30  C   UNL     1      32.634 -23.011 -15.649  0.00  0.00    +0.001 C 
ATOM     31  C   UNL     1      31.786 -25.063 -13.892  0.00  0.00    +0.015 C 
ATOM     32  C   UNL     1      31.328 -23.509 -15.705  0.00  0.00    +0.000 C 
ATOM     33  C   UNL     1      30.912 -24.520 -14.839  0.00  0.00    +0.001 C 
ATOM     34  H   UNL     1      34.121 -25.579 -12.333  0.00  0.00    +0.152 HD
ENDBRANCH  24  26
ENDBRANCH  19  24
ENDBRANCH  18  19
ENDBRANCH   1  18
TORSDOF 7
ENDMDL
MODEL 5
REMARK VINA RESULT:     -11.3      1.335      2.318
REMARK  Name = 6914614
REMARK  7 active torsions:
REMARK  status: ('A' for Active; 'I' for Inactive)
REMARK    1  A    between atoms: O_1  and  C_4
REMARK    2  A    between atoms: O_1  and  C_18
REMARK    3  A    between atoms: C_9  and  C_13
REMARK    4  A    between atoms: C_18  and  C_19
REMARK    5  A    between atoms: C_19  and  N_20
REMARK    6  A    between atoms: C_19  and  C_24
REMARK    7  A    between atoms: C_24  and  C_26
REMARK                            x       y       z     vdW  Elec       q    Type
REMARK                         _______ _______ _______ _____ _____    ______ ____
ROOT
ATOM      1  O   UNL     1      34.152 -13.511 -23.448  0.00  0.00    -0.476 OA
ENDROOT
BRANCH   1   4
ATOM      2  N   UNL     1      34.662 -18.287 -22.945  0.00  0.00    -0.404 NA
ATOM      3  N   UNL     1      34.030 -16.203 -25.875  0.00  0.00    -0.258 NA
ATOM      4  C   UNL     1      34.193 -14.778 -23.940  0.00  0.00    +0.159 C 
ATOM      5  C   UNL     1      34.418 -15.894 -23.124  0.00  0.00    +0.063 C 
ATOM      6  C   UNL     1      34.450 -17.181 -23.686  0.00  0.00    +0.136 C 
ATOM      7  C   UNL     1      34.616 -15.774 -21.742  0.00  0.00    +0.008 C 
ATOM      8  C   UNL     1      34.007 -14.986 -25.295  0.00  0.00    +0.130 C 
ATOM      9  C   UNL     1      34.850 -18.129 -21.614  0.00  0.00    +0.131 C 
ATOM     10  C   UNL     1      34.837 -16.908 -20.970  0.00  0.00    +0.032 C 
ATOM     11  C   UNL     1      34.249 -17.257 -25.054  0.00  0.00    +0.184 C 
BRANCH   9  13
ATOM     12  N   UNL     1      35.502 -21.729 -19.468  0.00  0.00    -0.242 NA
ATOM     13  C   UNL     1      35.071 -19.354 -20.883  0.00  0.00    +0.033 C 
ATOM     14  C   UNL     1      36.367 -19.767 -20.586  0.00  0.00    +0.023 C 
ATOM     15  C   UNL     1      33.992 -20.131 -20.473  0.00  0.00    +0.023 C 
ATOM     16  C   UNL     1      36.527 -20.950 -19.882  0.00  0.00    +0.099 C 
ATOM     17  C   UNL     1      34.258 -21.298 -19.775  0.00  0.00    +0.099 C 
ENDBRANCH   9  13
ENDBRANCH   1   4
BRANCH   1  18
ATOM     18  C   UNL     1      33.445 -12.537 -24.215  0.00  0.00    +0.184 C 
BRANCH  18  19
ATOM     19  C   UNL     1      33.743 -11.110 -23.738  0.00  0.00    -0.017 C 
BRANCH  19  20
ATOM     20  N   UNL     1      34.992 -10.659 -24.364  0.00  0.00    +0.384 N 
ATOM     21  H   UNL     1      35.786 -11.084 -23.884  0.00  0.00    -0.089 HD
ATOM     22  H   UNL     1      35.058  -9.644 -24.296  0.00  0.00    -0.089 HD
ATOM     23  H   UNL     1      35.000 -10.936 -25.345  0.00  0.00    -0.089 HD
ENDBRANCH  19  20
BRANCH  19  24
ATOM     24  C   UNL     1      32.634 -10.093 -24.069  0.00  0.00    +0.009 C 
BRANCH  24  26
ATOM     25  N   UNL     1      31.991  -8.336 -20.934  0.00  0.00    -0.312 N 
ATOM     26  C   UNL     1      32.341  -9.137 -22.947  0.00  0.00    -0.008 C 
ATOM     27  C   UNL     1      32.086  -7.760 -23.086  0.00  0.00    +0.011 C 
ATOM     28  C   UNL     1      31.867  -7.271 -21.797  0.00  0.00    +0.048 C 
ATOM     29  C   UNL     1      32.281  -9.478 -21.631  0.00  0.00    +0.058 C 
ATOM     30  C   UNL     1      32.015  -6.864 -24.173  0.00  0.00    +0.001 C 
ATOM     31  C   UNL     1      31.581  -5.925 -21.537  0.00  0.00    +0.015 C 
ATOM     32  C   UNL     1      31.730  -5.516 -23.928  0.00  0.00    +0.000 C 
ATOM     33  C   UNL     1      31.515  -5.056 -22.630  0.00  0.00    +0.001 C 
ATOM     34  H   UNL     1      31.888  -8.283 -19.956  0.00  0.00    +0.152 HD
ENDBRANCH  24  26
ENDBRANCH  19  24
ENDBRANCH  18  19
ENDBRANCH   1  18
TORSDOF 7
ENDMDL
MODEL 6
REMARK VINA RESULT:     -11.3      4.642      8.621
REMARK  Name = 6914614
REMARK  7 active torsions:
REMARK  status: ('A' for Active; 'I' for Inactive)
REMARK    1  A    between atoms: O_1  and  C_4
REMARK    2  A    between atoms: O_1  and  C_18
REMARK    3  A    between atoms: C_9  and  C_13
REMARK    4  A    between atoms: C_18  and  C_19
REMARK    5  A    between atoms: C_19  and  N_20
REMARK    6  A    between atoms: C_19  and  C_24
REMARK    7  A    between atoms: C_24  and  C_26
REMARK                            x       y       z     vdW  Elec       q    Type
REMARK                         _______ _______ _______ _____ _____    ______ ____
ROOT
ATOM      1  O   UNL     1      35.765 -20.675 -19.929  0.00  0.00    -0.476 OA
ENDROOT
BRANCH   1   4
ATOM      2  N   UNL     1      35.255 -23.427 -15.994  0.00  0.00    -0.404 NA
ATOM      3  N   UNL     1      32.948 -22.602 -18.701  0.00  0.00    -0.258 NA
ATOM      4  C   UNL     1      35.046 -21.492 -19.114  0.00  0.00    +0.159 C 
ATOM      5  C   UNL     1      35.579 -22.039 -17.939  0.00  0.00    +0.063 C 
ATOM      6  C   UNL     1      34.790 -22.877 -17.133  0.00  0.00    +0.136 C 
ATOM      7  C   UNL     1      36.892 -21.777 -17.528  0.00  0.00    +0.008 C 
ATOM      8  C   UNL     1      33.739 -21.803 -19.445  0.00  0.00    +0.130 C 
ATOM      9  C   UNL     1      36.529 -23.150 -15.632  0.00  0.00    +0.131 C 
ATOM     10  C   UNL     1      37.380 -22.340 -16.357  0.00  0.00    +0.032 C 
ATOM     11  C   UNL     1      33.497 -23.111 -17.573  0.00  0.00    +0.184 C 
BRANCH   9  13
ATOM     12  N   UNL     1      37.794 -24.978 -12.019  0.00  0.00    -0.242 NA
ATOM     13  C   UNL     1      36.959 -23.773 -14.403  0.00  0.00    +0.033 C 
ATOM     14  C   UNL     1      36.289 -23.508 -13.212  0.00  0.00    +0.023 C 
ATOM     15  C   UNL     1      38.047 -24.640 -14.400  0.00  0.00    +0.023 C 
ATOM     16  C   UNL     1      36.741 -24.131 -12.059  0.00  0.00    +0.099 C 
ATOM     17  C   UNL     1      38.420 -25.212 -13.194  0.00  0.00    +0.099 C 
ENDBRANCH   9  13
ENDBRANCH   1   4
BRANCH   1  18
ATOM     18  C   UNL     1      35.033 -19.872 -20.855  0.00  0.00    +0.184 C 
BRANCH  18  19
ATOM     19  C   UNL     1      35.898 -18.748 -21.440  0.00  0.00    -0.017 C 
BRANCH  19  20
ATOM     20  N   UNL     1      37.306 -19.036 -21.142  0.00  0.00    +0.384 N 
ATOM     21  H   UNL     1      37.457 -18.989 -20.134  0.00  0.00    -0.089 HD
ATOM     22  H   UNL     1      37.899 -18.349 -21.607  0.00  0.00    -0.089 HD
ATOM     23  H   UNL     1      37.540 -19.971 -21.477  0.00  0.00    -0.089 HD
ENDBRANCH  19  20
BRANCH  19  24
ATOM     24  C   UNL     1      35.746 -18.568 -22.963  0.00  0.00    +0.009 C 
BRANCH  24  26
ATOM     25  N   UNL     1      33.921 -15.838 -24.558  0.00  0.00    -0.312 N 
ATOM     26  C   UNL     1      34.956 -17.350 -23.349  0.00  0.00    -0.008 C 
ATOM     27  C   UNL     1      34.430 -16.395 -22.459  0.00  0.00    +0.011 C 
ATOM     28  C   UNL     1      33.776 -15.445 -23.247  0.00  0.00    +0.048 C 
ATOM     29  C   UNL     1      34.640 -17.001 -24.626  0.00  0.00    +0.058 C 
ATOM     30  C   UNL     1      34.433 -16.229 -21.060  0.00  0.00    +0.001 C 
ATOM     31  C   UNL     1      33.124 -14.333 -22.703  0.00  0.00    +0.015 C 
ATOM     32  C   UNL     1      33.785 -15.122 -20.502  0.00  0.00    +0.000 C 
ATOM     33  C   UNL     1      33.141 -14.189 -21.313  0.00  0.00    +0.001 C 
ATOM     34  H   UNL     1      33.559 -15.353 -25.334  0.00  0.00    +0.152 HD
ENDBRANCH  24  26
ENDBRANCH  19  24
ENDBRANCH  18  19
ENDBRANCH   1  18
TORSDOF 7
ENDMDL
MODEL 7
REMARK VINA RESULT:     -11.2      2.099      2.942
REMARK  Name = 6914614
REMARK  7 active torsions:
REMARK  status: ('A' for Active; 'I' for Inactive)
REMARK    1  A    between atoms: O_1  and  C_4
REMARK    2  A    between atoms: O_1  and  C_18
REMARK    3  A    between atoms: C_9  and  C_13
REMARK    4  A    between atoms: C_18  and  C_19
REMARK    5  A    between atoms: C_19  and  N_20
REMARK    6  A    between atoms: C_19  and  C_24
REMARK    7  A    between atoms: C_24  and  C_26
REMARK                            x       y       z     vdW  Elec       q    Type
REMARK                         _______ _______ _______ _____ _____    ______ ____
ROOT
ATOM      1  O   UNL     1      34.528 -14.475 -23.460  0.00  0.00    -0.476 OA
ENDROOT
BRANCH   1   4
ATOM      2  N   UNL     1      34.656 -19.235 -22.656  0.00  0.00    -0.404 NA
ATOM      3  N   UNL     1      34.514 -17.293 -25.744  0.00  0.00    -0.258 NA
ATOM      4  C   UNL     1      34.542 -15.769 -23.879  0.00  0.00    +0.159 C 
ATOM      5  C   UNL     1      34.595 -16.846 -22.985  0.00  0.00    +0.063 C 
ATOM      6  C   UNL     1      34.607 -18.164 -23.473  0.00  0.00    +0.136 C 
ATOM      7  C   UNL     1      34.635 -16.658 -21.597  0.00  0.00    +0.008 C 
ATOM      8  C   UNL     1      34.504 -16.045 -25.233  0.00  0.00    +0.130 C 
ATOM      9  C   UNL     1      34.695 -19.011 -21.322  0.00  0.00    +0.131 C 
ATOM     10  C   UNL     1      34.687 -17.755 -20.748  0.00  0.00    +0.032 C 
ATOM     11  C   UNL     1      34.565 -18.308 -24.850  0.00  0.00    +0.184 C 
BRANCH   9  13
ATOM     12  N   UNL     1      34.846 -22.510 -18.929  0.00  0.00    -0.242 NA
ATOM     13  C   UNL     1      34.746 -20.202 -20.508  0.00  0.00    +0.033 C 
ATOM     14  C   UNL     1      33.570 -20.842 -20.128  0.00  0.00    +0.023 C 
ATOM     15  C   UNL     1      35.972 -20.717 -20.097  0.00  0.00    +0.023 C 
ATOM     16  C   UNL     1      33.673 -21.982 -19.347  0.00  0.00    +0.099 C 
ATOM     17  C   UNL     1      35.967 -21.863 -19.317  0.00  0.00    +0.099 C 
ENDBRANCH   9  13
ENDBRANCH   1   4
BRANCH   1  18
ATOM     18  C   UNL     1      33.335 -13.727 -23.697  0.00  0.00    +0.184 C 
BRANCH  18  19
ATOM     19  C   UNL     1      33.639 -12.332 -24.257  0.00  0.00    -0.017 C 
BRANCH  19  20
ATOM     20  N   UNL     1      33.462 -12.362 -25.713  0.00  0.00    +0.384 N 
ATOM     21  H   UNL     1      32.584 -12.829 -25.940  0.00  0.00    -0.089 HD
ATOM     22  H   UNL     1      34.237 -12.870 -26.139  0.00  0.00    -0.089 HD
ATOM     23  H   UNL     1      33.442 -11.408 -26.074  0.00  0.00    -0.089 HD
ENDBRANCH  19  20
BRANCH  19  24
ATOM     24  C   UNL     1      32.747 -11.216 -23.678  0.00  0.00    +0.009 C 
BRANCH  24  26
ATOM     25  N   UNL     1      34.828  -8.234 -24.012  0.00  0.00    -0.312 N 
ATOM     26  C   UNL     1      33.354  -9.846 -23.784  0.00  0.00    -0.008 C 
ATOM     27  C   UNL     1      32.653  -8.628 -23.708  0.00  0.00    +0.011 C 
ATOM     28  C   UNL     1      33.607  -7.618 -23.855  0.00  0.00    +0.048 C 
ATOM     29  C   UNL     1      34.679  -9.595 -23.970  0.00  0.00    +0.058 C 
ATOM     30  C   UNL     1      31.303  -8.265 -23.529  0.00  0.00    +0.001 C 
ATOM     31  C   UNL     1      33.277  -6.258 -23.833  0.00  0.00    +0.015 C 
ATOM     32  C   UNL     1      30.958  -6.909 -23.505  0.00  0.00    +0.000 C 
ATOM     33  C   UNL     1      31.932  -5.922 -23.654  0.00  0.00    +0.001 C 
ATOM     34  H   UNL     1      35.684  -7.765 -24.137  0.00  0.00    +0.152 HD
ENDBRANCH  24  26
ENDBRANCH  19  24
ENDBRANCH  18  19
ENDBRANCH   1  18
TORSDOF 7
ENDMDL
MODEL 8
REMARK VINA RESULT:     -11.2      2.970     10.090
REMARK  Name = 6914614
REMARK  7 active torsions:
REMARK  status: ('A' for Active; 'I' for Inactive)
REMARK    1  A    between atoms: O_1  and  C_4
REMARK    2  A    between atoms: O_1  and  C_18
REMARK    3  A    between atoms: C_9  and  C_13
REMARK    4  A    between atoms: C_18  and  C_19
REMARK    5  A    between atoms: C_19  and  N_20
REMARK    6  A    between atoms: C_19  and  C_24
REMARK    7  A    between atoms: C_24  and  C_26
REMARK                            x       y       z     vdW  Elec       q    Type
REMARK                         _______ _______ _______ _____ _____    ______ ____
ROOT
ATOM      1  O   UNL     1      35.126 -18.661 -20.775  0.00  0.00    -0.476 OA
ENDROOT
BRANCH   1   4
ATOM      2  N   UNL     1      33.790 -14.870 -23.452  0.00  0.00    -0.404 NA
ATOM      3  N   UNL     1      35.077 -18.162 -24.367  0.00  0.00    -0.258 NA
ATOM      4  C   UNL     1      34.933 -18.033 -21.966  0.00  0.00    +0.159 C 
ATOM      5  C   UNL     1      34.440 -16.726 -22.055  0.00  0.00    +0.063 C 
ATOM      6  C   UNL     1      34.262 -16.125 -23.313  0.00  0.00    +0.136 C 
ATOM      7  C   UNL     1      34.111 -15.978 -20.916  0.00  0.00    +0.008 C 
ATOM      8  C   UNL     1      35.233 -18.700 -23.141  0.00  0.00    +0.130 C 
ATOM      9  C   UNL     1      33.484 -14.181 -22.328  0.00  0.00    +0.131 C 
ATOM     10  C   UNL     1      33.624 -14.684 -21.050  0.00  0.00    +0.032 C 
ATOM     11  C   UNL     1      34.598 -16.896 -24.413  0.00  0.00    +0.184 C 
BRANCH   9  13
ATOM     12  N   UNL     1      32.018 -10.256 -22.988  0.00  0.00    -0.242 NA
ATOM     13  C   UNL     1      32.986 -12.845 -22.553  0.00  0.00    +0.033 C 
ATOM     14  C   UNL     1      31.905 -12.368 -21.817  0.00  0.00    +0.023 C 
ATOM     15  C   UNL     1      33.581 -12.026 -23.507  0.00  0.00    +0.023 C 
ATOM     16  C   UNL     1      31.464 -11.079 -22.069  0.00  0.00    +0.099 C 
ATOM     17  C   UNL     1      33.065 -10.752 -23.685  0.00  0.00    +0.099 C 
ENDBRANCH   9  13
ENDBRANCH   1   4
BRANCH   1  18
ATOM     18  C   UNL     1      35.090 -20.088 -20.778  0.00  0.00    +0.184 C 
BRANCH  18  19
ATOM     19  C   UNL     1      33.934 -20.630 -19.927  0.00  0.00    -0.017 C 
BRANCH  19  20
ATOM     20  N   UNL     1      32.667 -20.269 -20.573  0.00  0.00    +0.384 N 
ATOM     21  H   UNL     1      31.949 -20.947 -20.316  0.00  0.00    -0.089 HD
ATOM     22  H   UNL     1      32.789 -20.271 -21.585  0.00  0.00    -0.089 HD
ATOM     23  H   UNL     1      32.381 -19.339 -20.266  0.00  0.00    -0.089 HD
ENDBRANCH  19  20
BRANCH  19  24
ATOM     24  C   UNL     1      33.965 -22.158 -19.727  0.00  0.00    +0.009 C 
BRANCH  24  26
ATOM     25  N   UNL     1      33.622 -23.382 -16.305  0.00  0.00    -0.312 N 
ATOM     26  C   UNL     1      34.098 -22.574 -18.290  0.00  0.00    -0.008 C 
ATOM     27  C   UNL     1      35.247 -22.421 -17.492  0.00  0.00    +0.011 C 
ATOM     28  C   UNL     1      34.924 -22.940 -16.237  0.00  0.00    +0.048 C 
ATOM     29  C   UNL     1      33.113 -23.162 -17.556  0.00  0.00    +0.058 C 
ATOM     30  C   UNL     1      36.539 -21.894 -17.697  0.00  0.00    +0.001 C 
ATOM     31  C   UNL     1      35.832 -22.961 -15.171  0.00  0.00    +0.015 C 
ATOM     32  C   UNL     1      37.457 -21.908 -16.640  0.00  0.00    +0.000 C 
ATOM     33  C   UNL     1      37.106 -22.433 -15.397  0.00  0.00    +0.001 C 
ATOM     34  H   UNL     1      33.130 -23.798 -15.561  0.00  0.00    +0.152 HD
ENDBRANCH  24  26
ENDBRANCH  19  24
ENDBRANCH  18  19
ENDBRANCH   1  18
TORSDOF 7
ENDMDL
MODEL 9
REMARK VINA RESULT:     -11.2      2.641      9.804
REMARK  Name = 6914614
REMARK  7 active torsions:
REMARK  status: ('A' for Active; 'I' for Inactive)
REMARK    1  A    between atoms: O_1  and  C_4
REMARK    2  A    between atoms: O_1  and  C_18
REMARK    3  A    between atoms: C_9  and  C_13
REMARK    4  A    between atoms: C_18  and  C_19
REMARK    5  A    between atoms: C_19  and  N_20
REMARK    6  A    between atoms: C_19  and  C_24
REMARK    7  A    between atoms: C_24  and  C_26
REMARK                            x       y       z     vdW  Elec       q    Type
REMARK                         _______ _______ _______ _____ _____    ______ ____
ROOT
ATOM      1  O   UNL     1      35.201 -18.164 -22.027  0.00  0.00    -0.476 OA
ENDROOT
BRANCH   1   4
ATOM      2  N   UNL     1      33.432 -14.183 -24.111  0.00  0.00    -0.404 NA
ATOM      3  N   UNL     1      34.468 -17.398 -25.496  0.00  0.00    -0.258 NA
ATOM      4  C   UNL     1      34.792 -17.449 -23.109  0.00  0.00    +0.159 C 
ATOM      5  C   UNL     1      34.310 -16.138 -23.005  0.00  0.00    +0.063 C 
ATOM      6  C   UNL     1      33.902 -15.445 -24.157  0.00  0.00    +0.136 C 
ATOM      7  C   UNL     1      34.219 -15.477 -21.773  0.00  0.00    +0.008 C 
ATOM      8  C   UNL     1      34.850 -18.026 -24.365  0.00  0.00    +0.130 C 
ATOM      9  C   UNL     1      33.358 -13.580 -22.902  0.00  0.00    +0.131 C 
ATOM     10  C   UNL     1      33.734 -14.177 -21.715  0.00  0.00    +0.032 C 
ATOM     11  C   UNL     1      34.009 -16.132 -25.355  0.00  0.00    +0.184 C 
BRANCH   9  13
ATOM     12  N   UNL     1      31.854  -9.614 -22.977  0.00  0.00    -0.242 NA
ATOM     13  C   UNL     1      32.846 -12.230 -22.928  0.00  0.00    +0.033 C 
ATOM     14  C   UNL     1      33.420 -11.279 -23.766  0.00  0.00    +0.023 C 
ATOM     15  C   UNL     1      31.775 -11.872 -22.114  0.00  0.00    +0.023 C 
ATOM     16  C   UNL     1      32.892  -9.998 -23.754  0.00  0.00    +0.099 C 
ATOM     17  C   UNL     1      31.321 -10.564 -22.175  0.00  0.00    +0.099 C 
ENDBRANCH   9  13
ENDBRANCH   1   4
BRANCH   1  18
ATOM     18  C   UNL     1      34.920 -19.563 -22.027  0.00  0.00    +0.184 C 
BRANCH  18  19
ATOM     19  C   UNL     1      34.676 -20.095 -20.609  0.00  0.00    -0.017 C 
BRANCH  19  20
ATOM     20  N   UNL     1      33.234 -20.072 -20.341  0.00  0.00    +0.384 N 
ATOM     21  H   UNL     1      33.074 -20.132 -19.335  0.00  0.00    -0.089 HD
ATOM     22  H   UNL     1      32.789 -20.865 -20.803  0.00  0.00    -0.089 HD
ATOM     23  H   UNL     1      32.835 -19.203 -20.697  0.00  0.00    -0.089 HD
ENDBRANCH  19  20
BRANCH  19  24
ATOM     24  C   UNL     1      35.194 -21.528 -20.379  0.00  0.00    +0.009 C 
BRANCH  24  26
ATOM     25  N   UNL     1      36.640 -21.983 -17.057  0.00  0.00    -0.312 N 
ATOM     26  C   UNL     1      35.530 -21.823 -18.944  0.00  0.00    -0.008 C 
ATOM     27  C   UNL     1      34.659 -22.393 -17.997  0.00  0.00    +0.011 C 
ATOM     28  C   UNL     1      35.383 -22.486 -16.806  0.00  0.00    +0.048 C 
ATOM     29  C   UNL     1      36.735 -21.577 -18.361  0.00  0.00    +0.058 C 
ATOM     30  C   UNL     1      33.324 -22.845 -18.015  0.00  0.00    +0.001 C 
ATOM     31  C   UNL     1      34.838 -23.009 -15.628  0.00  0.00    +0.015 C 
ATOM     32  C   UNL     1      32.765 -23.371 -16.845  0.00  0.00    +0.000 C 
ATOM     33  C   UNL     1      33.512 -23.452 -15.671  0.00  0.00    +0.001 C 
ATOM     34  H   UNL     1      37.366 -21.924 -16.395  0.00  0.00    +0.152 HD
ENDBRANCH  24  26
ENDBRANCH  19  24
ENDBRANCH  18  19
ENDBRANCH   1  18
TORSDOF 7
ENDMDL
