MODEL 1
REMARK VINA RESULT:     -10.4      0.000      0.000
REMARK  Name = 44629678
REMARK  9 active torsions:
REMARK  status: ('A' for Active; 'I' for Inactive)
REMARK    1  A    between atoms: N_2  and  C_5
REMARK    2  A    between atoms: C_3  and  C_19
REMARK    3  A    between atoms: C_8  and  O_11
REMARK    4  A    between atoms: O_11  and  C_12
REMARK    5  A    between atoms: C_12  and  C_13
REMARK    6  A    between atoms: C_19  and  C_20
REMARK    7  A    between atoms: C_20  and  CA_21
REMARK    8  A    between atoms: CA_21  and  N_22
REMARK    9  A    between atoms: CA_21  and  C_28
REMARK                            x       y       z     vdW  Elec       q    Type
REMARK                         _______ _______ _______ _____ _____    ______ ____
ROOT
ATOM      1  O   UNL     1      34.106 -23.204 -16.688  0.00  0.00    -0.275 OA
ATOM      2  N   UNL     1      32.593 -22.364 -18.274  0.00  0.00    -0.284 N 
ATOM      3  C   UNL     1      32.975 -23.084 -17.146  0.00  0.00    +0.226 C 
ATOM      4  H   UNL     1      31.633 -22.377 -18.494  0.00  0.00    +0.155 HD
ENDROOT
BRANCH   2   5
ATOM      5  C   UNL     1      33.422 -21.615 -19.143  0.00  0.00    +0.050 C 
ATOM      6  C   UNL     1      32.877 -20.590 -19.916  0.00  0.00    +0.018 C 
ATOM      7  C   UNL     1      34.785 -21.901 -19.225  0.00  0.00    +0.018 C 
ATOM      8  C   UNL     1      35.057 -20.139 -20.854  0.00  0.00    +0.139 C 
ATOM      9  C   UNL     1      33.695 -19.852 -20.772  0.00  0.00    +0.038 C 
ATOM     10  C   UNL     1      35.602 -21.163 -20.081  0.00  0.00    +0.038 C 
BRANCH   8  11
ATOM     11  O   UNL     1      35.854 -19.417 -21.689  0.00  0.00    -0.471 OA
BRANCH  11  12
ATOM     12  C   UNL     1      35.783 -17.996 -21.586  0.00  0.00    +0.232 C 
BRANCH  12  13
ATOM     13  C   UNL     1      35.213 -17.440 -22.858  0.00  0.00    +0.021 C 
ATOM     14  C   UNL     1      35.053 -18.267 -23.971  0.00  0.00    -0.001 C 
ATOM     15  C   UNL     1      34.843 -16.098 -22.929  0.00  0.00    -0.001 C 
ATOM     16  C   UNL     1      34.522 -17.751 -25.153  0.00  0.00    -0.000 C 
ATOM     17  C   UNL     1      34.312 -15.582 -24.111  0.00  0.00    -0.000 C 
ATOM     18  C   UNL     1      34.152 -16.408 -25.223  0.00  0.00    -0.000 C 
ENDBRANCH  12  13
ENDBRANCH  11  12
ENDBRANCH   8  11
ENDBRANCH   2   5
BRANCH   3  19
ATOM     19  C   UNL     1      31.765 -23.744 -16.499  0.00  0.00    +0.084 C 
BRANCH  19  20
ATOM     20  C   UNL     1      30.656 -22.742 -16.167  0.00  0.00    -0.001 C 
BRANCH  20  21
ATOM     21  CA  UNL     1      29.308 -23.429 -15.927  0.00  0.00    +0.041 C 
BRANCH  21  22
ATOM     22  N   UNL     1      29.568 -24.904 -15.934  0.00  0.00    +0.389 N 
ATOM     23  H1  UNL     1      29.140 -25.320 -16.761  0.00  0.00    -0.088 HD
ATOM     24  H2  UNL     1      29.167 -25.324 -15.096  0.00  0.00    -0.088 HD
ATOM     25  H3  UNL     1      30.574 -25.072 -15.951  0.00  0.00    -0.088 HD
ENDBRANCH  21  22
BRANCH  21  28
ATOM     26  O   UNL     1      27.727 -24.027 -17.574  0.00  0.00    -0.248 OA
ATOM     27  OXT UNL     1      27.912 -21.825 -16.994  0.00  0.00    -0.248 OA
ATOM     28  C   UNL     1      28.211 -23.049 -16.934  0.00  0.00    +0.345 C 
ENDBRANCH  21  28
ENDBRANCH  20  21
ENDBRANCH  19  20
ENDBRANCH   3  19
TORSDOF 9
ENDMDL
MODEL 2
REMARK VINA RESULT:     -10.1      3.520      8.897
REMARK  Name = 44629678
REMARK  9 active torsions:
REMARK  status: ('A' for Active; 'I' for Inactive)
REMARK    1  A    between atoms: N_2  and  C_5
REMARK    2  A    between atoms: C_3  and  C_19
REMARK    3  A    between atoms: C_8  and  O_11
REMARK    4  A    between atoms: O_11  and  C_12
REMARK    5  A    between atoms: C_12  and  C_13
REMARK    6  A    between atoms: C_19  and  C_20
REMARK    7  A    between atoms: C_20  and  CA_21
REMARK    8  A    between atoms: CA_21  and  N_22
REMARK    9  A    between atoms: CA_21  and  C_28
REMARK                            x       y       z     vdW  Elec       q    Type
REMARK                         _______ _______ _______ _____ _____    ______ ____
ROOT
ATOM      1  O   UNL     1      34.943 -19.200 -24.360  0.00  0.00    -0.275 OA
ATOM      2  N   UNL     1      34.570 -18.149 -22.293  0.00  0.00    -0.284 N 
ATOM      3  C   UNL     1      34.728 -18.205 -23.675  0.00  0.00    +0.226 C 
ATOM      4  H   UNL     1      34.400 -17.258 -21.911  0.00  0.00    +0.155 HD
ENDROOT
BRANCH   2   5
ATOM      5  C   UNL     1      34.625 -19.223 -21.373  0.00  0.00    +0.050 C 
ATOM      6  C   UNL     1      33.446 -19.775 -20.874  0.00  0.00    +0.018 C 
ATOM      7  C   UNL     1      35.859 -19.730 -20.966  0.00  0.00    +0.018 C 
ATOM      8  C   UNL     1      34.733 -21.340 -19.560  0.00  0.00    +0.139 C 
ATOM      9  C   UNL     1      33.500 -20.834 -19.967  0.00  0.00    +0.038 C 
ATOM     10  C   UNL     1      35.914 -20.788 -20.059  0.00  0.00    +0.038 C 
BRANCH   8  11
ATOM     11  O   UNL     1      34.786 -22.374 -18.675  0.00  0.00    -0.471 OA
BRANCH  11  12
ATOM     12  C   UNL     1      33.623 -23.192 -18.565  0.00  0.00    +0.232 C 
BRANCH  12  13
ATOM     13  C   UNL     1      33.178 -23.221 -17.132  0.00  0.00    +0.021 C 
ATOM     14  C   UNL     1      34.104 -23.467 -16.119  0.00  0.00    -0.001 C 
ATOM     15  C   UNL     1      31.838 -23.001 -16.813  0.00  0.00    -0.001 C 
ATOM     16  C   UNL     1      33.691 -23.494 -14.787  0.00  0.00    -0.000 C 
ATOM     17  C   UNL     1      31.425 -23.026 -15.481  0.00  0.00    -0.000 C 
ATOM     18  C   UNL     1      32.352 -23.273 -14.468  0.00  0.00    -0.000 C 
ENDBRANCH  12  13
ENDBRANCH  11  12
ENDBRANCH   8  11
ENDBRANCH   2   5
BRANCH   3  19
ATOM     19  C   UNL     1      34.593 -16.817 -24.285  0.00  0.00    +0.084 C 
BRANCH  19  20
ATOM     20  C   UNL     1      34.810 -15.700 -23.259  0.00  0.00    -0.001 C 
BRANCH  20  21
ATOM     21  CA  UNL     1      33.645 -14.707 -23.231  0.00  0.00    +0.041 C 
BRANCH  21  22
ATOM     22  N   UNL     1      34.233 -13.344 -23.431  0.00  0.00    +0.389 N 
ATOM     23  H1  UNL     1      33.550 -12.636 -23.163  0.00  0.00    -0.088 HD
ATOM     24  H2  UNL     1      34.482 -13.223 -24.412  0.00  0.00    -0.088 HD
ATOM     25  H3  UNL     1      35.069 -13.247 -22.854  0.00  0.00    -0.088 HD
ENDBRANCH  21  22
BRANCH  21  28
ATOM     26  O   UNL     1      32.038 -13.762 -21.783  0.00  0.00    -0.248 OA
ATOM     27  OXT UNL     1      32.923 -15.798 -21.243  0.00  0.00    -0.248 OA
ATOM     28  C   UNL     1      32.790 -14.764 -21.955  0.00  0.00    +0.345 C 
ENDBRANCH  21  28
ENDBRANCH  20  21
ENDBRANCH  19  20
ENDBRANCH   3  19
TORSDOF 9
ENDMDL
MODEL 3
REMARK VINA RESULT:     -10.0      3.601      9.299
REMARK  Name = 44629678
REMARK  9 active torsions:
REMARK  status: ('A' for Active; 'I' for Inactive)
REMARK    1  A    between atoms: N_2  and  C_5
REMARK    2  A    between atoms: C_3  and  C_19
REMARK    3  A    between atoms: C_8  and  O_11
REMARK    4  A    between atoms: O_11  and  C_12
REMARK    5  A    between atoms: C_12  and  C_13
REMARK    6  A    between atoms: C_19  and  C_20
REMARK    7  A    between atoms: C_20  and  CA_21
REMARK    8  A    between atoms: CA_21  and  N_22
REMARK    9  A    between atoms: CA_21  and  C_28
REMARK                            x       y       z     vdW  Elec       q    Type
REMARK                         _______ _______ _______ _____ _____    ______ ____
ROOT
ATOM      1  O   UNL     1      34.962 -16.374 -20.309  0.00  0.00    -0.275 OA
ATOM      2  N   UNL     1      35.021 -18.148 -21.847  0.00  0.00    -0.284 N 
ATOM      3  C   UNL     1      35.011 -16.813 -21.453  0.00  0.00    +0.226 C 
ATOM      4  H   UNL     1      35.066 -18.315 -22.816  0.00  0.00    +0.155 HD
ENDROOT
BRANCH   2   5
ATOM      5  C   UNL     1      34.973 -19.293 -21.017  0.00  0.00    +0.050 C 
ATOM      6  C   UNL     1      36.155 -19.867 -20.551  0.00  0.00    +0.018 C 
ATOM      7  C   UNL     1      33.742 -19.848 -20.664  0.00  0.00    +0.018 C 
ATOM      8  C   UNL     1      34.878 -21.550 -19.381  0.00  0.00    +0.139 C 
ATOM      9  C   UNL     1      36.108 -20.996 -19.733  0.00  0.00    +0.038 C 
ATOM     10  C   UNL     1      33.694 -20.976 -19.846  0.00  0.00    +0.038 C 
BRANCH   8  11
ATOM     11  O   UNL     1      34.832 -22.652 -18.581  0.00  0.00    -0.471 OA
BRANCH  11  12
ATOM     12  C   UNL     1      33.563 -23.281 -18.417  0.00  0.00    +0.232 C 
BRANCH  12  13
ATOM     13  C   UNL     1      33.221 -23.323 -16.957  0.00  0.00    +0.021 C 
ATOM     14  C   UNL     1      34.230 -23.495 -16.009  0.00  0.00    -0.001 C 
ATOM     15  C   UNL     1      31.895 -23.187 -16.546  0.00  0.00    -0.001 C 
ATOM     16  C   UNL     1      33.913 -23.532 -14.651  0.00  0.00    -0.000 C 
ATOM     17  C   UNL     1      31.578 -23.224 -15.188  0.00  0.00    -0.000 C 
ATOM     18  C   UNL     1      32.587 -23.397 -14.241  0.00  0.00    -0.000 C 
ENDBRANCH  12  13
ENDBRANCH  11  12
ENDBRANCH   8  11
ENDBRANCH   2   5
BRANCH   3  19
ATOM     19  C   UNL     1      35.077 -15.898 -22.668  0.00  0.00    +0.084 C 
BRANCH  19  20
ATOM     20  C   UNL     1      33.694 -15.587 -23.247  0.00  0.00    -0.001 C 
BRANCH  20  21
ATOM     21  CA  UNL     1      33.779 -14.892 -24.609  0.00  0.00    +0.041 C 
BRANCH  21  22
ATOM     22  N   UNL     1      32.698 -13.856 -24.635  0.00  0.00    +0.389 N 
ATOM     23  H1  UNL     1      33.096 -12.944 -24.415  0.00  0.00    -0.088 HD
ATOM     24  H2  UNL     1      31.986 -14.092 -23.944  0.00  0.00    -0.088 HD
ATOM     25  H3  UNL     1      32.276 -13.829 -25.563  0.00  0.00    -0.088 HD
ENDBRANCH  21  22
BRANCH  21  28
ATOM     26  O   UNL     1      34.568 -16.733 -25.858  0.00  0.00    -0.248 OA
ATOM     27  OXT UNL     1      32.711 -15.630 -26.603  0.00  0.00    -0.248 OA
ATOM     28  C   UNL     1      33.674 -15.839 -25.815  0.00  0.00    +0.345 C 
ENDBRANCH  21  28
ENDBRANCH  20  21
ENDBRANCH  19  20
ENDBRANCH   3  19
TORSDOF 9
ENDMDL
MODEL 4
REMARK VINA RESULT:     -10.0      3.363      9.260
REMARK  Name = 44629678
REMARK  9 active torsions:
REMARK  status: ('A' for Active; 'I' for Inactive)
REMARK    1  A    between atoms: N_2  and  C_5
REMARK    2  A    between atoms: C_3  and  C_19
REMARK    3  A    between atoms: C_8  and  O_11
REMARK    4  A    between atoms: O_11  and  C_12
REMARK    5  A    between atoms: C_12  and  C_13
REMARK    6  A    between atoms: C_19  and  C_20
REMARK    7  A    between atoms: C_20  and  CA_21
REMARK    8  A    between atoms: CA_21  and  N_22
REMARK    9  A    between atoms: CA_21  and  C_28
REMARK                            x       y       z     vdW  Elec       q    Type
REMARK                         _______ _______ _______ _____ _____    ______ ____
ROOT
ATOM      1  O   UNL     1      35.212 -16.696 -20.282  0.00  0.00    -0.275 OA
ATOM      2  N   UNL     1      34.772 -18.396 -21.841  0.00  0.00    -0.284 N 
ATOM      3  C   UNL     1      35.048 -17.095 -21.430  0.00  0.00    +0.226 C 
ATOM      4  H   UNL     1      34.673 -18.534 -22.810  0.00  0.00    +0.155 HD
ENDROOT
BRANCH   2   5
ATOM      5  C   UNL     1      34.617 -19.544 -21.028  0.00  0.00    +0.050 C 
ATOM      6  C   UNL     1      33.341 -19.969 -20.657  0.00  0.00    +0.018 C 
ATOM      7  C   UNL     1      35.740 -20.250 -20.597  0.00  0.00    +0.018 C 
ATOM      8  C   UNL     1      34.311 -21.806 -19.424  0.00  0.00    +0.139 C 
ATOM      9  C   UNL     1      33.188 -21.100 -19.855  0.00  0.00    +0.038 C 
ATOM     10  C   UNL     1      35.587 -21.381 -19.795  0.00  0.00    +0.038 C 
BRANCH   8  11
ATOM     11  O   UNL     1      34.161 -22.910 -18.643  0.00  0.00    -0.471 OA
BRANCH  11  12
ATOM     12  C   UNL     1      34.641 -22.826 -17.302  0.00  0.00    +0.232 C 
BRANCH  12  13
ATOM     13  C   UNL     1      33.510 -23.113 -16.358  0.00  0.00    +0.021 C 
ATOM     14  C   UNL     1      32.191 -23.050 -16.809  0.00  0.00    -0.001 C 
ATOM     15  C   UNL     1      33.777 -23.442 -15.029  0.00  0.00    -0.001 C 
ATOM     16  C   UNL     1      31.140 -23.317 -15.931  0.00  0.00    -0.000 C 
ATOM     17  C   UNL     1      32.726 -23.710 -14.152  0.00  0.00    -0.000 C 
ATOM     18  C   UNL     1      31.408 -23.647 -14.603  0.00  0.00    -0.000 C 
ENDBRANCH  12  13
ENDBRANCH  11  12
ENDBRANCH   8  11
ENDBRANCH   2   5
BRANCH   3  19
ATOM     19  C   UNL     1      35.135 -16.163 -22.631  0.00  0.00    +0.084 C 
BRANCH  19  20
ATOM     20  C   UNL     1      33.757 -15.753 -23.158  0.00  0.00    -0.001 C 
BRANCH  20  21
ATOM     21  CA  UNL     1      33.852 -14.942 -24.454  0.00  0.00    +0.041 C 
BRANCH  21  22
ATOM     22  N   UNL     1      32.807 -13.872 -24.372  0.00  0.00    +0.389 N 
ATOM     23  H1  UNL     1      32.589 -13.685 -23.394  0.00  0.00    -0.088 HD
ATOM     24  H2  UNL     1      31.965 -14.182 -24.856  0.00  0.00    -0.088 HD
ATOM     25  H3  UNL     1      33.159 -13.021 -24.811  0.00  0.00    -0.088 HD
ENDBRANCH  21  22
BRANCH  21  28
ATOM     26  O   UNL     1      33.495 -15.091 -26.783  0.00  0.00    -0.248 OA
ATOM     27  OXT UNL     1      33.812 -17.024 -25.607  0.00  0.00    -0.248 OA
ATOM     28  C   UNL     1      33.700 -15.774 -25.738  0.00  0.00    +0.345 C 
ENDBRANCH  21  28
ENDBRANCH  20  21
ENDBRANCH  19  20
ENDBRANCH   3  19
TORSDOF 9
ENDMDL
MODEL 5
REMARK VINA RESULT:      -9.9      3.450      4.911
REMARK  Name = 44629678
REMARK  9 active torsions:
REMARK  status: ('A' for Active; 'I' for Inactive)
REMARK    1  A    between atoms: N_2  and  C_5
REMARK    2  A    between atoms: C_3  and  C_19
REMARK    3  A    between atoms: C_8  and  O_11
REMARK    4  A    between atoms: O_11  and  C_12
REMARK    5  A    between atoms: C_12  and  C_13
REMARK    6  A    between atoms: C_19  and  C_20
REMARK    7  A    between atoms: C_20  and  CA_21
REMARK    8  A    between atoms: CA_21  and  N_22
REMARK    9  A    between atoms: CA_21  and  C_28
REMARK                            x       y       z     vdW  Elec       q    Type
REMARK                         _______ _______ _______ _____ _____    ______ ____
ROOT
ATOM      1  O   UNL     1      35.841 -22.295 -15.691  0.00  0.00    -0.275 OA
ATOM      2  N   UNL     1      34.352 -23.141 -17.298  0.00  0.00    -0.284 N 
ATOM      3  C   UNL     1      35.013 -23.115 -16.074  0.00  0.00    +0.226 C 
ATOM      4  H   UNL     1      33.715 -23.879 -17.433  0.00  0.00    +0.155 HD
ENDROOT
BRANCH   2   5
ATOM      5  C   UNL     1      34.489 -22.230 -18.372  0.00  0.00    +0.050 C 
ATOM      6  C   UNL     1      33.355 -21.718 -19.002  0.00  0.00    +0.018 C 
ATOM      7  C   UNL     1      35.759 -21.844 -18.802  0.00  0.00    +0.018 C 
ATOM      8  C   UNL     1      34.759 -20.435 -20.490  0.00  0.00    +0.139 C 
ATOM      9  C   UNL     1      33.490 -20.820 -20.061  0.00  0.00    +0.038 C 
ATOM     10  C   UNL     1      35.894 -20.946 -19.861  0.00  0.00    +0.038 C 
BRANCH   8  11
ATOM     11  O   UNL     1      34.891 -19.557 -21.523  0.00  0.00    -0.471 OA
BRANCH  11  12
ATOM     12  C   UNL     1      35.893 -18.551 -21.396  0.00  0.00    +0.232 C 
BRANCH  12  13
ATOM     13  C   UNL     1      35.299 -17.219 -21.750  0.00  0.00    +0.021 C 
ATOM     14  C   UNL     1      35.231 -16.817 -23.084  0.00  0.00    -0.001 C 
ATOM     15  C   UNL     1      34.812 -16.384 -20.745  0.00  0.00    -0.001 C 
ATOM     16  C   UNL     1      34.678 -15.580 -23.413  0.00  0.00    -0.000 C 
ATOM     17  C   UNL     1      34.258 -15.146 -21.074  0.00  0.00    -0.000 C 
ATOM     18  C   UNL     1      34.192 -14.744 -22.408  0.00  0.00    -0.000 C 
ENDBRANCH  12  13
ENDBRANCH  11  12
ENDBRANCH   8  11
ENDBRANCH   2   5
BRANCH   3  19
ATOM     19  C   UNL     1      34.570 -24.284 -15.203  0.00  0.00    +0.084 C 
BRANCH  19  20
ATOM     20  C   UNL     1      35.509 -24.524 -14.018  0.00  0.00    -0.001 C 
BRANCH  20  21
ATOM     21  CA  UNL     1      36.631 -25.509 -14.358  0.00  0.00    +0.041 C 
BRANCH  21  22
ATOM     22  N   UNL     1      35.997 -26.648 -15.096  0.00  0.00    +0.389 N 
ATOM     23  H1  UNL     1      35.822 -26.372 -16.062  0.00  0.00    -0.088 HD
ATOM     24  H2  UNL     1      35.115 -26.894 -14.648  0.00  0.00    -0.088 HD
ATOM     25  H3  UNL     1      36.624 -27.453 -15.080  0.00  0.00    -0.088 HD
ENDBRANCH  21  22
BRANCH  21  28
ATOM     26  O   UNL     1      38.656 -26.220 -13.377  0.00  0.00    -0.248 OA
ATOM     27  OXT UNL     1      36.787 -26.128 -12.066  0.00  0.00    -0.248 OA
ATOM     28  C   UNL     1      37.431 -26.007 -13.144  0.00  0.00    +0.345 C 
ENDBRANCH  21  28
ENDBRANCH  20  21
ENDBRANCH  19  20
ENDBRANCH   3  19
TORSDOF 9
ENDMDL
MODEL 6
REMARK VINA RESULT:      -9.9      5.456     10.305
REMARK  Name = 44629678
REMARK  9 active torsions:
REMARK  status: ('A' for Active; 'I' for Inactive)
REMARK    1  A    between atoms: N_2  and  C_5
REMARK    2  A    between atoms: C_3  and  C_19
REMARK    3  A    between atoms: C_8  and  O_11
REMARK    4  A    between atoms: O_11  and  C_12
REMARK    5  A    between atoms: C_12  and  C_13
REMARK    6  A    between atoms: C_19  and  C_20
REMARK    7  A    between atoms: C_20  and  CA_21
REMARK    8  A    between atoms: CA_21  and  N_22
REMARK    9  A    between atoms: CA_21  and  C_28
REMARK                            x       y       z     vdW  Elec       q    Type
REMARK                         _______ _______ _______ _____ _____    ______ ____
ROOT
ATOM      1  O   UNL     1      32.776 -13.975 -25.258  0.00  0.00    -0.275 OA
ATOM      2  N   UNL     1      34.280 -13.308 -23.582  0.00  0.00    -0.284 N 
ATOM      3  C   UNL     1      33.466 -13.130 -24.697  0.00  0.00    +0.226 C 
ATOM      4  H   UNL     1      34.763 -12.512 -23.265  0.00  0.00    +0.155 HD
ENDROOT
BRANCH   2   5
ATOM      5  C   UNL     1      34.494 -14.501 -22.851  0.00  0.00    +0.050 C 
ATOM      6  C   UNL     1      34.925 -15.654 -23.506  0.00  0.00    +0.018 C 
ATOM      7  C   UNL     1      34.273 -14.523 -21.473  0.00  0.00    +0.018 C 
ATOM      8  C   UNL     1      34.914 -16.851 -21.409  0.00  0.00    +0.139 C 
ATOM      9  C   UNL     1      35.135 -16.829 -22.785  0.00  0.00    +0.038 C 
ATOM     10  C   UNL     1      34.483 -15.699 -20.752  0.00  0.00    +0.038 C 
BRANCH   8  11
ATOM     11  O   UNL     1      35.120 -17.999 -20.706  0.00  0.00    -0.471 OA
BRANCH  11  12
ATOM     12  C   UNL     1      34.965 -19.229 -21.412  0.00  0.00    +0.232 C 
BRANCH  12  13
ATOM     13  C   UNL     1      34.709 -20.331 -20.426  0.00  0.00    +0.021 C 
ATOM     14  C   UNL     1      35.781 -20.999 -19.832  0.00  0.00    -0.001 C 
ATOM     15  C   UNL     1      33.400 -20.687 -20.103  0.00  0.00    -0.001 C 
ATOM     16  C   UNL     1      35.543 -22.023 -18.915  0.00  0.00    -0.000 C 
ATOM     17  C   UNL     1      33.163 -21.711 -19.185  0.00  0.00    -0.000 C 
ATOM     18  C   UNL     1      34.234 -22.379 -18.592  0.00  0.00    -0.000 C 
ENDBRANCH  12  13
ENDBRANCH  11  12
ENDBRANCH   8  11
ENDBRANCH   2   5
BRANCH   3  19
ATOM     19  C   UNL     1      33.524 -11.685 -25.174  0.00  0.00    +0.084 C 
BRANCH  19  20
ATOM     20  C   UNL     1      33.863 -10.706 -24.046  0.00  0.00    -0.001 C 
BRANCH  20  21
ATOM     21  CA  UNL     1      32.630  -9.943 -23.554  0.00  0.00    +0.041 C 
BRANCH  21  22
ATOM     22  N   UNL     1      33.023  -8.500 -23.462  0.00  0.00    +0.389 N 
ATOM     23  H1  UNL     1      34.026  -8.411 -23.619  0.00  0.00    -0.088 HD
ATOM     24  H2  UNL     1      32.791  -8.144 -22.535  0.00  0.00    -0.088 HD
ATOM     25  H3  UNL     1      32.518  -7.965 -24.169  0.00  0.00    -0.088 HD
ENDBRANCH  21  22
BRANCH  21  28
ATOM     26  O   UNL     1      31.926  -9.561 -21.333  0.00  0.00    -0.248 OA
ATOM     27  OXT UNL     1      31.769 -11.679 -22.173  0.00  0.00    -0.248 OA
ATOM     28  C   UNL     1      32.056 -10.451 -22.222  0.00  0.00    +0.345 C 
ENDBRANCH  21  28
ENDBRANCH  20  21
ENDBRANCH  19  20
ENDBRANCH   3  19
TORSDOF 9
ENDMDL
MODEL 7
REMARK VINA RESULT:      -9.8      6.148     10.507
REMARK  Name = 44629678
REMARK  9 active torsions:
REMARK  status: ('A' for Active; 'I' for Inactive)
REMARK    1  A    between atoms: N_2  and  C_5
REMARK    2  A    between atoms: C_3  and  C_19
REMARK    3  A    between atoms: C_8  and  O_11
REMARK    4  A    between atoms: O_11  and  C_12
REMARK    5  A    between atoms: C_12  and  C_13
REMARK    6  A    between atoms: C_19  and  C_20
REMARK    7  A    between atoms: C_20  and  CA_21
REMARK    8  A    between atoms: CA_21  and  N_22
REMARK    9  A    between atoms: CA_21  and  C_28
REMARK                            x       y       z     vdW  Elec       q    Type
REMARK                         _______ _______ _______ _____ _____    ______ ____
ROOT
ATOM      1  O   UNL     1      31.832 -12.452 -22.038  0.00  0.00    -0.275 OA
ATOM      2  N   UNL     1      33.751 -12.699 -23.370  0.00  0.00    -0.284 N 
ATOM      3  C   UNL     1      32.698 -12.003 -22.783  0.00  0.00    +0.226 C 
ATOM      4  H   UNL     1      34.355 -12.172 -23.941  0.00  0.00    +0.155 HD
ENDROOT
BRANCH   2   5
ATOM      5  C   UNL     1      34.056 -14.074 -23.241  0.00  0.00    +0.050 C 
ATOM      6  C   UNL     1      34.437 -14.592 -22.003  0.00  0.00    +0.018 C 
ATOM      7  C   UNL     1      33.975 -14.914 -24.353  0.00  0.00    +0.018 C 
ATOM      8  C   UNL     1      34.656 -16.787 -22.988  0.00  0.00    +0.139 C 
ATOM      9  C   UNL     1      34.737 -15.948 -21.877  0.00  0.00    +0.038 C 
ATOM     10  C   UNL     1      34.275 -16.270 -24.226  0.00  0.00    +0.038 C 
BRANCH   8  11
ATOM     11  O   UNL     1      34.949 -18.111 -22.863  0.00  0.00    -0.471 OA
BRANCH  11  12
ATOM     12  C   UNL     1      35.782 -18.491 -21.769  0.00  0.00    +0.232 C 
BRANCH  12  13
ATOM     13  C   UNL     1      35.084 -19.548 -20.965  0.00  0.00    +0.021 C 
ATOM     14  C   UNL     1      33.690 -19.580 -20.916  0.00  0.00    -0.001 C 
ATOM     15  C   UNL     1      35.829 -20.500 -20.269  0.00  0.00    -0.001 C 
ATOM     16  C   UNL     1      33.041 -20.563 -20.169  0.00  0.00    -0.000 C 
ATOM     17  C   UNL     1      35.179 -21.483 -19.523  0.00  0.00    -0.000 C 
ATOM     18  C   UNL     1      33.786 -21.515 -19.472  0.00  0.00    -0.000 C 
ENDBRANCH  12  13
ENDBRANCH  11  12
ENDBRANCH   8  11
ENDBRANCH   2   5
BRANCH   3  19
ATOM     19  C   UNL     1      32.738 -10.535 -23.183  0.00  0.00    +0.084 C 
BRANCH  19  20
ATOM     20  C   UNL     1      31.649  -9.707 -22.495  0.00  0.00    -0.001 C 
BRANCH  20  21
ATOM     21  CA  UNL     1      32.214  -8.451 -21.826  0.00  0.00    +0.041 C 
BRANCH  21  22
ATOM     22  N   UNL     1      33.519  -8.152 -22.497  0.00  0.00    +0.389 N 
ATOM     23  H1  UNL     1      33.398  -7.374 -23.144  0.00  0.00    -0.088 HD
ATOM     24  H2  UNL     1      33.833  -8.975 -23.010  0.00  0.00    -0.088 HD
ATOM     25  H3  UNL     1      34.214  -7.905 -21.792  0.00  0.00    -0.088 HD
ENDBRANCH  21  22
BRANCH  21  28
ATOM     26  O   UNL     1      32.760  -7.496 -19.737  0.00  0.00    -0.248 OA
ATOM     27  OXT UNL     1      32.112  -9.686 -19.794  0.00  0.00    -0.248 OA
ATOM     28  C   UNL     1      32.382  -8.563 -20.302  0.00  0.00    +0.345 C 
ENDBRANCH  21  28
ENDBRANCH  20  21
ENDBRANCH  19  20
ENDBRANCH   3  19
TORSDOF 9
ENDMDL
MODEL 8
REMARK VINA RESULT:      -9.7      6.238     10.348
REMARK  Name = 44629678
REMARK  9 active torsions:
REMARK  status: ('A' for Active; 'I' for Inactive)
REMARK    1  A    between atoms: N_2  and  C_5
REMARK    2  A    between atoms: C_3  and  C_19
REMARK    3  A    between atoms: C_8  and  O_11
REMARK    4  A    between atoms: O_11  and  C_12
REMARK    5  A    between atoms: C_12  and  C_13
REMARK    6  A    between atoms: C_19  and  C_20
REMARK    7  A    between atoms: C_20  and  CA_21
REMARK    8  A    between atoms: CA_21  and  N_22
REMARK    9  A    between atoms: CA_21  and  C_28
REMARK                            x       y       z     vdW  Elec       q    Type
REMARK                         _______ _______ _______ _____ _____    ______ ____
ROOT
ATOM      1  O   UNL     1      33.090 -11.668 -23.324  0.00  0.00    -0.275 OA
ATOM      2  N   UNL     1      32.205 -13.154 -21.736  0.00  0.00    -0.284 N 
ATOM      3  C   UNL     1      32.264 -11.973 -22.470  0.00  0.00    +0.226 C 
ATOM      4  H   UNL     1      31.465 -13.228 -21.091  0.00  0.00    +0.155 HD
ENDROOT
BRANCH   2   5
ATOM      5  C   UNL     1      33.083 -14.261 -21.809  0.00  0.00    +0.050 C 
ATOM      6  C   UNL     1      33.420 -14.804 -23.049  0.00  0.00    +0.018 C 
ATOM      7  C   UNL     1      33.612 -14.810 -20.641  0.00  0.00    +0.018 C 
ATOM      8  C   UNL     1      34.814 -16.443 -21.953  0.00  0.00    +0.139 C 
ATOM      9  C   UNL     1      34.286 -15.895 -23.121  0.00  0.00    +0.038 C 
ATOM     10  C   UNL     1      34.478 -15.901 -20.712  0.00  0.00    +0.038 C 
BRANCH   8  11
ATOM     11  O   UNL     1      35.660 -17.508 -22.024  0.00  0.00    -0.471 OA
BRANCH  11  12
ATOM     12  C   UNL     1      35.140 -18.713 -22.584  0.00  0.00    +0.232 C 
BRANCH  12  13
ATOM     13  C   UNL     1      34.685 -19.613 -21.473  0.00  0.00    +0.021 C 
ATOM     14  C   UNL     1      35.616 -20.371 -20.763  0.00  0.00    -0.001 C 
ATOM     15  C   UNL     1      33.331 -19.691 -21.149  0.00  0.00    -0.001 C 
ATOM     16  C   UNL     1      35.193 -21.208 -19.730  0.00  0.00    -0.000 C 
ATOM     17  C   UNL     1      32.908 -20.527 -20.116  0.00  0.00    -0.000 C 
ATOM     18  C   UNL     1      33.839 -21.286 -19.406  0.00  0.00    -0.000 C 
ENDBRANCH  12  13
ENDBRANCH  11  12
ENDBRANCH   8  11
ENDBRANCH   2   5
BRANCH   3  19
ATOM     19  C   UNL     1      31.122 -11.044 -22.080  0.00  0.00    +0.084 C 
BRANCH  19  20
ATOM     20  C   UNL     1      31.520  -9.567 -22.134  0.00  0.00    -0.001 C 
BRANCH  20  21
ATOM     21  CA  UNL     1      32.275  -9.125 -20.877  0.00  0.00    +0.041 C 
BRANCH  21  22
ATOM     22  N   UNL     1      31.590  -9.770 -19.712  0.00  0.00    +0.389 N 
ATOM     23  H1  UNL     1      32.208 -10.466 -19.297  0.00  0.00    -0.088 HD
ATOM     24  H2  UNL     1      30.733 -10.221 -20.029  0.00  0.00    -0.088 HD
ATOM     25  H3  UNL     1      31.362  -9.059 -19.016  0.00  0.00    -0.088 HD
ENDBRANCH  21  22
BRANCH  21  28
ATOM     26  O   UNL     1      32.110  -6.933 -21.736  0.00  0.00    -0.248 OA
ATOM     27  OXT UNL     1      32.681  -7.199 -19.540  0.00  0.00    -0.248 OA
ATOM     28  C   UNL     1      32.372  -7.602 -20.695  0.00  0.00    +0.345 C 
ENDBRANCH  21  28
ENDBRANCH  20  21
ENDBRANCH  19  20
ENDBRANCH   3  19
TORSDOF 9
ENDMDL
MODEL 9
REMARK VINA RESULT:      -9.7      2.717      4.351
REMARK  Name = 44629678
REMARK  9 active torsions:
REMARK  status: ('A' for Active; 'I' for Inactive)
REMARK    1  A    between atoms: N_2  and  C_5
REMARK    2  A    between atoms: C_3  and  C_19
REMARK    3  A    between atoms: C_8  and  O_11
REMARK    4  A    between atoms: O_11  and  C_12
REMARK    5  A    between atoms: C_12  and  C_13
REMARK    6  A    between atoms: C_19  and  C_20
REMARK    7  A    between atoms: C_20  and  CA_21
REMARK    8  A    between atoms: CA_21  and  N_22
REMARK    9  A    between atoms: CA_21  and  C_28
REMARK                            x       y       z     vdW  Elec       q    Type
REMARK                         _______ _______ _______ _____ _____    ______ ____
ROOT
ATOM      1  O   UNL     1      32.091 -22.474 -18.107  0.00  0.00    -0.275 OA
ATOM      2  N   UNL     1      34.392 -22.193 -18.487  0.00  0.00    -0.284 N 
ATOM      3  C   UNL     1      33.267 -22.731 -17.869  0.00  0.00    +0.226 C 
ATOM      4  H   UNL     1      35.263 -22.521 -18.165  0.00  0.00    +0.155 HD
ENDROOT
BRANCH   2   5
ATOM      5  C   UNL     1      34.430 -21.230 -19.523  0.00  0.00    +0.050 C 
ATOM      6  C   UNL     1      33.244 -20.686 -20.015  0.00  0.00    +0.018 C 
ATOM      7  C   UNL     1      35.656 -20.825 -20.053  0.00  0.00    +0.018 C 
ATOM      8  C   UNL     1      34.507 -19.332 -21.566  0.00  0.00    +0.139 C 
ATOM      9  C   UNL     1      33.282 -19.737 -21.036  0.00  0.00    +0.038 C 
ATOM     10  C   UNL     1      35.694 -19.876 -21.074  0.00  0.00    +0.038 C 
BRANCH   8  11
ATOM     11  O   UNL     1      34.543 -18.405 -22.562  0.00  0.00    -0.471 OA
BRANCH  11  12
ATOM     12  C   UNL     1      35.276 -17.208 -22.308  0.00  0.00    +0.232 C 
BRANCH  12  13
ATOM     13  C   UNL     1      34.311 -16.077 -22.102  0.00  0.00    +0.021 C 
ATOM     14  C   UNL     1      33.885 -15.316 -23.190  0.00  0.00    -0.001 C 
ATOM     15  C   UNL     1      33.839 -15.788 -20.822  0.00  0.00    -0.001 C 
ATOM     16  C   UNL     1      32.988 -14.265 -22.999  0.00  0.00    -0.000 C 
ATOM     17  C   UNL     1      32.941 -14.738 -20.631  0.00  0.00    -0.000 C 
ATOM     18  C   UNL     1      32.516 -13.976 -21.719  0.00  0.00    -0.000 C 
ENDBRANCH  12  13
ENDBRANCH  11  12
ENDBRANCH   8  11
ENDBRANCH   2   5
BRANCH   3  19
ATOM     19  C   UNL     1      33.674 -23.739 -16.802  0.00  0.00    +0.084 C 
BRANCH  19  20
ATOM     20  C   UNL     1      34.865 -23.261 -15.966  0.00  0.00    -0.001 C 
BRANCH  20  21
ATOM     21  CA  UNL     1      35.176 -24.212 -14.807  0.00  0.00    +0.041 C 
BRANCH  21  22
ATOM     22  N   UNL     1      35.489 -23.358 -13.618  0.00  0.00    +0.389 N 
ATOM     23  H1  UNL     1      36.485 -23.137 -13.611  0.00  0.00    -0.088 HD
ATOM     24  H2  UNL     1      35.247 -23.860 -12.765  0.00  0.00    -0.088 HD
ATOM     25  H3  UNL     1      34.949 -22.494 -13.669  0.00  0.00    -0.088 HD
ENDBRANCH  21  22
BRANCH  21  28
ATOM     26  O   UNL     1      35.922 -26.323 -15.554  0.00  0.00    -0.248 OA
ATOM     27  OXT UNL     1      37.479 -24.809 -14.847  0.00  0.00    -0.248 OA
ATOM     28  C   UNL     1      36.309 -25.212 -15.090  0.00  0.00    +0.345 C 
ENDBRANCH  21  28
ENDBRANCH  20  21
ENDBRANCH  19  20
ENDBRANCH   3  19
TORSDOF 9
ENDMDL
