MODEL 1
REMARK VINA RESULT:      -6.6      0.000      0.000
REMARK  Name = 5287890
REMARK  2 active torsions:
REMARK  status: ('A' for Active; 'I' for Inactive)
REMARK    1  A    between atoms: N_2  and  C_4
REMARK    2  A    between atoms: N_2  and  C_9
REMARK                            x       y       z     vdW  Elec       q    Type
REMARK                         _______ _______ _______ _____ _____    ______ ____
ROOT
ATOM      1  O   UNL     1      34.961 -17.480 -24.443  0.00  0.00    -0.265 OA
ATOM      2  N   UNL     1      34.534 -17.357 -22.139  0.00  0.00    -0.276 N 
ATOM      3  C   UNL     1      34.660 -16.855 -23.432  0.00  0.00    +0.303 C 
ENDROOT
BRANCH   2   4
ATOM      4  C   UNL     1      34.759 -18.745 -21.852  0.00  0.00    +0.076 C 
ATOM      5  C   UNL     1      35.992 -18.977 -20.988  0.00  0.00    +0.020 C 
ATOM      6  C   UNL     1      33.634 -19.372 -21.036  0.00  0.00    +0.020 C 
ATOM      7  C   UNL     1      35.786 -20.395 -20.480  0.00  0.00    +0.002 C 
ATOM      8  C   UNL     1      34.281 -20.518 -20.256  0.00  0.00    +0.002 C 
ENDBRANCH   2   4
BRANCH   2   9
ATOM      9  C   UNL     1      34.161 -16.467 -21.039  0.00  0.00    +0.076 C 
ATOM     10  C   UNL     1      32.710 -15.943 -21.100  0.00  0.00    +0.020 C 
ATOM     11  C   UNL     1      34.615 -15.003 -21.213  0.00  0.00    +0.020 C 
ATOM     12  C   UNL     1      33.259 -14.589 -20.603  0.00  0.00    +0.003 C 
ENDBRANCH   2   9
TORSDOF 2
ENDMDL
MODEL 2
REMARK VINA RESULT:      -6.6      1.158      4.140
REMARK  Name = 5287890
REMARK  2 active torsions:
REMARK  status: ('A' for Active; 'I' for Inactive)
REMARK    1  A    between atoms: N_2  and  C_4
REMARK    2  A    between atoms: N_2  and  C_9
REMARK                            x       y       z     vdW  Elec       q    Type
REMARK                         _______ _______ _______ _____ _____    ______ ____
ROOT
ATOM      1  O   UNL     1      34.923 -18.618 -24.450  0.00  0.00    -0.265 OA
ATOM      2  N   UNL     1      34.623 -18.298 -22.145  0.00  0.00    -0.276 N 
ATOM      3  C   UNL     1      34.636 -19.029 -23.331  0.00  0.00    +0.303 C 
ENDROOT
BRANCH   2   4
ATOM      4  C   UNL     1      34.969 -16.905 -22.122  0.00  0.00    +0.076 C 
ATOM      5  C   UNL     1      34.074 -16.059 -23.018  0.00  0.00    +0.020 C 
ATOM      6  C   UNL     1      34.792 -16.272 -20.746  0.00  0.00    +0.020 C 
ATOM      7  C   UNL     1      34.335 -14.648 -22.518  0.00  0.00    +0.002 C 
ATOM      8  C   UNL     1      34.514 -14.791 -21.008  0.00  0.00    +0.002 C 
ENDBRANCH   2   4
BRANCH   2   9
ATOM      9  C   UNL     1      34.256 -18.948 -20.886  0.00  0.00    +0.076 C 
ATOM     10  C   UNL     1      34.999 -20.271 -20.606  0.00  0.00    +0.020 C 
ATOM     11  C   UNL     1      32.957 -19.779 -20.946  0.00  0.00    +0.020 C 
ATOM     12  C   UNL     1      33.667 -20.811 -20.044  0.00  0.00    +0.003 C 
ENDBRANCH   2   9
TORSDOF 2
ENDMDL
MODEL 3
REMARK VINA RESULT:      -6.4      1.753      4.332
REMARK  Name = 5287890
REMARK  2 active torsions:
REMARK  status: ('A' for Active; 'I' for Inactive)
REMARK    1  A    between atoms: N_2  and  C_4
REMARK    2  A    between atoms: N_2  and  C_9
REMARK                            x       y       z     vdW  Elec       q    Type
REMARK                         _______ _______ _______ _____ _____    ______ ____
ROOT
ATOM      1  O   UNL     1      34.959 -15.441 -20.532  0.00  0.00    -0.265 OA
ATOM      2  N   UNL     1      34.807 -17.397 -21.819  0.00  0.00    -0.276 N 
ATOM      3  C   UNL     1      34.805 -16.652 -20.642  0.00  0.00    +0.303 C 
ENDROOT
BRANCH   2   4
ATOM      4  C   UNL     1      35.002 -16.773 -23.097  0.00  0.00    +0.076 C 
ATOM      5  C   UNL     1      34.932 -17.761 -24.253  0.00  0.00    +0.020 C 
ATOM      6  C   UNL     1      33.913 -15.758 -23.434  0.00  0.00    +0.020 C 
ATOM      7  C   UNL     1      34.738 -16.856 -25.459  0.00  0.00    +0.002 C 
ATOM      8  C   UNL     1      33.843 -15.723 -24.961  0.00  0.00    +0.002 C 
ENDBRANCH   2   4
BRANCH   2   9
ATOM      9  C   UNL     1      34.604 -18.845 -21.772  0.00  0.00    +0.076 C 
ATOM     10  C   UNL     1      33.441 -19.302 -20.866  0.00  0.00    +0.020 C 
ATOM     11  C   UNL     1      35.547 -19.597 -20.810  0.00  0.00    +0.020 C 
ATOM     12  C   UNL     1      34.339 -20.482 -20.439  0.00  0.00    +0.003 C 
ENDBRANCH   2   9
TORSDOF 2
ENDMDL
MODEL 4
REMARK VINA RESULT:      -6.4      2.241      3.306
REMARK  Name = 5287890
REMARK  2 active torsions:
REMARK  status: ('A' for Active; 'I' for Inactive)
REMARK    1  A    between atoms: N_2  and  C_4
REMARK    2  A    between atoms: N_2  and  C_9
REMARK                            x       y       z     vdW  Elec       q    Type
REMARK                         _______ _______ _______ _____ _____    ______ ____
ROOT
ATOM      1  O   UNL     1      35.321 -16.562 -20.247  0.00  0.00    -0.265 OA
ATOM      2  N   UNL     1      34.279 -15.936 -22.254  0.00  0.00    -0.276 N 
ATOM      3  C   UNL     1      34.560 -15.849 -20.892  0.00  0.00    +0.303 C 
ENDROOT
BRANCH   2   4
ATOM      4  C   UNL     1      34.897 -16.933 -23.082  0.00  0.00    +0.076 C 
ATOM      5  C   UNL     1      34.517 -18.352 -22.681  0.00  0.00    +0.020 C 
ATOM      6  C   UNL     1      34.458 -16.849 -24.540  0.00  0.00    +0.020 C 
ATOM      7  C   UNL     1      34.916 -19.166 -23.901  0.00  0.00    +0.002 C 
ATOM      8  C   UNL     1      34.600 -18.267 -25.095  0.00  0.00    +0.002 C 
ENDBRANCH   2   4
BRANCH   2   9
ATOM      9  C   UNL     1      33.342 -14.997 -22.872  0.00  0.00    +0.076 C 
ATOM     10  C   UNL     1      33.938 -13.610 -23.190  0.00  0.00    +0.020 C 
ATOM     11  C   UNL     1      32.402 -14.281 -21.880  0.00  0.00    +0.020 C 
ATOM     12  C   UNL     1      32.590 -13.012 -22.738  0.00  0.00    +0.003 C 
ENDBRANCH   2   9
TORSDOF 2
ENDMDL
MODEL 5
REMARK VINA RESULT:      -6.3      1.630      3.184
REMARK  Name = 5287890
REMARK  2 active torsions:
REMARK  status: ('A' for Active; 'I' for Inactive)
REMARK    1  A    between atoms: N_2  and  C_4
REMARK    2  A    between atoms: N_2  and  C_9
REMARK                            x       y       z     vdW  Elec       q    Type
REMARK                         _______ _______ _______ _____ _____    ______ ____
ROOT
ATOM      1  O   UNL     1      33.890 -15.701 -20.639  0.00  0.00    -0.265 OA
ATOM      2  N   UNL     1      34.857 -17.360 -21.987  0.00  0.00    -0.276 N 
ATOM      3  C   UNL     1      34.296 -16.114 -21.721  0.00  0.00    +0.303 C 
ENDROOT
BRANCH   2   4
ATOM      4  C   UNL     1      35.025 -18.340 -20.952  0.00  0.00    +0.076 C 
ATOM      5  C   UNL     1      33.986 -19.451 -21.016  0.00  0.00    +0.020 C 
ATOM      6  C   UNL     1      36.349 -19.091 -21.054  0.00  0.00    +0.020 C 
ATOM      7  C   UNL     1      34.598 -20.537 -20.146  0.00  0.00    +0.002 C 
ATOM      8  C   UNL     1      36.099 -20.456 -20.413  0.00  0.00    +0.002 C 
ENDBRANCH   2   4
BRANCH   2   9
ATOM      9  C   UNL     1      35.295 -17.693 -23.343  0.00  0.00    +0.076 C 
ATOM     10  C   UNL     1      34.887 -16.668 -24.421  0.00  0.00    +0.020 C 
ATOM     11  C   UNL     1      34.396 -18.709 -24.078  0.00  0.00    +0.020 C 
ATOM     12  C   UNL     1      34.619 -17.868 -25.353  0.00  0.00    +0.003 C 
ENDBRANCH   2   9
TORSDOF 2
ENDMDL
MODEL 6
REMARK VINA RESULT:      -6.3      2.030      3.241
REMARK  Name = 5287890
REMARK  2 active torsions:
REMARK  status: ('A' for Active; 'I' for Inactive)
REMARK    1  A    between atoms: N_2  and  C_4
REMARK    2  A    between atoms: N_2  and  C_9
REMARK                            x       y       z     vdW  Elec       q    Type
REMARK                         _______ _______ _______ _____ _____    ______ ____
ROOT
ATOM      1  O   UNL     1      36.077 -18.561 -20.633  0.00  0.00    -0.265 OA
ATOM      2  N   UNL     1      34.880 -16.980 -21.887  0.00  0.00    -0.276 N 
ATOM      3  C   UNL     1      35.372 -17.562 -20.721  0.00  0.00    +0.303 C 
ENDROOT
BRANCH   2   4
ATOM      4  C   UNL     1      35.175 -17.531 -23.179  0.00  0.00    +0.076 C 
ATOM      5  C   UNL     1      34.471 -18.859 -23.428  0.00  0.00    +0.020 C 
ATOM      6  C   UNL     1      34.686 -16.652 -24.325  0.00  0.00    +0.020 C 
ATOM      7  C   UNL     1      34.578 -19.019 -24.936  0.00  0.00    +0.002 C 
ATOM      8  C   UNL     1      34.430 -17.605 -25.494  0.00  0.00    +0.002 C 
ENDBRANCH   2   4
BRANCH   2   9
ATOM      9  C   UNL     1      34.049 -15.777 -21.813  0.00  0.00    +0.076 C 
ATOM     10  C   UNL     1      34.442 -14.792 -20.692  0.00  0.00    +0.020 C 
ATOM     11  C   UNL     1      32.709 -15.966 -21.073  0.00  0.00    +0.020 C 
ATOM     12  C   UNL     1      32.933 -14.563 -20.470  0.00  0.00    +0.003 C 
ENDBRANCH   2   9
TORSDOF 2
ENDMDL
MODEL 7
REMARK VINA RESULT:      -6.3      2.365      4.269
REMARK  Name = 5287890
REMARK  2 active torsions:
REMARK  status: ('A' for Active; 'I' for Inactive)
REMARK    1  A    between atoms: N_2  and  C_4
REMARK    2  A    between atoms: N_2  and  C_9
REMARK                            x       y       z     vdW  Elec       q    Type
REMARK                         _______ _______ _______ _____ _____    ______ ____
ROOT
ATOM      1  O   UNL     1      37.698 -19.010 -20.958  0.00  0.00    -0.265 OA
ATOM      2  N   UNL     1      35.511 -19.311 -21.754  0.00  0.00    -0.276 N 
ATOM      3  C   UNL     1      36.574 -19.494 -20.873  0.00  0.00    +0.303 C 
ENDROOT
BRANCH   2   4
ATOM      4  C   UNL     1      35.641 -18.483 -22.919  0.00  0.00    +0.076 C 
ATOM      5  C   UNL     1      34.689 -18.885 -24.038  0.00  0.00    +0.020 C 
ATOM      6  C   UNL     1      35.280 -17.025 -22.655  0.00  0.00    +0.020 C 
ATOM      7  C   UNL     1      34.700 -17.664 -24.944  0.00  0.00    +0.002 C 
ATOM      8  C   UNL     1      34.800 -16.471 -23.997  0.00  0.00    +0.002 C 
ENDBRANCH   2   4
BRANCH   2   9
ATOM      9  C   UNL     1      34.226 -19.964 -21.500  0.00  0.00    +0.076 C 
ATOM     10  C   UNL     1      33.182 -19.075 -20.793  0.00  0.00    +0.020 C 
ATOM     11  C   UNL     1      34.198 -20.862 -20.246  0.00  0.00    +0.020 C 
ATOM     12  C   UNL     1      32.774 -20.327 -19.989  0.00  0.00    +0.003 C 
ENDBRANCH   2   9
TORSDOF 2
ENDMDL
MODEL 8
REMARK VINA RESULT:      -6.1      2.499      3.065
REMARK  Name = 5287890
REMARK  2 active torsions:
REMARK  status: ('A' for Active; 'I' for Inactive)
REMARK    1  A    between atoms: N_2  and  C_4
REMARK    2  A    between atoms: N_2  and  C_9
REMARK                            x       y       z     vdW  Elec       q    Type
REMARK                         _______ _______ _______ _____ _____    ______ ____
ROOT
ATOM      1  O   UNL     1      33.441 -15.647 -26.537  0.00  0.00    -0.265 OA
ATOM      2  N   UNL     1      34.086 -15.414 -24.294  0.00  0.00    -0.276 N 
ATOM      3  C   UNL     1      33.414 -15.060 -25.461  0.00  0.00    +0.303 C 
ENDROOT
BRANCH   2   4
ATOM      4  C   UNL     1      34.925 -16.577 -24.238  0.00  0.00    +0.076 C 
ATOM      5  C   UNL     1      35.339 -16.938 -22.818  0.00  0.00    +0.020 C 
ATOM      6  C   UNL     1      34.225 -17.839 -24.733  0.00  0.00    +0.020 C 
ATOM      7  C   UNL     1      35.829 -18.370 -22.963  0.00  0.00    +0.002 C 
ATOM      8  C   UNL     1      34.905 -18.999 -24.004  0.00  0.00    +0.002 C 
ENDBRANCH   2   4
BRANCH   2   9
ATOM      9  C   UNL     1      33.940 -14.598 -23.087  0.00  0.00    +0.076 C 
ATOM     10  C   UNL     1      32.677 -14.901 -22.255  0.00  0.00    +0.020 C 
ATOM     11  C   UNL     1      33.351 -13.193 -23.328  0.00  0.00    +0.020 C 
ATOM     12  C   UNL     1      32.564 -13.382 -22.014  0.00  0.00    +0.003 C 
ENDBRANCH   2   9
TORSDOF 2
ENDMDL
MODEL 9
REMARK VINA RESULT:      -6.0      8.005      9.019
REMARK  Name = 5287890
REMARK  2 active torsions:
REMARK  status: ('A' for Active; 'I' for Inactive)
REMARK    1  A    between atoms: N_2  and  C_4
REMARK    2  A    between atoms: N_2  and  C_9
REMARK                            x       y       z     vdW  Elec       q    Type
REMARK                         _______ _______ _______ _____ _____    ______ ____
ROOT
ATOM      1  O   UNL     1      30.631  -7.597 -23.671  0.00  0.00    -0.265 OA
ATOM      2  N   UNL     1      32.273  -9.087 -22.906  0.00  0.00    -0.276 N 
ATOM      3  C   UNL     1      31.714  -8.161 -23.783  0.00  0.00    +0.303 C 
ENDROOT
BRANCH   2   4
ATOM      4  C   UNL     1      31.590  -9.491 -21.710  0.00  0.00    +0.076 C 
ATOM      5  C   UNL     1      31.572 -11.002 -21.522  0.00  0.00    +0.020 C 
ATOM      6  C   UNL     1      32.266  -8.985 -20.440  0.00  0.00    +0.020 C 
ATOM      7  C   UNL     1      31.202 -11.155 -20.056  0.00  0.00    +0.002 C 
ATOM      8  C   UNL     1      31.900  -9.995 -19.350  0.00  0.00    +0.002 C 
ENDBRANCH   2   4
BRANCH   2   9
ATOM      9  C   UNL     1      33.587  -9.666 -23.190  0.00  0.00    +0.076 C 
ATOM     10  C   UNL     1      34.560  -8.723 -23.927  0.00  0.00    +0.020 C 
ATOM     11  C   UNL     1      33.636 -10.568 -24.440  0.00  0.00    +0.020 C 
ATOM     12  C   UNL     1      35.020  -9.953 -24.736  0.00  0.00    +0.003 C 
ENDBRANCH   2   9
TORSDOF 2
ENDMDL
