MODEL 1
REMARK VINA RESULT:     -10.0      0.000      0.000
REMARK  Name = 1283969
REMARK  3 active torsions:
REMARK  status: ('A' for Active; 'I' for Inactive)
REMARK    1  A    between atoms: N_2  and  C_7
REMARK    2  A    between atoms: C_4  and  C_15
REMARK    3  A    between atoms: N_14  and  C_19
REMARK                            x       y       z     vdW  Elec       q    Type
REMARK                         _______ _______ _______ _____ _____    ______ ____
ROOT
ATOM      1  O   UNL     1      32.839  -8.086 -19.903  0.00  0.00    -0.275 OA
ATOM      2  N   UNL     1      31.823  -8.266 -22.014  0.00  0.00    -0.281 N 
ATOM      3  C   UNL     1      30.965  -9.203 -22.702  0.00  0.00    +0.103 C 
ATOM      4  C   UNL     1      31.136 -10.493 -21.919  0.00  0.00    +0.106 C 
ATOM      5  C   UNL     1      31.558 -10.047 -20.519  0.00  0.00    +0.096 C 
ATOM      6  C   UNL     1      32.179  -8.687 -20.738  0.00  0.00    +0.226 C 
ENDROOT
BRANCH   2   7
ATOM      7  C   UNL     1      32.138  -6.978 -22.584  0.00  0.00    +0.075 C 
ATOM      8  C   UNL     1      32.381  -7.098 -24.091  0.00  0.00    +0.020 C 
ATOM      9  C   UNL     1      31.027  -5.970 -22.278  0.00  0.00    +0.020 C 
ATOM     10  C   UNL     1      32.664  -5.739 -24.725  0.00  0.00    +0.002 C 
ATOM     11  C   UNL     1      31.309  -4.612 -22.915  0.00  0.00    +0.002 C 
ATOM     12  C   UNL     1      31.556  -4.734 -24.416  0.00  0.00    +0.000 C 
ENDBRANCH   2   7
BRANCH   4  15
ATOM     13  O   UNL     1      33.049 -10.921 -23.260  0.00  0.00    -0.275 OA
ATOM     14  N   UNL     1      31.985 -12.709 -22.163  0.00  0.00    -0.284 N 
ATOM     15  C   UNL     1      32.177 -11.384 -22.534  0.00  0.00    +0.228 C 
ATOM     16  H   UNL     1      31.221 -12.889 -21.569  0.00  0.00    +0.155 HD
BRANCH  14  19
ATOM     17 CL   UNL     1      34.987 -16.601 -20.738  0.00  0.00    -0.082 Cl
ATOM     18 CL   UNL     1      33.745 -15.713 -25.914  0.00  0.00    -0.082 Cl
ATOM     19  C   UNL     1      32.760 -13.830 -22.542  0.00  0.00    +0.052 C 
ATOM     20  C   UNL     1      32.853 -14.169 -23.882  0.00  0.00    +0.026 C 
ATOM     21  C   UNL     1      33.411 -14.565 -21.564  0.00  0.00    +0.026 C 
ATOM     22  C   UNL     1      34.175 -15.672 -21.937  0.00  0.00    +0.060 C 
ATOM     23  C   UNL     1      33.616 -15.276 -24.254  0.00  0.00    +0.060 C 
ATOM     24  C   UNL     1      34.277 -16.027 -23.282  0.00  0.00    +0.023 C 
ENDBRANCH  14  19
ENDBRANCH   4  15
TORSDOF 3
ENDMDL
MODEL 2
REMARK VINA RESULT:     -10.0      0.057      1.884
REMARK  Name = 1283969
REMARK  3 active torsions:
REMARK  status: ('A' for Active; 'I' for Inactive)
REMARK    1  A    between atoms: N_2  and  C_7
REMARK    2  A    between atoms: C_4  and  C_15
REMARK    3  A    between atoms: N_14  and  C_19
REMARK                            x       y       z     vdW  Elec       q    Type
REMARK                         _______ _______ _______ _____ _____    ______ ____
ROOT
ATOM      1  O   UNL     1      32.832  -8.040 -19.892  0.00  0.00    -0.275 OA
ATOM      2  N   UNL     1      31.808  -8.228 -21.999  0.00  0.00    -0.281 N 
ATOM      3  C   UNL     1      30.951  -9.170 -22.681  0.00  0.00    +0.103 C 
ATOM      4  C   UNL     1      31.129 -10.457 -21.895  0.00  0.00    +0.106 C 
ATOM      5  C   UNL     1      31.555 -10.006 -20.499  0.00  0.00    +0.096 C 
ATOM      6  C   UNL     1      32.171  -8.645 -20.723  0.00  0.00    +0.226 C 
ENDROOT
BRANCH   2   7
ATOM      7  C   UNL     1      32.116  -6.941 -22.573  0.00  0.00    +0.075 C 
ATOM      8  C   UNL     1      32.299  -7.054 -24.090  0.00  0.00    +0.020 C 
ATOM      9  C   UNL     1      31.031  -5.921 -22.218  0.00  0.00    +0.020 C 
ATOM     10  C   UNL     1      32.573  -5.694 -24.726  0.00  0.00    +0.002 C 
ATOM     11  C   UNL     1      31.304  -4.563 -22.858  0.00  0.00    +0.002 C 
ATOM     12  C   UNL     1      31.490  -4.678 -24.368  0.00  0.00    +0.000 C 
ENDBRANCH   2   7
BRANCH   4  15
ATOM     13  O   UNL     1      33.047 -10.879 -23.232  0.00  0.00    -0.275 OA
ATOM     14  N   UNL     1      31.973 -12.673 -22.153  0.00  0.00    -0.284 N 
ATOM     15  C   UNL     1      32.171 -11.345 -22.512  0.00  0.00    +0.228 C 
ATOM     16  H   UNL     1      31.206 -12.855 -21.564  0.00  0.00    +0.155 HD
BRANCH  14  19
ATOM     17 CL   UNL     1      33.718 -15.668 -25.917  0.00  0.00    -0.082 Cl
ATOM     18 CL   UNL     1      34.991 -16.561 -20.750  0.00  0.00    -0.082 Cl
ATOM     19  C   UNL     1      32.747 -13.793 -22.536  0.00  0.00    +0.052 C 
ATOM     20  C   UNL     1      33.404 -14.529 -21.563  0.00  0.00    +0.026 C 
ATOM     21  C   UNL     1      32.832 -14.131 -23.878  0.00  0.00    +0.026 C 
ATOM     22  C   UNL     1      33.596 -15.235 -24.257  0.00  0.00    +0.060 C 
ATOM     23  C   UNL     1      34.168 -15.633 -21.943  0.00  0.00    +0.060 C 
ATOM     24  C   UNL     1      34.264 -15.986 -23.289  0.00  0.00    +0.023 C 
ENDBRANCH  14  19
ENDBRANCH   4  15
TORSDOF 3
ENDMDL
MODEL 3
REMARK VINA RESULT:      -9.8      7.939     13.007
REMARK  Name = 1283969
REMARK  3 active torsions:
REMARK  status: ('A' for Active; 'I' for Inactive)
REMARK    1  A    between atoms: N_2  and  C_7
REMARK    2  A    between atoms: C_4  and  C_15
REMARK    3  A    between atoms: N_14  and  C_19
REMARK                            x       y       z     vdW  Elec       q    Type
REMARK                         _______ _______ _______ _____ _____    ______ ____
ROOT
ATOM      1  O   UNL     1      37.185 -21.288 -16.912  0.00  0.00    -0.275 OA
ATOM      2  N   UNL     1      35.187 -22.276 -17.656  0.00  0.00    -0.281 N 
ATOM      3  C   UNL     1      34.613 -22.687 -18.916  0.00  0.00    +0.103 C 
ATOM      4  C   UNL     1      35.413 -21.914 -19.950  0.00  0.00    +0.106 C 
ATOM      5  C   UNL     1      36.752 -21.628 -19.271  0.00  0.00    +0.096 C 
ATOM      6  C   UNL     1      36.435 -21.679 -17.795  0.00  0.00    +0.226 C 
ENDROOT
BRANCH   2   7
ATOM      7  C   UNL     1      34.552 -22.597 -16.401  0.00  0.00    +0.075 C 
ATOM      8  C   UNL     1      33.142 -23.147 -16.633  0.00  0.00    +0.020 C 
ATOM      9  C   UNL     1      35.409 -23.583 -15.603  0.00  0.00    +0.020 C 
ATOM     10  C   UNL     1      32.470 -23.544 -15.321  0.00  0.00    +0.002 C 
ATOM     11  C   UNL     1      34.735 -23.981 -14.293  0.00  0.00    +0.002 C 
ATOM     12  C   UNL     1      33.329 -24.525 -14.526  0.00  0.00    +0.000 C 
ENDBRANCH   2   7
BRANCH   4  15
ATOM     13  O   UNL     1      33.602 -20.377 -19.934  0.00  0.00    -0.275 OA
ATOM     14  N   UNL     1      35.532 -19.875 -21.182  0.00  0.00    -0.284 N 
ATOM     15  C   UNL     1      34.728 -20.637 -20.343  0.00  0.00    +0.228 C 
ATOM     16  H   UNL     1      36.412 -20.255 -21.405  0.00  0.00    +0.155 HD
BRANCH  14  19
ATOM     17 CL   UNL     1      34.632 -17.125 -25.403  0.00  0.00    -0.082 Cl
ATOM     18 CL   UNL     1      34.570 -14.897 -20.488  0.00  0.00    -0.082 Cl
ATOM     19  C   UNL     1      35.230 -18.618 -21.756  0.00  0.00    +0.052 C 
ATOM     20  C   UNL     1      35.071 -17.517 -20.930  0.00  0.00    +0.026 C 
ATOM     21  C   UNL     1      35.100 -18.514 -23.131  0.00  0.00    +0.026 C 
ATOM     22  C   UNL     1      34.802 -17.274 -23.697  0.00  0.00    +0.060 C 
ATOM     23  C   UNL     1      34.771 -16.277 -21.496  0.00  0.00    +0.060 C 
ATOM     24  C   UNL     1      34.637 -16.156 -22.879  0.00  0.00    +0.023 C 
ENDBRANCH  14  19
ENDBRANCH   4  15
TORSDOF 3
ENDMDL
MODEL 4
REMARK VINA RESULT:      -9.8      7.935     12.893
REMARK  Name = 1283969
REMARK  3 active torsions:
REMARK  status: ('A' for Active; 'I' for Inactive)
REMARK    1  A    between atoms: N_2  and  C_7
REMARK    2  A    between atoms: C_4  and  C_15
REMARK    3  A    between atoms: N_14  and  C_19
REMARK                            x       y       z     vdW  Elec       q    Type
REMARK                         _______ _______ _______ _____ _____    ______ ____
ROOT
ATOM      1  O   UNL     1      37.192 -21.282 -16.929  0.00  0.00    -0.275 OA
ATOM      2  N   UNL     1      35.189 -22.270 -17.661  0.00  0.00    -0.281 N 
ATOM      3  C   UNL     1      34.608 -22.684 -18.917  0.00  0.00    +0.103 C 
ATOM      4  C   UNL     1      35.405 -21.914 -19.957  0.00  0.00    +0.106 C 
ATOM      5  C   UNL     1      36.747 -21.627 -19.284  0.00  0.00    +0.096 C 
ATOM      6  C   UNL     1      36.437 -21.674 -17.806  0.00  0.00    +0.226 C 
ENDROOT
BRANCH   2   7
ATOM      7  C   UNL     1      34.560 -22.588 -16.402  0.00  0.00    +0.075 C 
ATOM      8  C   UNL     1      33.152 -23.148 -16.627  0.00  0.00    +0.020 C 
ATOM      9  C   UNL     1      35.425 -23.563 -15.601  0.00  0.00    +0.020 C 
ATOM     10  C   UNL     1      32.487 -23.541 -15.310  0.00  0.00    +0.002 C 
ATOM     11  C   UNL     1      34.757 -23.958 -14.286  0.00  0.00    +0.002 C 
ATOM     12  C   UNL     1      33.353 -24.512 -14.512  0.00  0.00    +0.000 C 
ENDBRANCH   2   7
BRANCH   4  15
ATOM     13  O   UNL     1      33.592 -20.378 -19.940  0.00  0.00    -0.275 OA
ATOM     14  N   UNL     1      35.522 -19.875 -21.188  0.00  0.00    -0.284 N 
ATOM     15  C   UNL     1      34.719 -20.637 -20.349  0.00  0.00    +0.228 C 
ATOM     16  H   UNL     1      36.403 -20.254 -21.410  0.00  0.00    +0.155 HD
BRANCH  14  19
ATOM     17 CL   UNL     1      34.577 -14.894 -20.491  0.00  0.00    -0.082 Cl
ATOM     18 CL   UNL     1      34.613 -17.123 -25.406  0.00  0.00    -0.082 Cl
ATOM     19  C   UNL     1      35.220 -18.617 -21.761  0.00  0.00    +0.052 C 
ATOM     20  C   UNL     1      35.083 -18.514 -23.136  0.00  0.00    +0.026 C 
ATOM     21  C   UNL     1      35.066 -17.516 -20.935  0.00  0.00    +0.026 C 
ATOM     22  C   UNL     1      34.768 -16.275 -21.500  0.00  0.00    +0.060 C 
ATOM     23  C   UNL     1      34.787 -17.273 -23.701  0.00  0.00    +0.060 C 
ATOM     24  C   UNL     1      34.628 -16.154 -22.882  0.00  0.00    +0.023 C 
ENDBRANCH  14  19
ENDBRANCH   4  15
TORSDOF 3
ENDMDL
MODEL 5
REMARK VINA RESULT:      -9.4      4.738     10.359
REMARK  Name = 1283969
REMARK  3 active torsions:
REMARK  status: ('A' for Active; 'I' for Inactive)
REMARK    1  A    between atoms: N_2  and  C_7
REMARK    2  A    between atoms: C_4  and  C_15
REMARK    3  A    between atoms: N_14  and  C_19
REMARK                            x       y       z     vdW  Elec       q    Type
REMARK                         _______ _______ _______ _____ _____    ______ ____
ROOT
ATOM      1  O   UNL     1      37.343 -19.009 -21.310  0.00  0.00    -0.275 OA
ATOM      2  N   UNL     1      34.995 -19.053 -21.398  0.00  0.00    -0.281 N 
ATOM      3  C   UNL     1      33.958 -18.581 -22.286  0.00  0.00    +0.103 C 
ATOM      4  C   UNL     1      34.649 -17.511 -23.114  0.00  0.00    +0.106 C 
ATOM      5  C   UNL     1      36.129 -17.888 -23.080  0.00  0.00    +0.096 C 
ATOM      6  C   UNL     1      36.274 -18.704 -21.817  0.00  0.00    +0.226 C 
ENDROOT
BRANCH   2   7
ATOM      7  C   UNL     1      34.691 -19.910 -20.277  0.00  0.00    +0.075 C 
ATOM      8  C   UNL     1      33.269 -20.466 -20.391  0.00  0.00    +0.020 C 
ATOM      9  C   UNL     1      35.722 -21.035 -20.168  0.00  0.00    +0.020 C 
ATOM     10  C   UNL     1      32.944 -21.418 -19.243  0.00  0.00    +0.002 C 
ATOM     11  C   UNL     1      35.394 -21.989 -19.022  0.00  0.00    +0.002 C 
ATOM     12  C   UNL     1      33.975 -22.539 -19.135  0.00  0.00    +0.000 C 
ENDBRANCH   2   7
BRANCH   4  15
ATOM     13  O   UNL     1      34.823 -15.860 -21.414  0.00  0.00    -0.275 OA
ATOM     14  N   UNL     1      33.763 -15.321 -23.445  0.00  0.00    -0.284 N 
ATOM     15  C   UNL     1      34.431 -16.140 -22.542  0.00  0.00    +0.228 C 
ATOM     16  H   UNL     1      33.526 -15.729 -24.309  0.00  0.00    +0.155 HD
BRANCH  14  19
ATOM     17 CL   UNL     1      34.314 -10.427 -24.835  0.00  0.00    -0.082 Cl
ATOM     18 CL   UNL     1      30.874 -11.912 -20.951  0.00  0.00    -0.082 Cl
ATOM     19  C   UNL     1      33.383 -13.971 -23.265  0.00  0.00    +0.052 C 
ATOM     20  C   UNL     1      32.431 -13.656 -22.309  0.00  0.00    +0.026 C 
ATOM     21  C   UNL     1      33.972 -12.991 -24.047  0.00  0.00    +0.026 C 
ATOM     22  C   UNL     1      33.597 -11.659 -23.870  0.00  0.00    +0.060 C 
ATOM     23  C   UNL     1      32.055 -12.324 -22.133  0.00  0.00    +0.060 C 
ATOM     24  C   UNL     1      32.639 -11.325 -22.913  0.00  0.00    +0.023 C 
ENDBRANCH  14  19
ENDBRANCH   4  15
TORSDOF 3
ENDMDL
MODEL 6
REMARK VINA RESULT:      -9.3      4.734     10.257
REMARK  Name = 1283969
REMARK  3 active torsions:
REMARK  status: ('A' for Active; 'I' for Inactive)
REMARK    1  A    between atoms: N_2  and  C_7
REMARK    2  A    between atoms: C_4  and  C_15
REMARK    3  A    between atoms: N_14  and  C_19
REMARK                            x       y       z     vdW  Elec       q    Type
REMARK                         _______ _______ _______ _____ _____    ______ ____
ROOT
ATOM      1  O   UNL     1      37.352 -19.000 -21.339  0.00  0.00    -0.275 OA
ATOM      2  N   UNL     1      35.003 -19.049 -21.414  0.00  0.00    -0.281 N 
ATOM      3  C   UNL     1      33.961 -18.580 -22.298  0.00  0.00    +0.103 C 
ATOM      4  C   UNL     1      34.645 -17.509 -23.130  0.00  0.00    +0.106 C 
ATOM      5  C   UNL     1      36.126 -17.882 -23.104  0.00  0.00    +0.096 C 
ATOM      6  C   UNL     1      36.279 -18.697 -21.841  0.00  0.00    +0.226 C 
ENDROOT
BRANCH   2   7
ATOM      7  C   UNL     1      34.708 -19.905 -20.292  0.00  0.00    +0.075 C 
ATOM      8  C   UNL     1      33.284 -20.461 -20.396  0.00  0.00    +0.020 C 
ATOM      9  C   UNL     1      35.739 -21.031 -20.189  0.00  0.00    +0.020 C 
ATOM     10  C   UNL     1      32.968 -21.413 -19.245  0.00  0.00    +0.002 C 
ATOM     11  C   UNL     1      35.419 -21.984 -19.041  0.00  0.00    +0.002 C 
ATOM     12  C   UNL     1      34.000 -22.534 -19.144  0.00  0.00    +0.000 C 
ENDBRANCH   2   7
BRANCH   4  15
ATOM     13  O   UNL     1      34.816 -15.859 -21.429  0.00  0.00    -0.275 OA
ATOM     14  N   UNL     1      33.763 -15.318 -23.462  0.00  0.00    -0.284 N 
ATOM     15  C   UNL     1      34.428 -16.137 -22.558  0.00  0.00    +0.228 C 
ATOM     16  H   UNL     1      33.528 -15.724 -24.327  0.00  0.00    +0.155 HD
BRANCH  14  19
ATOM     17 CL   UNL     1      30.870 -11.909 -20.973  0.00  0.00    -0.082 Cl
ATOM     18 CL   UNL     1      34.330 -10.421 -24.837  0.00  0.00    -0.082 Cl
ATOM     19  C   UNL     1      33.384 -13.967 -23.282  0.00  0.00    +0.052 C 
ATOM     20  C   UNL     1      33.978 -12.986 -24.060  0.00  0.00    +0.026 C 
ATOM     21  C   UNL     1      32.427 -13.653 -22.331  0.00  0.00    +0.026 C 
ATOM     22  C   UNL     1      32.054 -12.320 -22.152  0.00  0.00    +0.060 C 
ATOM     23  C   UNL     1      33.605 -11.654 -23.881  0.00  0.00    +0.060 C 
ATOM     24  C   UNL     1      32.643 -11.321 -22.927  0.00  0.00    +0.023 C 
ENDBRANCH  14  19
ENDBRANCH   4  15
TORSDOF 3
ENDMDL
MODEL 7
REMARK VINA RESULT:      -9.3      3.539      8.616
REMARK  Name = 1283969
REMARK  3 active torsions:
REMARK  status: ('A' for Active; 'I' for Inactive)
REMARK    1  A    between atoms: N_2  and  C_7
REMARK    2  A    between atoms: C_4  and  C_15
REMARK    3  A    between atoms: N_14  and  C_19
REMARK                            x       y       z     vdW  Elec       q    Type
REMARK                         _______ _______ _______ _____ _____    ______ ____
ROOT
ATOM      1  O   UNL     1      34.238 -15.708 -26.010  0.00  0.00    -0.275 OA
ATOM      2  N   UNL     1      33.857 -15.460 -23.704  0.00  0.00    -0.281 N 
ATOM      3  C   UNL     1      32.936 -14.743 -22.853  0.00  0.00    +0.103 C 
ATOM      4  C   UNL     1      32.383 -13.652 -23.754  0.00  0.00    +0.106 C 
ATOM      5  C   UNL     1      32.537 -14.201 -25.171  0.00  0.00    +0.096 C 
ATOM      6  C   UNL     1      33.660 -15.206 -25.057  0.00  0.00    +0.226 C 
ENDROOT
BRANCH   2   7
ATOM      7  C   UNL     1      34.778 -16.430 -23.165  0.00  0.00    +0.075 C 
ATOM      8  C   UNL     1      34.529 -16.639 -21.668  0.00  0.00    +0.020 C 
ATOM      9  C   UNL     1      34.680 -17.749 -23.935  0.00  0.00    +0.020 C 
ATOM     10  C   UNL     1      35.457 -17.702 -21.087  0.00  0.00    +0.002 C 
ATOM     11  C   UNL     1      35.607 -18.812 -23.351  0.00  0.00    +0.002 C 
ATOM     12  C   UNL     1      35.360 -19.016 -21.859  0.00  0.00    +0.000 C 
ENDBRANCH   2   7
BRANCH   4  15
ATOM     13  O   UNL     1      34.325 -12.289 -23.894  0.00  0.00    -0.275 OA
ATOM     14  N   UNL     1      32.319 -11.363 -23.085  0.00  0.00    -0.284 N 
ATOM     15  C   UNL     1      33.138 -12.364 -23.594  0.00  0.00    +0.228 C 
ATOM     16  H   UNL     1      31.386 -11.616 -22.901  0.00  0.00    +0.155 HD
BRANCH  14  19
ATOM     17 CL   UNL     1      32.118  -7.410 -19.841  0.00  0.00    -0.082 Cl
ATOM     18 CL   UNL     1      34.693  -7.080 -24.572  0.00  0.00    -0.082 Cl
ATOM     19  C   UNL     1      32.672 -10.023 -22.800  0.00  0.00    +0.052 C 
ATOM     20  C   UNL     1      33.418  -9.307 -23.722  0.00  0.00    +0.026 C 
ATOM     21  C   UNL     1      32.263  -9.455 -21.604  0.00  0.00    +0.026 C 
ATOM     22  C   UNL     1      32.612  -8.133 -21.322  0.00  0.00    +0.060 C 
ATOM     23  C   UNL     1      33.767  -7.986 -23.440  0.00  0.00    +0.060 C 
ATOM     24  C   UNL     1      33.363  -7.400 -22.240  0.00  0.00    +0.023 C 
ENDBRANCH  14  19
ENDBRANCH   4  15
TORSDOF 3
ENDMDL
MODEL 8
REMARK VINA RESULT:      -9.3      3.538      8.767
REMARK  Name = 1283969
REMARK  3 active torsions:
REMARK  status: ('A' for Active; 'I' for Inactive)
REMARK    1  A    between atoms: N_2  and  C_7
REMARK    2  A    between atoms: C_4  and  C_15
REMARK    3  A    between atoms: N_14  and  C_19
REMARK                            x       y       z     vdW  Elec       q    Type
REMARK                         _______ _______ _______ _____ _____    ______ ____
ROOT
ATOM      1  O   UNL     1      34.223 -15.706 -25.997  0.00  0.00    -0.275 OA
ATOM      2  N   UNL     1      33.848 -15.452 -23.690  0.00  0.00    -0.281 N 
ATOM      3  C   UNL     1      32.929 -14.733 -22.839  0.00  0.00    +0.103 C 
ATOM      4  C   UNL     1      32.374 -13.644 -23.741  0.00  0.00    +0.106 C 
ATOM      5  C   UNL     1      32.524 -14.197 -25.157  0.00  0.00    +0.096 C 
ATOM      6  C   UNL     1      33.647 -15.202 -25.043  0.00  0.00    +0.226 C 
ENDROOT
BRANCH   2   7
ATOM      7  C   UNL     1      34.770 -16.421 -23.151  0.00  0.00    +0.075 C 
ATOM      8  C   UNL     1      34.495 -16.660 -21.663  0.00  0.00    +0.020 C 
ATOM      9  C   UNL     1      34.703 -17.727 -23.946  0.00  0.00    +0.020 C 
ATOM     10  C   UNL     1      35.425 -17.722 -21.083  0.00  0.00    +0.002 C 
ATOM     11  C   UNL     1      35.631 -18.789 -23.363  0.00  0.00    +0.002 C 
ATOM     12  C   UNL     1      35.358 -19.023 -21.880  0.00  0.00    +0.000 C 
ENDBRANCH   2   7
BRANCH   4  15
ATOM     13  O   UNL     1      34.315 -12.282 -23.892  0.00  0.00    -0.275 OA
ATOM     14  N   UNL     1      32.313 -11.354 -23.076  0.00  0.00    -0.284 N 
ATOM     15  C   UNL     1      33.130 -12.355 -23.586  0.00  0.00    +0.228 C 
ATOM     16  H   UNL     1      31.380 -11.606 -22.887  0.00  0.00    +0.155 HD
BRANCH  14  19
ATOM     17 CL   UNL     1      34.678  -7.074 -24.585  0.00  0.00    -0.082 Cl
ATOM     18 CL   UNL     1      32.121  -7.391 -19.844  0.00  0.00    -0.082 Cl
ATOM     19  C   UNL     1      32.667 -10.013 -22.795  0.00  0.00    +0.052 C 
ATOM     20  C   UNL     1      32.263  -9.442 -21.599  0.00  0.00    +0.026 C 
ATOM     21  C   UNL     1      33.410  -9.300 -23.722  0.00  0.00    +0.026 C 
ATOM     22  C   UNL     1      33.759  -7.978 -23.445  0.00  0.00    +0.060 C 
ATOM     23  C   UNL     1      32.612  -8.119 -21.323  0.00  0.00    +0.060 C 
ATOM     24  C   UNL     1      33.360  -7.388 -22.246  0.00  0.00    +0.023 C 
ENDBRANCH  14  19
ENDBRANCH   4  15
TORSDOF 3
ENDMDL
MODEL 9
REMARK VINA RESULT:      -9.0      6.399      9.371
REMARK  Name = 1283969
REMARK  3 active torsions:
REMARK  status: ('A' for Active; 'I' for Inactive)
REMARK    1  A    between atoms: N_2  and  C_7
REMARK    2  A    between atoms: C_4  and  C_15
REMARK    3  A    between atoms: N_14  and  C_19
REMARK                            x       y       z     vdW  Elec       q    Type
REMARK                         _______ _______ _______ _____ _____    ______ ____
ROOT
ATOM      1  O   UNL     1      33.779 -18.726 -25.003  0.00  0.00    -0.275 OA
ATOM      2  N   UNL     1      34.645 -17.172 -23.467  0.00  0.00    -0.281 N 
ATOM      3  C   UNL     1      35.746 -17.105 -22.534  0.00  0.00    +0.103 C 
ATOM      4  C   UNL     1      36.128 -18.559 -22.318  0.00  0.00    +0.106 C 
ATOM      5  C   UNL     1      35.662 -19.276 -23.584  0.00  0.00    +0.096 C 
ATOM      6  C   UNL     1      34.560 -18.395 -24.123  0.00  0.00    +0.226 C 
ENDROOT
BRANCH   2   7
ATOM      7  C   UNL     1      33.830 -16.016 -23.752  0.00  0.00    +0.075 C 
ATOM      8  C   UNL     1      34.272 -14.820 -22.903  0.00  0.00    +0.020 C 
ATOM      9  C   UNL     1      33.872 -15.685 -25.245  0.00  0.00    +0.020 C 
ATOM     10  C   UNL     1      33.457 -13.570 -23.227  0.00  0.00    +0.002 C 
ATOM     11  C   UNL     1      33.060 -14.433 -25.567  0.00  0.00    +0.002 C 
ATOM     12  C   UNL     1      33.499 -13.243 -24.718  0.00  0.00    +0.000 C 
ENDBRANCH   2   7
BRANCH   4  15
ATOM     13  O   UNL     1      34.427 -18.645 -20.661  0.00  0.00    -0.275 OA
ATOM     14  N   UNL     1      36.174 -20.220 -20.606  0.00  0.00    -0.284 N 
ATOM     15  C   UNL     1      35.462 -19.133 -21.100  0.00  0.00    +0.228 C 
ATOM     16  H   UNL     1      36.992 -20.464 -21.097  0.00  0.00    +0.155 HD
BRANCH  14  19
ATOM     17 CL   UNL     1      32.666 -22.897 -18.017  0.00  0.00    -0.082 Cl
ATOM     18 CL   UNL     1      37.750 -22.431 -16.269  0.00  0.00    -0.082 Cl
ATOM     19  C   UNL     1      35.860 -21.014 -19.479  0.00  0.00    +0.052 C 
ATOM     20  C   UNL     1      36.848 -21.291 -18.548  0.00  0.00    +0.026 C 
ATOM     21  C   UNL     1      34.570 -21.498 -19.330  0.00  0.00    +0.026 C 
ATOM     22  C   UNL     1      34.260 -22.283 -18.218  0.00  0.00    +0.060 C 
ATOM     23  C   UNL     1      36.537 -22.076 -17.437  0.00  0.00    +0.060 C 
ATOM     24  C   UNL     1      35.244 -22.571 -17.272  0.00  0.00    +0.023 C 
ENDBRANCH  14  19
ENDBRANCH   4  15
TORSDOF 3
ENDMDL
