MODEL 1
REMARK VINA RESULT:      -9.3      0.000      0.000
REMARK  Name = 2911
REMARK  6 active torsions:
REMARK  status: ('A' for Active; 'I' for Inactive)
REMARK    1  A    between atoms: C_1  and  C_2
REMARK    2  A    between atoms: C_1  and  C_8
REMARK    3  A    between atoms: C_1  and  O_13
REMARK    4  A    between atoms: C_1  and  C_15
REMARK    5  A    between atoms: C_15  and  C_16
REMARK    6  A    between atoms: C_16  and  N_17
REMARK                            x       y       z     vdW  Elec       q    Type
REMARK                         _______ _______ _______ _____ _____    ______ ____
ROOT
ATOM      1  C   UNL     1      35.270 -18.149 -21.802  0.00  0.00    +0.105 C 
ENDROOT
BRANCH   1   2
ATOM      2  C   UNL     1      35.044 -19.398 -20.954  0.00  0.00    +0.002 C 
ATOM      3  C   UNL     1      33.752 -19.808 -20.711  0.00  0.00    -0.002 C 
ATOM      4  C   UNL     1      36.140 -20.071 -20.461  0.00  0.00    -0.002 C 
ATOM      5  C   UNL     1      33.545 -20.949 -19.936  0.00  0.00    -0.000 C 
ATOM      6  C   UNL     1      35.934 -21.212 -19.686  0.00  0.00    -0.000 C 
ATOM      7  C   UNL     1      34.635 -21.651 -19.424  0.00  0.00    -0.000 C 
ENDBRANCH   1   2
BRANCH   1   8
ATOM      8  C   UNL     1      34.539 -18.137 -23.133  0.00  0.00    +0.029 C 
ATOM      9  C   UNL     1      35.022 -17.039 -24.075  0.00  0.00    +0.003 C 
ATOM     10  C   UNL     1      34.774 -19.399 -23.958  0.00  0.00    +0.003 C 
ATOM     11  C   UNL     1      34.524 -17.482 -25.448  0.00  0.00    +0.000 C 
ATOM     12  C   UNL     1      34.353 -19.000 -25.369  0.00  0.00    +0.000 C 
ENDBRANCH   1   8
BRANCH   1  13
ATOM     13  O   UNL     1      36.672 -18.132 -22.134  0.00  0.00    -0.383 OA
ATOM     14  H   UNL     1      36.779 -18.237 -23.092  0.00  0.00    +0.211 HD
ENDBRANCH   1  13
BRANCH   1  15
ATOM     15  C   UNL     1      34.976 -16.852 -21.000  0.00  0.00    +0.008 C 
BRANCH  15  16
ATOM     16  C   UNL     1      33.504 -16.433 -20.968  0.00  0.00    -0.075 C 
BRANCH  16  17
ATOM     17  N   UNL     1      33.385 -15.002 -21.243  0.00  0.00    +0.387 N 
ATOM     18  C   UNL     1      32.435 -14.377 -20.311  0.00  0.00    -0.077 C 
ATOM     19  C   UNL     1      32.982 -14.778 -22.639  0.00  0.00    -0.077 C 
ATOM     20  C   UNL     1      32.334 -12.870 -20.553  0.00  0.00    -0.023 C 
ATOM     21  C   UNL     1      32.899 -13.285 -22.957  0.00  0.00    -0.023 C 
ATOM     22  C   UNL     1      31.958 -12.564 -21.998  0.00  0.00    -0.004 C 
ATOM     23  H   UNL     1      34.295 -14.564 -21.105  0.00  0.00    -0.080 HD
ENDBRANCH  16  17
ENDBRANCH  15  16
ENDBRANCH   1  15
TORSDOF 6
ENDMDL
MODEL 2
REMARK VINA RESULT:      -9.2      0.779      1.597
REMARK  Name = 2911
REMARK  6 active torsions:
REMARK  status: ('A' for Active; 'I' for Inactive)
REMARK    1  A    between atoms: C_1  and  C_2
REMARK    2  A    between atoms: C_1  and  C_8
REMARK    3  A    between atoms: C_1  and  O_13
REMARK    4  A    between atoms: C_1  and  C_15
REMARK    5  A    between atoms: C_15  and  C_16
REMARK    6  A    between atoms: C_16  and  N_17
REMARK                            x       y       z     vdW  Elec       q    Type
REMARK                         _______ _______ _______ _____ _____    ______ ____
ROOT
ATOM      1  C   UNL     1      34.963 -18.180 -21.524  0.00  0.00    +0.105 C 
ENDROOT
BRANCH   1   2
ATOM      2  C   UNL     1      34.489 -19.442 -20.807  0.00  0.00    +0.002 C 
ATOM      3  C   UNL     1      35.430 -20.343 -20.361  0.00  0.00    -0.002 C 
ATOM      4  C   UNL     1      33.136 -19.634 -20.631  0.00  0.00    -0.002 C 
ATOM      5  C   UNL     1      34.996 -21.496 -19.705  0.00  0.00    -0.000 C 
ATOM      6  C   UNL     1      32.702 -20.787 -19.975  0.00  0.00    -0.000 C 
ATOM      7  C   UNL     1      33.633 -21.717 -19.513  0.00  0.00    -0.000 C 
ENDBRANCH   1   2
BRANCH   1   8
ATOM      8  C   UNL     1      35.238 -18.352 -23.008  0.00  0.00    +0.029 C 
ATOM      9  C   UNL     1      34.550 -19.572 -23.610  0.00  0.00    +0.003 C 
ATOM     10  C   UNL     1      34.683 -17.213 -23.858  0.00  0.00    +0.003 C 
ATOM     11  C   UNL     1      34.564 -19.303 -25.112  0.00  0.00    +0.000 C 
ATOM     12  C   UNL     1      34.662 -17.785 -25.272  0.00  0.00    +0.000 C 
ENDBRANCH   1   8
BRANCH   1  13
ATOM     13  O   UNL     1      36.232 -17.832 -20.937  0.00  0.00    -0.383 OA
ATOM     14  H   UNL     1      36.396 -18.395 -20.164  0.00  0.00    +0.211 HD
ENDBRANCH   1  13
BRANCH   1  15
ATOM     15  C   UNL     1      34.002 -16.986 -21.276  0.00  0.00    +0.008 C 
BRANCH  15  16
ATOM     16  C   UNL     1      34.628 -15.793 -20.550  0.00  0.00    -0.075 C 
BRANCH  16  17
ATOM     17  N   UNL     1      34.097 -14.543 -21.092  0.00  0.00    +0.387 N 
ATOM     18  C   UNL     1      32.695 -14.363 -20.688  0.00  0.00    -0.077 C 
ATOM     19  C   UNL     1      34.236 -14.515 -22.554  0.00  0.00    -0.077 C 
ATOM     20  C   UNL     1      32.138 -13.035 -21.205  0.00  0.00    -0.023 C 
ATOM     21  C   UNL     1      33.730 -13.193 -23.132  0.00  0.00    -0.023 C 
ATOM     22  C   UNL     1      32.288 -12.922 -22.717  0.00  0.00    -0.004 C 
ATOM     23  H   UNL     1      34.636 -13.765 -20.710  0.00  0.00    -0.080 HD
ENDBRANCH  16  17
ENDBRANCH  15  16
ENDBRANCH   1  15
TORSDOF 6
ENDMDL
MODEL 3
REMARK VINA RESULT:      -8.8      6.907     10.393
REMARK  Name = 2911
REMARK  6 active torsions:
REMARK  status: ('A' for Active; 'I' for Inactive)
REMARK    1  A    between atoms: C_1  and  C_2
REMARK    2  A    between atoms: C_1  and  C_8
REMARK    3  A    between atoms: C_1  and  O_13
REMARK    4  A    between atoms: C_1  and  C_15
REMARK    5  A    between atoms: C_15  and  C_16
REMARK    6  A    between atoms: C_16  and  N_17
REMARK                            x       y       z     vdW  Elec       q    Type
REMARK                         _______ _______ _______ _____ _____    ______ ____
ROOT
ATOM      1  C   UNL     1      35.700 -23.783 -15.092  0.00  0.00    +0.105 C 
ENDROOT
BRANCH   1   2
ATOM      2  C   UNL     1      35.684 -23.005 -16.405  0.00  0.00    +0.002 C 
ATOM      3  C   UNL     1      34.551 -23.049 -17.187  0.00  0.00    -0.002 C 
ATOM      4  C   UNL     1      36.804 -22.286 -16.763  0.00  0.00    -0.002 C 
ATOM      5  C   UNL     1      34.536 -22.338 -18.387  0.00  0.00    -0.000 C 
ATOM      6  C   UNL     1      36.789 -21.575 -17.963  0.00  0.00    -0.000 C 
ATOM      7  C   UNL     1      35.655 -21.601 -18.775  0.00  0.00    -0.000 C 
ENDBRANCH   1   2
BRANCH   1   8
ATOM      8  C   UNL     1      37.058 -23.874 -14.417  0.00  0.00    +0.029 C 
ATOM      9  C   UNL     1      36.998 -23.648 -12.911  0.00  0.00    +0.003 C 
ATOM     10  C   UNL     1      37.685 -25.261 -14.514  0.00  0.00    +0.003 C 
ATOM     11  C   UNL     1      38.314 -24.224 -12.396  0.00  0.00    +0.000 C 
ATOM     12  C   UNL     1      38.763 -25.254 -13.434  0.00  0.00    +0.000 C 
ENDBRANCH   1   8
BRANCH   1  13
ATOM     13  O   UNL     1      35.344 -25.140 -15.420  0.00  0.00    -0.383 OA
ATOM     14  H   UNL     1      34.470 -25.343 -15.050  0.00  0.00    +0.211 HD
ENDBRANCH   1  13
BRANCH   1  15
ATOM     15  C   UNL     1      34.627 -23.256 -14.102  0.00  0.00    +0.008 C 
BRANCH  15  16
ATOM     16  C   UNL     1      33.636 -24.309 -13.603  0.00  0.00    -0.075 C 
BRANCH  16  17
ATOM     17  N   UNL     1      32.455 -24.334 -14.465  0.00  0.00    +0.387 N 
ATOM     18  C   UNL     1      31.972 -22.969 -14.714  0.00  0.00    -0.077 C 
ATOM     19  C   UNL     1      31.401 -25.170 -13.871  0.00  0.00    -0.077 C 
ATOM     20  C   UNL     1      30.765 -22.973 -15.655  0.00  0.00    -0.023 C 
ATOM     21  C   UNL     1      30.177 -25.245 -14.783  0.00  0.00    -0.023 C 
ATOM     22  C   UNL     1      29.646 -23.856 -15.117  0.00  0.00    -0.004 C 
ATOM     23  H   UNL     1      32.712 -24.745 -15.362  0.00  0.00    -0.080 HD
ENDBRANCH  16  17
ENDBRANCH  15  16
ENDBRANCH   1  15
TORSDOF 6
ENDMDL
MODEL 4
REMARK VINA RESULT:      -8.6      2.252      6.718
REMARK  Name = 2911
REMARK  6 active torsions:
REMARK  status: ('A' for Active; 'I' for Inactive)
REMARK    1  A    between atoms: C_1  and  C_2
REMARK    2  A    between atoms: C_1  and  C_8
REMARK    3  A    between atoms: C_1  and  O_13
REMARK    4  A    between atoms: C_1  and  C_15
REMARK    5  A    between atoms: C_15  and  C_16
REMARK    6  A    between atoms: C_16  and  N_17
REMARK                            x       y       z     vdW  Elec       q    Type
REMARK                         _______ _______ _______ _____ _____    ______ ____
ROOT
ATOM      1  C   UNL     1      32.816 -13.473 -22.822  0.00  0.00    +0.105 C 
ENDROOT
BRANCH   1   2
ATOM      2  C   UNL     1      32.300 -12.377 -21.892  0.00  0.00    +0.002 C 
ATOM      3  C   UNL     1      32.096 -12.678 -20.563  0.00  0.00    -0.002 C 
ATOM      4  C   UNL     1      32.057 -11.125 -22.414  0.00  0.00    -0.002 C 
ATOM      5  C   UNL     1      31.625 -11.677 -19.713  0.00  0.00    -0.000 C 
ATOM      6  C   UNL     1      31.586 -10.124 -21.564  0.00  0.00    -0.000 C 
ATOM      7  C   UNL     1      31.370 -10.401 -20.214  0.00  0.00    -0.000 C 
ENDBRANCH   1   2
BRANCH   1   8
ATOM      8  C   UNL     1      32.682 -13.170 -24.304  0.00  0.00    +0.029 C 
ATOM      9  C   UNL     1      33.799 -12.282 -24.840  0.00  0.00    +0.003 C 
ATOM     10  C   UNL     1      32.803 -14.411 -25.183  0.00  0.00    +0.003 C 
ATOM     11  C   UNL     1      33.742 -12.485 -26.351  0.00  0.00    +0.000 C 
ATOM     12  C   UNL     1      33.090 -13.851 -26.573  0.00  0.00    +0.000 C 
ENDBRANCH   1   8
BRANCH   1  13
ATOM     13  O   UNL     1      31.985 -14.627 -22.589  0.00  0.00    -0.383 OA
ATOM     14  H   UNL     1      32.074 -15.244 -23.332  0.00  0.00    +0.211 HD
ENDBRANCH   1  13
BRANCH   1  15
ATOM     15  C   UNL     1      34.272 -13.881 -22.471  0.00  0.00    +0.008 C 
BRANCH  15  16
ATOM     16  C   UNL     1      34.398 -15.054 -21.497  0.00  0.00    -0.075 C 
BRANCH  16  17
ATOM     17  N   UNL     1      34.286 -16.320 -22.219  0.00  0.00    +0.387 N 
ATOM     18  C   UNL     1      34.688 -17.440 -21.356  0.00  0.00    -0.077 C 
ATOM     19  C   UNL     1      35.089 -16.284 -23.450  0.00  0.00    -0.077 C 
ATOM     20  C   UNL     1      34.531 -18.779 -22.081  0.00  0.00    -0.023 C 
ATOM     21  C   UNL     1      34.945 -17.583 -24.242  0.00  0.00    -0.023 C 
ATOM     22  C   UNL     1      35.309 -18.795 -23.391  0.00  0.00    -0.004 C 
ATOM     23  H   UNL     1      33.311 -16.462 -22.484  0.00  0.00    -0.080 HD
ENDBRANCH  16  17
ENDBRANCH  15  16
ENDBRANCH   1  15
TORSDOF 6
ENDMDL
MODEL 5
REMARK VINA RESULT:      -8.6      2.423      7.300
REMARK  Name = 2911
REMARK  6 active torsions:
REMARK  status: ('A' for Active; 'I' for Inactive)
REMARK    1  A    between atoms: C_1  and  C_2
REMARK    2  A    between atoms: C_1  and  C_8
REMARK    3  A    between atoms: C_1  and  O_13
REMARK    4  A    between atoms: C_1  and  C_15
REMARK    5  A    between atoms: C_15  and  C_16
REMARK    6  A    between atoms: C_16  and  N_17
REMARK                            x       y       z     vdW  Elec       q    Type
REMARK                         _______ _______ _______ _____ _____    ______ ____
ROOT
ATOM      1  C   UNL     1      33.279 -13.412 -23.094  0.00  0.00    +0.105 C 
ENDROOT
BRANCH   1   2
ATOM      2  C   UNL     1      33.313 -13.403 -24.620  0.00  0.00    +0.002 C 
ATOM      3  C   UNL     1      33.753 -12.269 -25.266  0.00  0.00    -0.002 C 
ATOM      4  C   UNL     1      32.903 -14.530 -25.298  0.00  0.00    -0.002 C 
ATOM      5  C   UNL     1      33.784 -12.260 -26.660  0.00  0.00    -0.000 C 
ATOM      6  C   UNL     1      32.933 -14.522 -26.693  0.00  0.00    -0.000 C 
ATOM      7  C   UNL     1      33.374 -13.386 -27.374  0.00  0.00    -0.000 C 
ENDBRANCH   1   2
BRANCH   1   8
ATOM      8  C   UNL     1      32.139 -12.624 -22.473  0.00  0.00    +0.029 C 
ATOM      9  C   UNL     1      32.056 -12.777 -20.958  0.00  0.00    +0.003 C 
ATOM     10  C   UNL     1      32.291 -11.115 -22.640  0.00  0.00    +0.003 C 
ATOM     11  C   UNL     1      31.197 -11.597 -20.512  0.00  0.00    +0.000 C 
ATOM     12  C   UNL     1      31.339 -10.532 -21.601  0.00  0.00    +0.000 C 
ENDBRANCH   1   8
BRANCH   1  13
ATOM     13  O   UNL     1      34.484 -12.753 -22.657  0.00  0.00    -0.383 OA
ATOM     14  H   UNL     1      34.429 -11.807 -22.868  0.00  0.00    +0.211 HD
ENDBRANCH   1  13
BRANCH   1  15
ATOM     15  C   UNL     1      33.321 -14.858 -22.530  0.00  0.00    +0.008 C 
BRANCH  15  16
ATOM     16  C   UNL     1      34.568 -15.196 -21.710  0.00  0.00    -0.075 C 
BRANCH  16  17
ATOM     17  N   UNL     1      35.003 -16.562 -22.000  0.00  0.00    +0.387 N 
ATOM     18  C   UNL     1      34.884 -16.845 -23.437  0.00  0.00    -0.077 C 
ATOM     19  C   UNL     1      34.232 -17.527 -21.204  0.00  0.00    -0.077 C 
ATOM     20  C   UNL     1      35.380 -18.254 -23.766  0.00  0.00    -0.023 C 
ATOM     21  C   UNL     1      34.707 -18.958 -21.459  0.00  0.00    -0.023 C 
ATOM     22  C   UNL     1      34.648 -19.307 -22.942  0.00  0.00    -0.004 C 
ATOM     23  H   UNL     1      35.985 -16.656 -21.742  0.00  0.00    -0.080 HD
ENDBRANCH  16  17
ENDBRANCH  15  16
ENDBRANCH   1  15
TORSDOF 6
ENDMDL
MODEL 6
REMARK VINA RESULT:      -8.5      7.117     10.972
REMARK  Name = 2911
REMARK  6 active torsions:
REMARK  status: ('A' for Active; 'I' for Inactive)
REMARK    1  A    between atoms: C_1  and  C_2
REMARK    2  A    between atoms: C_1  and  C_8
REMARK    3  A    between atoms: C_1  and  O_13
REMARK    4  A    between atoms: C_1  and  C_15
REMARK    5  A    between atoms: C_15  and  C_16
REMARK    6  A    between atoms: C_16  and  N_17
REMARK                            x       y       z     vdW  Elec       q    Type
REMARK                         _______ _______ _______ _____ _____    ______ ____
ROOT
ATOM      1  C   UNL     1      33.416 -23.581 -15.404  0.00  0.00    +0.105 C 
ENDROOT
BRANCH   1   2
ATOM      2  C   UNL     1      34.061 -23.038 -16.676  0.00  0.00    +0.002 C 
ATOM      3  C   UNL     1      33.317 -23.008 -17.835  0.00  0.00    -0.002 C 
ATOM      4  C   UNL     1      35.365 -22.595 -16.621  0.00  0.00    -0.002 C 
ATOM      5  C   UNL     1      33.907 -22.511 -18.998  0.00  0.00    -0.000 C 
ATOM      6  C   UNL     1      35.954 -22.098 -17.783  0.00  0.00    -0.000 C 
ATOM      7  C   UNL     1      35.224 -22.056 -18.972  0.00  0.00    -0.000 C 
ENDBRANCH   1   2
BRANCH   1   8
ATOM      8  C   UNL     1      31.942 -23.925 -15.530  0.00  0.00    +0.029 C 
ATOM      9  C   UNL     1      31.485 -24.988 -14.536  0.00  0.00    +0.003 C 
ATOM     10  C   UNL     1      31.022 -22.754 -15.199  0.00  0.00    +0.003 C 
ATOM     11  C   UNL     1      29.966 -24.844 -14.511  0.00  0.00    +0.000 C 
ATOM     12  C   UNL     1      29.667 -23.410 -14.949  0.00  0.00    +0.000 C 
ENDBRANCH   1   8
BRANCH   1  13
ATOM     13  O   UNL     1      33.481 -22.521 -14.431  0.00  0.00    -0.383 OA
ATOM     14  H   UNL     1      34.298 -22.604 -13.916  0.00  0.00    +0.211 HD
ENDBRANCH   1  13
BRANCH   1  15
ATOM     15  C   UNL     1      34.214 -24.781 -14.826  0.00  0.00    +0.008 C 
BRANCH  15  16
ATOM     16  C   UNL     1      34.914 -24.508 -13.492  0.00  0.00    -0.075 C 
BRANCH  16  17
ATOM     17  N   UNL     1      36.184 -25.230 -13.436  0.00  0.00    +0.387 N 
ATOM     18  C   UNL     1      37.257 -24.344 -12.962  0.00  0.00    -0.077 C 
ATOM     19  C   UNL     1      36.511 -25.801 -14.751  0.00  0.00    -0.077 C 
ATOM     20  C   UNL     1      38.585 -25.096 -12.850  0.00  0.00    -0.023 C 
ATOM     21  C   UNL     1      37.813 -26.600 -14.698  0.00  0.00    -0.023 C 
ATOM     22  C   UNL     1      38.965 -25.750 -14.173  0.00  0.00    -0.004 C 
ATOM     23  H   UNL     1      36.096 -26.000 -12.773  0.00  0.00    -0.080 HD
ENDBRANCH  16  17
ENDBRANCH  15  16
ENDBRANCH   1  15
TORSDOF 6
ENDMDL
MODEL 7
REMARK VINA RESULT:      -8.5      5.668     10.599
REMARK  Name = 2911
REMARK  6 active torsions:
REMARK  status: ('A' for Active; 'I' for Inactive)
REMARK    1  A    between atoms: C_1  and  C_2
REMARK    2  A    between atoms: C_1  and  C_8
REMARK    3  A    between atoms: C_1  and  O_13
REMARK    4  A    between atoms: C_1  and  C_15
REMARK    5  A    between atoms: C_15  and  C_16
REMARK    6  A    between atoms: C_16  and  N_17
REMARK                            x       y       z     vdW  Elec       q    Type
REMARK                         _______ _______ _______ _____ _____    ______ ____
ROOT
ATOM      1  C   UNL     1      32.855  -8.661 -23.002  0.00  0.00    +0.105 C 
ENDROOT
BRANCH   1   2
ATOM      2  C   UNL     1      32.530  -7.378 -23.763  0.00  0.00    +0.002 C 
ATOM      3  C   UNL     1      33.529  -6.769 -24.490  0.00  0.00    -0.002 C 
ATOM      4  C   UNL     1      31.249  -6.874 -23.697  0.00  0.00    -0.002 C 
ATOM      5  C   UNL     1      33.233  -5.597 -25.186  0.00  0.00    -0.000 C 
ATOM      6  C   UNL     1      30.953  -5.702 -24.393  0.00  0.00    -0.000 C 
ATOM      7  C   UNL     1      31.945  -5.064 -25.138  0.00  0.00    -0.000 C 
ENDBRANCH   1   2
BRANCH   1   8
ATOM      8  C   UNL     1      31.949  -8.949 -21.817  0.00  0.00    +0.029 C 
ATOM      9  C   UNL     1      31.654 -10.434 -21.633  0.00  0.00    +0.003 C 
ATOM     10  C   UNL     1      32.573  -8.573 -20.477  0.00  0.00    +0.003 C 
ATOM     11  C   UNL     1      31.153 -10.537 -20.195  0.00  0.00    +0.000 C 
ATOM     12  C   UNL     1      31.735  -9.332 -19.454  0.00  0.00    +0.000 C 
ENDBRANCH   1   8
BRANCH   1  13
ATOM     13  O   UNL     1      34.170  -8.479 -22.443  0.00  0.00    -0.383 OA
ATOM     14  H   UNL     1      34.094  -8.240 -21.506  0.00  0.00    +0.211 HD
ENDBRANCH   1  13
BRANCH   1  15
ATOM     15  C   UNL     1      32.928  -9.886 -23.951  0.00  0.00    +0.008 C 
BRANCH  15  16
ATOM     16  C   UNL     1      34.338 -10.424 -24.206  0.00  0.00    -0.075 C 
BRANCH  16  17
ATOM     17  N   UNL     1      34.269 -11.802 -24.691  0.00  0.00    +0.387 N 
ATOM     18  C   UNL     1      33.600 -11.852 -25.999  0.00  0.00    -0.077 C 
ATOM     19  C   UNL     1      33.585 -12.659 -23.713  0.00  0.00    -0.077 C 
ATOM     20  C   UNL     1      33.563 -13.281 -26.546  0.00  0.00    -0.023 C 
ATOM     21  C   UNL     1      33.547 -14.113 -24.184  0.00  0.00    -0.023 C 
ATOM     22  C   UNL     1      32.900 -14.234 -25.559  0.00  0.00    -0.004 C 
ATOM     23  H   UNL     1      35.218 -12.156 -24.810  0.00  0.00    -0.080 HD
ENDBRANCH  16  17
ENDBRANCH  15  16
ENDBRANCH   1  15
TORSDOF 6
ENDMDL
MODEL 8
REMARK VINA RESULT:      -8.5      7.052     10.482
REMARK  Name = 2911
REMARK  6 active torsions:
REMARK  status: ('A' for Active; 'I' for Inactive)
REMARK    1  A    between atoms: C_1  and  C_2
REMARK    2  A    between atoms: C_1  and  C_8
REMARK    3  A    between atoms: C_1  and  O_13
REMARK    4  A    between atoms: C_1  and  C_15
REMARK    5  A    between atoms: C_15  and  C_16
REMARK    6  A    between atoms: C_16  and  N_17
REMARK                            x       y       z     vdW  Elec       q    Type
REMARK                         _______ _______ _______ _____ _____    ______ ____
ROOT
ATOM      1  C   UNL     1      35.102 -23.739 -14.936  0.00  0.00    +0.105 C 
ENDROOT
BRANCH   1   2
ATOM      2  C   UNL     1      35.304 -23.033 -16.275  0.00  0.00    +0.002 C 
ATOM      3  C   UNL     1      36.507 -22.408 -16.518  0.00  0.00    -0.002 C 
ATOM      4  C   UNL     1      34.277 -23.048 -17.193  0.00  0.00    -0.002 C 
ATOM      5  C   UNL     1      36.692 -21.763 -17.741  0.00  0.00    -0.000 C 
ATOM      6  C   UNL     1      34.462 -22.403 -18.416  0.00  0.00    -0.000 C 
ATOM      7  C   UNL     1      35.670 -21.761 -18.690  0.00  0.00    -0.000 C 
ENDBRANCH   1   2
BRANCH   1   8
ATOM      8  C   UNL     1      36.198 -23.498 -13.913  0.00  0.00    +0.029 C 
ATOM      9  C   UNL     1      35.688 -23.489 -12.476  0.00  0.00    +0.003 C 
ATOM     10  C   UNL     1      37.243 -24.610 -13.880  0.00  0.00    +0.003 C 
ATOM     11  C   UNL     1      36.944 -23.700 -11.635  0.00  0.00    +0.000 C 
ATOM     12  C   UNL     1      37.949 -24.411 -12.543  0.00  0.00    +0.000 C 
ENDBRANCH   1   8
BRANCH   1  13
ATOM     13  O   UNL     1      35.138 -25.152 -15.212  0.00  0.00    -0.383 OA
ATOM     14  H   UNL     1      35.744 -25.322 -15.951  0.00  0.00    +0.211 HD
ENDBRANCH   1  13
BRANCH   1  15
ATOM     15  C   UNL     1      33.706 -23.428 -14.331  0.00  0.00    +0.008 C 
BRANCH  15  16
ATOM     16  C   UNL     1      32.787 -24.641 -14.170  0.00  0.00    -0.075 C 
BRANCH  16  17
ATOM     17  N   UNL     1      31.388 -24.229 -14.288  0.00  0.00    +0.387 N 
ATOM     18  C   UNL     1      30.545 -25.377 -14.651  0.00  0.00    -0.077 C 
ATOM     19  C   UNL     1      31.253 -23.141 -15.267  0.00  0.00    -0.077 C 
ATOM     20  C   UNL     1      29.071 -24.975 -14.732  0.00  0.00    -0.023 C 
ATOM     21  C   UNL     1      29.803 -22.667 -15.368  0.00  0.00    -0.023 C 
ATOM     22  C   UNL     1      28.863 -23.819 -15.703  0.00  0.00    -0.004 C 
ATOM     23  H   UNL     1      31.072 -23.880 -13.384  0.00  0.00    -0.080 HD
ENDBRANCH  16  17
ENDBRANCH  15  16
ENDBRANCH   1  15
TORSDOF 6
ENDMDL
MODEL 9
REMARK VINA RESULT:      -8.5      7.139      9.876
REMARK  Name = 2911
REMARK  6 active torsions:
REMARK  status: ('A' for Active; 'I' for Inactive)
REMARK    1  A    between atoms: C_1  and  C_2
REMARK    2  A    between atoms: C_1  and  C_8
REMARK    3  A    between atoms: C_1  and  O_13
REMARK    4  A    between atoms: C_1  and  C_15
REMARK    5  A    between atoms: C_15  and  C_16
REMARK    6  A    between atoms: C_16  and  N_17
REMARK                            x       y       z     vdW  Elec       q    Type
REMARK                         _______ _______ _______ _____ _____    ______ ____
ROOT
ATOM      1  C   UNL     1      34.756 -23.742 -15.194  0.00  0.00    +0.105 C 
ENDROOT
BRANCH   1   2
ATOM      2  C   UNL     1      35.935 -24.489 -14.577  0.00  0.00    +0.002 C 
ATOM      3  C   UNL     1      36.219 -25.761 -15.022  0.00  0.00    -0.002 C 
ATOM      4  C   UNL     1      36.675 -23.864 -13.597  0.00  0.00    -0.002 C 
ATOM      5  C   UNL     1      37.297 -26.444 -14.458  0.00  0.00    -0.000 C 
ATOM      6  C   UNL     1      37.753 -24.546 -13.033  0.00  0.00    -0.000 C 
ATOM      7  C   UNL     1      38.064 -25.837 -13.464  0.00  0.00    -0.000 C 
ENDBRANCH   1   2
BRANCH   1   8
ATOM      8  C   UNL     1      34.852 -23.520 -16.694  0.00  0.00    +0.029 C 
ATOM      9  C   UNL     1      33.528 -23.104 -17.326  0.00  0.00    +0.003 C 
ATOM     10  C   UNL     1      35.771 -22.363 -17.072  0.00  0.00    +0.003 C 
ATOM     11  C   UNL     1      33.931 -22.503 -18.670  0.00  0.00    +0.000 C 
ATOM     12  C   UNL     1      35.379 -22.037 -18.510  0.00  0.00    +0.000 C 
ENDBRANCH   1   8
BRANCH   1  13
ATOM     13  O   UNL     1      34.760 -22.424 -14.611  0.00  0.00    -0.383 OA
ATOM     14  H   UNL     1      34.715 -22.498 -13.645  0.00  0.00    +0.211 HD
ENDBRANCH   1  13
BRANCH   1  15
ATOM     15  C   UNL     1      33.402 -24.403 -14.820  0.00  0.00    +0.008 C 
BRANCH  15  16
ATOM     16  C   UNL     1      32.624 -23.697 -13.707  0.00  0.00    -0.075 C 
BRANCH  16  17
ATOM     17  N   UNL     1      31.190 -23.739 -13.993  0.00  0.00    +0.387 N 
ATOM     18  C   UNL     1      30.799 -25.078 -14.457  0.00  0.00    -0.077 C 
ATOM     19  C   UNL     1      30.831 -22.710 -14.979  0.00  0.00    -0.077 C 
ATOM     20  C   UNL     1      29.293 -25.155 -14.714  0.00  0.00    -0.023 C 
ATOM     21  C   UNL     1      29.327 -22.710 -15.254  0.00  0.00    -0.023 C 
ATOM     22  C   UNL     1      28.844 -24.085 -15.702  0.00  0.00    -0.004 C 
ATOM     23  H   UNL     1      30.678 -23.542 -13.134  0.00  0.00    -0.080 HD
ENDBRANCH  16  17
ENDBRANCH  15  16
ENDBRANCH   1  15
TORSDOF 6
ENDMDL
