MODEL 1
REMARK VINA RESULT:     -10.6      0.000      0.000
REMARK  Name = 15942651
REMARK  7 active torsions:
REMARK  status: ('A' for Active; 'I' for Inactive)
REMARK    1  A    between atoms: N_1  and  S_17
REMARK    2  A    between atoms: C_2  and  C_13
REMARK    3  A    between atoms: C_9  and  O_28
REMARK    4  A    between atoms: C_10  and  O_30
REMARK    5  A    between atoms: N_12  and  O_15
REMARK    6  A    between atoms: S_17  and  C_20
REMARK    7  A    between atoms: C_25  and  O_26
REMARK                            x       y       z     vdW  Elec       q    Type
REMARK                         _______ _______ _______ _____ _____    ______ ____
ROOT
ATOM      1  N   UNL     1      34.253 -16.966 -22.724  0.00  0.00    -0.144 NA
ATOM      2  C   UNL     1      34.613 -15.750 -23.528  0.00  0.00    +0.179 C 
ATOM      3  C   UNL     1      33.841 -16.640 -21.329  0.00  0.00    +0.101 C 
ATOM      4  C   UNL     1      32.619 -15.731 -21.368  0.00  0.00    +0.045 C 
ATOM      5  C   UNL     1      33.855 -14.486 -23.179  0.00  0.00    +0.002 C 
ATOM      6  C   UNL     1      32.906 -14.475 -22.142  0.00  0.00    -0.020 C 
ATOM      7  C   UNL     1      34.110 -13.300 -23.885  0.00  0.00    +0.037 C 
ATOM      8  C   UNL     1      32.200 -13.297 -21.858  0.00  0.00    +0.035 C 
ATOM      9  C   UNL     1      33.414 -12.129 -23.584  0.00  0.00    +0.172 C 
ATOM     10  C   UNL     1      32.456 -12.130 -22.574  0.00  0.00    +0.167 C 
ENDROOT
BRANCH   2  13
ATOM     11  O   UNL     1      35.195 -16.649 -25.655  0.00  0.00    -0.271 OA
ATOM     12  N   UNL     1      33.028 -15.923 -25.313  0.00  0.00    -0.196 N 
ATOM     13  C   UNL     1      34.326 -16.154 -24.941  0.00  0.00    +0.265 C 
ATOM     14  H   UNL     1      32.370 -15.523 -24.699  0.00  0.00    +0.182 HD
BRANCH  12  15
ATOM     15  O   UNL     1      32.694 -16.292 -26.623  0.00  0.00    -0.295 OA
ATOM     16  H   UNL     1      33.231 -15.782 -27.251  0.00  0.00    +0.241 HD
ENDBRANCH  12  15
ENDBRANCH   2  13
BRANCH   1  17
ATOM     17  S   UNL     1      35.318 -18.310 -22.859  0.00  0.00    +0.064 S 
ATOM     18  O   UNL     1      36.629 -17.911 -22.404  0.00  0.00    -0.153 OA
ATOM     19  O   UNL     1      35.126 -18.922 -24.153  0.00  0.00    -0.153 OA
BRANCH  17  20
ATOM     20  C   UNL     1      34.616 -19.372 -21.639  0.00  0.00    +0.122 C 
ATOM     21  C   UNL     1      35.454 -20.093 -20.802  0.00  0.00    +0.023 C 
ATOM     22  C   UNL     1      33.237 -19.472 -21.535  0.00  0.00    +0.023 C 
ATOM     23  C   UNL     1      34.899 -20.933 -19.837  0.00  0.00    +0.038 C 
ATOM     24  C   UNL     1      32.682 -20.312 -20.570  0.00  0.00    +0.038 C 
ATOM     25  C   UNL     1      33.513 -21.043 -19.721  0.00  0.00    +0.139 C 
BRANCH  25  26
ATOM     26  O   UNL     1      32.972 -21.863 -18.780  0.00  0.00    -0.471 OA
ATOM     27  C   UNL     1      33.843 -22.810 -18.165  0.00  0.00    +0.252 C 
ENDBRANCH  25  26
ENDBRANCH  17  20
ENDBRANCH   1  17
BRANCH   9  28
ATOM     28  O   UNL     1      33.678 -10.993 -24.289  0.00  0.00    -0.468 OA
ATOM     29  C   UNL     1      34.498 -11.127 -25.448  0.00  0.00    +0.253 C 
ENDBRANCH   9  28
BRANCH  10  30
ATOM     30  O   UNL     1      31.763 -10.996 -22.276  0.00  0.00    -0.503 OA
ATOM     31  H   UNL     1      32.153 -10.157 -22.419  0.00  0.00    +0.292 HD
ENDBRANCH  10  30
TORSDOF 7
ENDMDL
MODEL 2
REMARK VINA RESULT:      -9.4      1.618      1.988
REMARK  Name = 15942651
REMARK  7 active torsions:
REMARK  status: ('A' for Active; 'I' for Inactive)
REMARK    1  A    between atoms: N_1  and  S_17
REMARK    2  A    between atoms: C_2  and  C_13
REMARK    3  A    between atoms: C_9  and  O_28
REMARK    4  A    between atoms: C_10  and  O_30
REMARK    5  A    between atoms: N_12  and  O_15
REMARK    6  A    between atoms: S_17  and  C_20
REMARK    7  A    between atoms: C_25  and  O_26
REMARK                            x       y       z     vdW  Elec       q    Type
REMARK                         _______ _______ _______ _____ _____    ______ ____
ROOT
ATOM      1  N   UNL     1      33.733 -15.810 -23.042  0.00  0.00    -0.144 NA
ATOM      2  C   UNL     1      33.792 -14.400 -23.555  0.00  0.00    +0.179 C 
ATOM      3  C   UNL     1      33.673 -15.886 -21.555  0.00  0.00    +0.101 C 
ATOM      4  C   UNL     1      32.425 -15.162 -21.068  0.00  0.00    +0.045 C 
ATOM      5  C   UNL     1      33.067 -13.367 -22.718  0.00  0.00    +0.002 C 
ATOM      6  C   UNL     1      32.419 -13.730 -21.525  0.00  0.00    -0.020 C 
ATOM      7  C   UNL     1      33.052 -12.023 -23.123  0.00  0.00    +0.037 C 
ATOM      8  C   UNL     1      31.733 -12.758 -20.783  0.00  0.00    +0.035 C 
ATOM      9  C   UNL     1      32.381 -11.061 -22.369  0.00  0.00    +0.172 C 
ATOM     10  C   UNL     1      31.717 -11.429 -21.202  0.00  0.00    +0.167 C 
ENDROOT
BRANCH   2  13
ATOM     11  O   UNL     1      31.988 -14.242 -25.103  0.00  0.00    -0.271 OA
ATOM     12  N   UNL     1      34.077 -14.843 -25.891  0.00  0.00    -0.196 N 
ATOM     13  C   UNL     1      33.179 -14.486 -24.919  0.00  0.00    +0.265 C 
ATOM     14  H   UNL     1      35.022 -15.028 -25.688  0.00  0.00    +0.182 HD
BRANCH  12  15
ATOM     15  O   UNL     1      33.564 -14.929 -27.192  0.00  0.00    -0.295 OA
ATOM     16  H   UNL     1      33.592 -14.053 -27.609  0.00  0.00    +0.241 HD
ENDBRANCH  12  15
ENDBRANCH   2  13
BRANCH   1  17
ATOM     17  S   UNL     1      34.815 -16.931 -23.772  0.00  0.00    +0.064 S 
ATOM     18  O   UNL     1      36.109 -16.305 -23.910  0.00  0.00    -0.153 OA
ATOM     19  O   UNL     1      34.152 -17.543 -24.900  0.00  0.00    -0.153 OA
BRANCH  17  20
ATOM     20  C   UNL     1      34.922 -18.128 -22.482  0.00  0.00    +0.122 C 
ATOM     21  C   UNL     1      36.133 -18.326 -21.837  0.00  0.00    +0.023 C 
ATOM     22  C   UNL     1      33.794 -18.853 -22.131  0.00  0.00    +0.023 C 
ATOM     23  C   UNL     1      36.217 -19.272 -20.816  0.00  0.00    +0.038 C 
ATOM     24  C   UNL     1      33.879 -19.800 -21.111  0.00  0.00    +0.038 C 
ATOM     25  C   UNL     1      35.090 -20.010 -20.453  0.00  0.00    +0.139 C 
BRANCH  25  26
ATOM     26  O   UNL     1      35.173 -20.933 -19.457  0.00  0.00    -0.471 OA
ATOM     27  C   UNL     1      36.479 -21.365 -19.079  0.00  0.00    +0.252 C 
ENDBRANCH  25  26
ENDBRANCH  17  20
ENDBRANCH   1  17
BRANCH   9  28
ATOM     28  O   UNL     1      32.378  -9.764 -22.788  0.00  0.00    -0.468 OA
ATOM     29  C   UNL     1      33.502  -9.328 -23.551  0.00  0.00    +0.253 C 
ENDBRANCH   9  28
BRANCH  10  30
ATOM     30  O   UNL     1      31.050 -10.501 -20.462  0.00  0.00    -0.503 OA
ATOM     31  H   UNL     1      31.264 -10.379 -19.559  0.00  0.00    +0.292 HD
ENDBRANCH  10  30
TORSDOF 7
ENDMDL
MODEL 3
REMARK VINA RESULT:      -9.3      1.906      2.772
REMARK  Name = 15942651
REMARK  7 active torsions:
REMARK  status: ('A' for Active; 'I' for Inactive)
REMARK    1  A    between atoms: N_1  and  S_17
REMARK    2  A    between atoms: C_2  and  C_13
REMARK    3  A    between atoms: C_9  and  O_28
REMARK    4  A    between atoms: C_10  and  O_30
REMARK    5  A    between atoms: N_12  and  O_15
REMARK    6  A    between atoms: S_17  and  C_20
REMARK    7  A    between atoms: C_25  and  O_26
REMARK                            x       y       z     vdW  Elec       q    Type
REMARK                         _______ _______ _______ _____ _____    ______ ____
ROOT
ATOM      1  N   UNL     1      33.473 -15.198 -24.435  0.00  0.00    -0.144 NA
ATOM      2  C   UNL     1      33.870 -13.830 -24.908  0.00  0.00    +0.179 C 
ATOM      3  C   UNL     1      33.336 -15.284 -22.953  0.00  0.00    +0.101 C 
ATOM      4  C   UNL     1      32.265 -14.304 -22.493  0.00  0.00    +0.045 C 
ATOM      5  C   UNL     1      33.364 -12.674 -24.072  0.00  0.00    +0.002 C 
ATOM      6  C   UNL     1      32.602 -12.900 -22.912  0.00  0.00    -0.020 C 
ATOM      7  C   UNL     1      33.671 -11.355 -24.441  0.00  0.00    +0.037 C 
ATOM      8  C   UNL     1      32.124 -11.811 -22.170  0.00  0.00    +0.035 C 
ATOM      9  C   UNL     1      33.204 -10.278 -23.687  0.00  0.00    +0.172 C 
ATOM     10  C   UNL     1      32.427 -10.506 -22.555  0.00  0.00    +0.167 C 
ENDROOT
BRANCH   2  13
ATOM     11  O   UNL     1      34.037 -13.588 -27.272  0.00  0.00    -0.271 OA
ATOM     12  N   UNL     1      31.947 -13.889 -26.333  0.00  0.00    -0.196 N 
ATOM     13  C   UNL     1      33.310 -13.751 -26.295  0.00  0.00    +0.265 C 
ATOM     14  H   UNL     1      31.411 -14.018 -25.517  0.00  0.00    +0.182 HD
BRANCH  12  15
ATOM     15  O   UNL     1      31.364 -13.836 -27.606  0.00  0.00    -0.295 OA
ATOM     16  H   UNL     1      31.921 -13.302 -28.196  0.00  0.00    +0.241 HD
ENDBRANCH  12  15
ENDBRANCH   2  13
BRANCH   1  17
ATOM     17  S   UNL     1      34.301 -16.523 -25.154  0.00  0.00    +0.064 S 
ATOM     18  O   UNL     1      35.525 -16.038 -25.748  0.00  0.00    -0.153 OA
ATOM     19  O   UNL     1      33.352 -17.301 -25.917  0.00  0.00    -0.153 OA
BRANCH  17  20
ATOM     20  C   UNL     1      34.722 -17.436 -23.706  0.00  0.00    +0.122 C 
ATOM     21  C   UNL     1      35.399 -16.802 -22.676  0.00  0.00    +0.023 C 
ATOM     22  C   UNL     1      34.370 -18.774 -23.618  0.00  0.00    +0.023 C 
ATOM     23  C   UNL     1      35.731 -17.524 -21.530  0.00  0.00    +0.038 C 
ATOM     24  C   UNL     1      34.703 -19.496 -22.472  0.00  0.00    +0.038 C 
ATOM     25  C   UNL     1      35.384 -18.871 -21.428  0.00  0.00    +0.139 C 
BRANCH  25  26
ATOM     26  O   UNL     1      35.708 -19.575 -20.309  0.00  0.00    -0.471 OA
ATOM     27  C   UNL     1      35.103 -20.857 -20.150  0.00  0.00    +0.252 C 
ENDBRANCH  25  26
ENDBRANCH  17  20
ENDBRANCH   1  17
BRANCH   9  28
ATOM     28  O   UNL     1      33.512  -9.008 -24.072  0.00  0.00    -0.468 OA
ATOM     29  C   UNL     1      34.885  -8.626 -24.004  0.00  0.00    +0.253 C 
ENDBRANCH   9  28
BRANCH  10  30
ATOM     30  O   UNL     1      31.957  -9.464 -21.816  0.00  0.00    -0.503 OA
ATOM     31  H   UNL     1      31.076  -9.167 -21.930  0.00  0.00    +0.292 HD
ENDBRANCH  10  30
TORSDOF 7
ENDMDL
MODEL 4
REMARK VINA RESULT:      -9.3      8.861     11.312
REMARK  Name = 15942651
REMARK  7 active torsions:
REMARK  status: ('A' for Active; 'I' for Inactive)
REMARK    1  A    between atoms: N_1  and  S_17
REMARK    2  A    between atoms: C_2  and  C_13
REMARK    3  A    between atoms: C_9  and  O_28
REMARK    4  A    between atoms: C_10  and  O_30
REMARK    5  A    between atoms: N_12  and  O_15
REMARK    6  A    between atoms: S_17  and  C_20
REMARK    7  A    between atoms: C_25  and  O_26
REMARK                            x       y       z     vdW  Elec       q    Type
REMARK                         _______ _______ _______ _____ _____    ______ ____
ROOT
ATOM      1  N   UNL     1      34.186 -23.631 -15.531  0.00  0.00    -0.144 NA
ATOM      2  C   UNL     1      32.938 -23.093 -16.170  0.00  0.00    +0.179 C 
ATOM      3  C   UNL     1      33.979 -24.057 -14.118  0.00  0.00    +0.101 C 
ATOM      4  C   UNL     1      32.925 -25.155 -14.076  0.00  0.00    +0.045 C 
ATOM      5  C   UNL     1      31.639 -23.704 -15.688  0.00  0.00    +0.002 C 
ATOM      6  C   UNL     1      31.632 -24.685 -14.682  0.00  0.00    -0.020 C 
ATOM      7  C   UNL     1      30.419 -23.277 -16.236  0.00  0.00    +0.037 C 
ATOM      8  C   UNL     1      30.417 -25.254 -14.273  0.00  0.00    +0.035 C 
ATOM      9  C   UNL     1      29.214 -23.837 -15.811  0.00  0.00    +0.172 C 
ATOM     10  C   UNL     1      29.214 -24.828 -14.833  0.00  0.00    +0.167 C 
ENDROOT
BRANCH   2  13
ATOM     11  O   UNL     1      33.452 -24.485 -18.033  0.00  0.00    -0.271 OA
ATOM     12  N   UNL     1      32.904 -22.273 -18.419  0.00  0.00    -0.196 N 
ATOM     13  C   UNL     1      33.131 -23.370 -17.630  0.00  0.00    +0.265 C 
ATOM     14  H   UNL     1      32.648 -21.400 -18.043  0.00  0.00    +0.182 HD
BRANCH  12  15
ATOM     15  O   UNL     1      33.057 -22.473 -19.798  0.00  0.00    -0.295 OA
ATOM     16  H   UNL     1      32.185 -22.584 -20.208  0.00  0.00    +0.241 HD
ENDBRANCH  12  15
ENDBRANCH   2  13
BRANCH   1  17
ATOM     17  S   UNL     1      35.628 -22.734 -15.804  0.00  0.00    +0.064 S 
ATOM     18  O   UNL     1      35.728 -21.700 -14.800  0.00  0.00    -0.153 OA
ATOM     19  O   UNL     1      35.720 -22.425 -17.212  0.00  0.00    -0.153 OA
BRANCH  17  20
ATOM     20  C   UNL     1      36.826 -23.973 -15.434  0.00  0.00    +0.122 C 
ATOM     21  C   UNL     1      36.415 -25.285 -15.260  0.00  0.00    +0.023 C 
ATOM     22  C   UNL     1      38.161 -23.617 -15.321  0.00  0.00    +0.023 C 
ATOM     23  C   UNL     1      37.363 -26.265 -14.967  0.00  0.00    +0.038 C 
ATOM     24  C   UNL     1      39.109 -24.597 -15.028  0.00  0.00    +0.038 C 
ATOM     25  C   UNL     1      38.710 -25.922 -14.851  0.00  0.00    +0.139 C 
BRANCH  25  26
ATOM     26  O   UNL     1      39.635 -26.878 -14.565  0.00  0.00    -0.471 OA
ATOM     27  C   UNL     1      40.933 -26.432 -14.176  0.00  0.00    +0.252 C 
ENDBRANCH  25  26
ENDBRANCH  17  20
ENDBRANCH   1  17
BRANCH   9  28
ATOM     28  O   UNL     1      28.045 -23.408 -16.363  0.00  0.00    -0.468 OA
ATOM     29  C   UNL     1      27.438 -22.256 -15.781  0.00  0.00    +0.253 C 
ENDBRANCH   9  28
BRANCH  10  30
ATOM     30  O   UNL     1      28.046 -25.389 -14.416  0.00  0.00    -0.503 OA
ATOM     31  H   UNL     1      27.927 -25.609 -13.513  0.00  0.00    +0.292 HD
ENDBRANCH  10  30
TORSDOF 7
ENDMDL
MODEL 5
REMARK VINA RESULT:      -8.4      4.601      7.986
REMARK  Name = 15942651
REMARK  7 active torsions:
REMARK  status: ('A' for Active; 'I' for Inactive)
REMARK    1  A    between atoms: N_1  and  S_17
REMARK    2  A    between atoms: C_2  and  C_13
REMARK    3  A    between atoms: C_9  and  O_28
REMARK    4  A    between atoms: C_10  and  O_30
REMARK    5  A    between atoms: N_12  and  O_15
REMARK    6  A    between atoms: S_17  and  C_20
REMARK    7  A    between atoms: C_25  and  O_26
REMARK                            x       y       z     vdW  Elec       q    Type
REMARK                         _______ _______ _______ _____ _____    ______ ____
ROOT
ATOM      1  N   UNL     1      32.532  -9.726 -22.358  0.00  0.00    -0.144 NA
ATOM      2  C   UNL     1      32.005  -8.372 -22.739  0.00  0.00    +0.179 C 
ATOM      3  C   UNL     1      33.245 -10.408 -23.475  0.00  0.00    +0.101 C 
ATOM      4  C   UNL     1      34.429  -9.553 -23.908  0.00  0.00    +0.045 C 
ATOM      5  C   UNL     1      32.823  -7.614 -23.762  0.00  0.00    +0.002 C 
ATOM      6  C   UNL     1      33.979  -8.181 -24.327  0.00  0.00    -0.020 C 
ATOM      7  C   UNL     1      32.419  -6.334 -24.172  0.00  0.00    +0.037 C 
ATOM      8  C   UNL     1      34.733  -7.446 -25.254  0.00  0.00    +0.035 C 
ATOM      9  C   UNL     1      33.167  -5.617 -25.106  0.00  0.00    +0.172 C 
ATOM     10  C   UNL     1      34.326  -6.172 -25.643  0.00  0.00    +0.167 C 
ENDROOT
BRANCH   2  13
ATOM     11  O   UNL     1      31.030  -6.883 -21.156  0.00  0.00    -0.271 OA
ATOM     12  N   UNL     1      33.062  -7.862 -20.652  0.00  0.00    -0.196 N 
ATOM     13  C   UNL     1      31.969  -7.621 -21.443  0.00  0.00    +0.265 C 
ATOM     14  H   UNL     1      33.788  -8.465 -20.932  0.00  0.00    +0.182 HD
BRANCH  12  15
ATOM     15  O   UNL     1      33.080  -7.196 -19.419  0.00  0.00    -0.295 OA
ATOM     16  H   UNL     1      33.984  -7.193 -19.066  0.00  0.00    +0.241 HD
ENDBRANCH  12  15
ENDBRANCH   2  13
BRANCH   1  17
ATOM     17  S   UNL     1      31.461 -10.738 -21.470  0.00  0.00    +0.064 S 
ATOM     18  O   UNL     1      30.163 -10.708 -22.102  0.00  0.00    -0.153 OA
ATOM     19  O   UNL     1      31.618 -10.452 -20.062  0.00  0.00    -0.153 OA
BRANCH  17  20
ATOM     20  C   UNL     1      32.193 -12.308 -21.797  0.00  0.00    +0.122 C 
ATOM     21  C   UNL     1      32.611 -13.097 -20.736  0.00  0.00    +0.023 C 
ATOM     22  C   UNL     1      32.341 -12.730 -23.109  0.00  0.00    +0.023 C 
ATOM     23  C   UNL     1      33.190 -14.339 -20.995  0.00  0.00    +0.038 C 
ATOM     24  C   UNL     1      32.920 -13.972 -23.367  0.00  0.00    +0.038 C 
ATOM     25  C   UNL     1      33.345 -14.777 -22.311  0.00  0.00    +0.139 C 
BRANCH  25  26
ATOM     26  O   UNL     1      33.910 -15.989 -22.562  0.00  0.00    -0.471 OA
ATOM     27  C   UNL     1      34.823 -16.495 -21.590  0.00  0.00    +0.252 C 
ENDBRANCH  25  26
ENDBRANCH  17  20
ENDBRANCH   1  17
BRANCH   9  28
ATOM     28  O   UNL     1      32.755  -4.374 -25.482  0.00  0.00    -0.468 OA
ATOM     29  C   UNL     1      31.435  -3.988 -25.103  0.00  0.00    +0.253 C 
ENDBRANCH   9  28
BRANCH  10  30
ATOM     30  O   UNL     1      35.070  -5.479 -26.549  0.00  0.00    -0.503 OA
ATOM     31  H   UNL     1      35.722  -5.921 -27.056  0.00  0.00    +0.292 HD
ENDBRANCH  10  30
TORSDOF 7
ENDMDL
MODEL 6
REMARK VINA RESULT:      -8.2      4.451     10.451
REMARK  Name = 15942651
REMARK  7 active torsions:
REMARK  status: ('A' for Active; 'I' for Inactive)
REMARK    1  A    between atoms: N_1  and  S_17
REMARK    2  A    between atoms: C_2  and  C_13
REMARK    3  A    between atoms: C_9  and  O_28
REMARK    4  A    between atoms: C_10  and  O_30
REMARK    5  A    between atoms: N_12  and  O_15
REMARK    6  A    between atoms: S_17  and  C_20
REMARK    7  A    between atoms: C_25  and  O_26
REMARK                            x       y       z     vdW  Elec       q    Type
REMARK                         _______ _______ _______ _____ _____    ______ ____
ROOT
ATOM      1  N   UNL     1      32.963  -9.637 -23.194  0.00  0.00    -0.144 NA
ATOM      2  C   UNL     1      32.916 -10.845 -22.304  0.00  0.00    +0.179 C 
ATOM      3  C   UNL     1      33.909  -9.791 -24.335  0.00  0.00    +0.101 C 
ATOM      4  C   UNL     1      33.476 -10.977 -25.186  0.00  0.00    +0.045 C 
ATOM      5  C   UNL     1      33.149 -12.174 -22.991  0.00  0.00    +0.002 C 
ATOM      6  C   UNL     1      33.424 -12.238 -24.368  0.00  0.00    -0.020 C 
ATOM      7  C   UNL     1      33.111 -13.364 -22.246  0.00  0.00    +0.037 C 
ATOM      8  C   UNL     1      33.610 -13.483 -24.984  0.00  0.00    +0.035 C 
ATOM      9  C   UNL     1      33.313 -14.597 -22.865  0.00  0.00    +0.172 C 
ATOM     10  C   UNL     1      33.557 -14.657 -24.234  0.00  0.00    +0.167 C 
ENDROOT
BRANCH   2  13
ATOM     11  O   UNL     1      30.537 -10.862 -22.414  0.00  0.00    -0.271 OA
ATOM     12  N   UNL     1      31.550 -10.704 -20.343  0.00  0.00    -0.196 N 
ATOM     13  C   UNL     1      31.542 -10.802 -21.709  0.00  0.00    +0.265 C 
ATOM     14  H   UNL     1      32.387 -10.660 -19.826  0.00  0.00    +0.182 HD
BRANCH  12  15
ATOM     15  O   UNL     1      30.292 -10.672 -19.726  0.00  0.00    -0.295 OA
ATOM     16  H   UNL     1      29.630 -11.058 -20.322  0.00  0.00    +0.241 HD
ENDBRANCH  12  15
ENDBRANCH   2  13
BRANCH   1  17
ATOM     17  S   UNL     1      33.041  -8.111 -22.402  0.00  0.00    +0.064 S 
ATOM     18  O   UNL     1      34.279  -8.035 -21.662  0.00  0.00    -0.153 OA
ATOM     19  O   UNL     1      31.769  -7.856 -21.767  0.00  0.00    -0.153 OA
BRANCH  17  20
ATOM     20  C   UNL     1      33.178  -7.052 -23.805  0.00  0.00    +0.122 C 
ATOM     21  C   UNL     1      34.399  -6.935 -24.451  0.00  0.00    +0.023 C 
ATOM     22  C   UNL     1      32.064  -6.352 -24.240  0.00  0.00    +0.023 C 
ATOM     23  C   UNL     1      34.507  -6.097 -25.561  0.00  0.00    +0.038 C 
ATOM     24  C   UNL     1      32.172  -5.514 -25.350  0.00  0.00    +0.038 C 
ATOM     25  C   UNL     1      33.394  -5.386 -26.011  0.00  0.00    +0.139 C 
BRANCH  25  26
ATOM     26  O   UNL     1      33.500  -4.569 -27.094  0.00  0.00    -0.471 OA
ATOM     27  C   UNL     1      32.352  -3.796 -27.439  0.00  0.00    +0.252 C 
ENDBRANCH  25  26
ENDBRANCH  17  20
ENDBRANCH   1  17
BRANCH   9  28
ATOM     28  O   UNL     1      33.264 -15.736 -22.119  0.00  0.00    -0.468 OA
ATOM     29  C   UNL     1      34.423 -16.056 -21.350  0.00  0.00    +0.253 C 
ENDBRANCH   9  28
BRANCH  10  30
ATOM     30  O   UNL     1      33.747 -15.855 -24.852  0.00  0.00    -0.503 OA
ATOM     31  H   UNL     1      33.790 -16.642 -24.346  0.00  0.00    +0.292 HD
ENDBRANCH  10  30
TORSDOF 7
ENDMDL
MODEL 7
REMARK VINA RESULT:      -8.1      8.385     10.985
REMARK  Name = 15942651
REMARK  7 active torsions:
REMARK  status: ('A' for Active; 'I' for Inactive)
REMARK    1  A    between atoms: N_1  and  S_17
REMARK    2  A    between atoms: C_2  and  C_13
REMARK    3  A    between atoms: C_9  and  O_28
REMARK    4  A    between atoms: C_10  and  O_30
REMARK    5  A    between atoms: N_12  and  O_15
REMARK    6  A    between atoms: S_17  and  C_20
REMARK    7  A    between atoms: C_25  and  O_26
REMARK                            x       y       z     vdW  Elec       q    Type
REMARK                         _______ _______ _______ _____ _____    ______ ____
ROOT
ATOM      1  N   UNL     1      32.686 -23.905 -15.535  0.00  0.00    -0.144 NA
ATOM      2  C   UNL     1      34.051 -23.382 -15.194  0.00  0.00    +0.179 C 
ATOM      3  C   UNL     1      32.038 -23.160 -16.651  0.00  0.00    +0.101 C 
ATOM      4  C   UNL     1      32.904 -23.276 -17.899  0.00  0.00    +0.045 C 
ATOM      5  C   UNL     1      34.840 -22.807 -16.352  0.00  0.00    +0.002 C 
ATOM      6  C   UNL     1      34.290 -22.750 -17.644  0.00  0.00    -0.020 C 
ATOM      7  C   UNL     1      36.134 -22.306 -16.137  0.00  0.00    +0.037 C 
ATOM      8  C   UNL     1      35.052 -22.237 -18.703  0.00  0.00    +0.035 C 
ATOM      9  C   UNL     1      36.878 -21.783 -17.194  0.00  0.00    +0.172 C 
ATOM     10  C   UNL     1      36.339 -21.753 -18.477  0.00  0.00    +0.167 C 
ENDROOT
BRANCH   2  13
ATOM     11  O   UNL     1      35.116 -25.508 -15.333  0.00  0.00    -0.271 OA
ATOM     12  N   UNL     1      34.962 -24.476 -13.270  0.00  0.00    -0.196 N 
ATOM     13  C   UNL     1      34.761 -24.570 -14.622  0.00  0.00    +0.265 C 
ATOM     14  H   UNL     1      34.656 -23.700 -12.747  0.00  0.00    +0.182 HD
BRANCH  12  15
ATOM     15  O   UNL     1      35.634 -25.554 -12.677  0.00  0.00    -0.295 OA
ATOM     16  H   UNL     1      36.584 -25.485 -12.862  0.00  0.00    +0.241 HD
ENDBRANCH  12  15
ENDBRANCH   2  13
BRANCH   1  17
ATOM     17  S   UNL     1      31.647 -24.245 -14.206  0.00  0.00    +0.064 S 
ATOM     18  O   UNL     1      31.991 -23.367 -13.112  0.00  0.00    -0.153 OA
ATOM     19  O   UNL     1      31.581 -25.677 -14.028  0.00  0.00    -0.153 OA
BRANCH  17  20
ATOM     20  C   UNL     1      30.111 -23.703 -14.879  0.00  0.00    +0.122 C 
ATOM     21  C   UNL     1      29.351 -24.583 -15.634  0.00  0.00    +0.023 C 
ATOM     22  C   UNL     1      29.686 -22.404 -14.646  0.00  0.00    +0.023 C 
ATOM     23  C   UNL     1      28.136 -24.154 -16.167  0.00  0.00    +0.038 C 
ATOM     24  C   UNL     1      28.470 -21.976 -15.179  0.00  0.00    +0.038 C 
ATOM     25  C   UNL     1      27.695 -22.850 -15.940  0.00  0.00    +0.139 C 
BRANCH  25  26
ATOM     26  O   UNL     1      26.509 -22.432 -16.459  0.00  0.00    -0.471 OA
ATOM     27  C   UNL     1      26.559 -21.693 -17.679  0.00  0.00    +0.252 C 
ENDBRANCH  25  26
ENDBRANCH  17  20
ENDBRANCH   1  17
BRANCH   9  28
ATOM     28  O   UNL     1      38.133 -21.308 -16.958  0.00  0.00    -0.468 OA
ATOM     29  C   UNL     1      38.291 -19.891 -16.909  0.00  0.00    +0.253 C 
ENDBRANCH   9  28
BRANCH  10  30
ATOM     30  O   UNL     1      37.059 -21.253 -19.519  0.00  0.00    -0.503 OA
ATOM     31  H   UNL     1      37.961 -21.028 -19.401  0.00  0.00    +0.292 HD
ENDBRANCH  10  30
TORSDOF 7
ENDMDL
MODEL 8
REMARK VINA RESULT:      -7.7      5.489     11.636
REMARK  Name = 15942651
REMARK  7 active torsions:
REMARK  status: ('A' for Active; 'I' for Inactive)
REMARK    1  A    between atoms: N_1  and  S_17
REMARK    2  A    between atoms: C_2  and  C_13
REMARK    3  A    between atoms: C_9  and  O_28
REMARK    4  A    between atoms: C_10  and  O_30
REMARK    5  A    between atoms: N_12  and  O_15
REMARK    6  A    between atoms: S_17  and  C_20
REMARK    7  A    between atoms: C_25  and  O_26
REMARK                            x       y       z     vdW  Elec       q    Type
REMARK                         _______ _______ _______ _____ _____    ______ ____
ROOT
ATOM      1  N   UNL     1      34.930 -23.313 -16.623  0.00  0.00    -0.144 NA
ATOM      2  C   UNL     1      34.590 -23.389 -15.163  0.00  0.00    +0.179 C 
ATOM      3  C   UNL     1      36.104 -22.438 -16.903  0.00  0.00    +0.101 C 
ATOM      4  C   UNL     1      37.321 -22.986 -16.169  0.00  0.00    +0.045 C 
ATOM      5  C   UNL     1      35.760 -23.273 -14.210  0.00  0.00    +0.002 C 
ATOM      6  C   UNL     1      37.066 -23.074 -14.690  0.00  0.00    -0.020 C 
ATOM      7  C   UNL     1      35.546 -23.347 -12.825  0.00  0.00    +0.037 C 
ATOM      8  C   UNL     1      38.136 -22.996 -13.787  0.00  0.00    +0.035 C 
ATOM      9  C   UNL     1      36.614 -23.252 -11.933  0.00  0.00    +0.172 C 
ATOM     10  C   UNL     1      37.909 -23.082 -12.415  0.00  0.00    +0.167 C 
ENDROOT
BRANCH   2  13
ATOM     11  O   UNL     1      34.512 -25.765 -15.322  0.00  0.00    -0.271 OA
ATOM     12  N   UNL     1      32.661 -24.646 -14.506  0.00  0.00    -0.196 N 
ATOM     13  C   UNL     1      33.931 -24.726 -15.015  0.00  0.00    +0.265 C 
ATOM     14  H   UNL     1      32.242 -23.786 -14.275  0.00  0.00    +0.182 HD
BRANCH  12  15
ATOM     15  O   UNL     1      31.996 -25.868 -14.332  0.00  0.00    -0.295 OA
ATOM     16  H   UNL     1      32.440 -26.382 -13.639  0.00  0.00    +0.241 HD
ENDBRANCH  12  15
ENDBRANCH   2  13
BRANCH   1  17
ATOM     17  S   UNL     1      33.608 -23.102 -17.704  0.00  0.00    +0.064 S 
ATOM     18  O   UNL     1      32.530 -22.450 -16.996  0.00  0.00    -0.153 OA
ATOM     19  O   UNL     1      33.397 -24.338 -18.421  0.00  0.00    -0.153 OA
BRANCH  17  20
ATOM     20  C   UNL     1      34.315 -21.933 -18.818  0.00  0.00    +0.122 C 
ATOM     21  C   UNL     1      33.487 -21.054 -19.497  0.00  0.00    +0.023 C 
ATOM     22  C   UNL     1      35.690 -21.912 -19.000  0.00  0.00    +0.023 C 
ATOM     23  C   UNL     1      34.046 -20.130 -20.379  0.00  0.00    +0.038 C 
ATOM     24  C   UNL     1      36.249 -20.988 -19.882  0.00  0.00    +0.038 C 
ATOM     25  C   UNL     1      35.428 -20.096 -20.572  0.00  0.00    +0.139 C 
BRANCH  25  26
ATOM     26  O   UNL     1      35.973 -19.194 -21.432  0.00  0.00    -0.471 OA
ATOM     27  C   UNL     1      35.452 -17.867 -21.397  0.00  0.00    +0.252 C 
ENDBRANCH  25  26
ENDBRANCH  17  20
ENDBRANCH   1  17
BRANCH   9  28
ATOM     28  O   UNL     1      36.377 -23.332 -10.594  0.00  0.00    -0.468 OA
ATOM     29  C   UNL     1      35.600 -24.438 -10.139  0.00  0.00    +0.253 C 
ENDBRANCH   9  28
BRANCH  10  30
ATOM     30  O   UNL     1      38.962 -22.997 -11.555  0.00  0.00    -0.503 OA
ATOM     31  H   UNL     1      38.946 -22.377 -10.853  0.00  0.00    +0.292 HD
ENDBRANCH  10  30
TORSDOF 7
ENDMDL
