MODEL 1
REMARK VINA RESULT:     -10.4      0.000      0.000
REMARK  Name = 54727975
REMARK  6 active torsions:
REMARK  status: ('A' for Active; 'I' for Inactive)
REMARK    1  A    between atoms: C_2  and  C_8
REMARK    2  A    between atoms: C_5  and  N_17
REMARK    3  A    between atoms: C_9  and  O_14
REMARK    4  A    between atoms: C_18  and  C_20
REMARK    5  A    between atoms: C_20  and  C_26
REMARK    6  A    between atoms: C_21  and  O_23
REMARK                            x       y       z     vdW  Elec       q    Type
REMARK                         _______ _______ _______ _____ _____    ______ ____
ROOT
ATOM      1 CL   UNL     1      32.788 -21.930 -18.723  0.00  0.00    -0.081 Cl
ATOM      2  C   UNL     1      35.184 -19.759 -21.067  0.00  0.00    +0.004 C 
ATOM      3  C   UNL     1      34.059 -20.347 -20.486  0.00  0.00    +0.013 C 
ATOM      4  C   UNL     1      36.455 -20.046 -20.570  0.00  0.00    +0.001 C 
ATOM      5  C   UNL     1      35.478 -21.509 -18.914  0.00  0.00    +0.061 C 
ATOM      6  C   UNL     1      34.206 -21.222 -19.411  0.00  0.00    +0.071 C 
ATOM      7  C   UNL     1      36.602 -20.921 -19.494  0.00  0.00    +0.016 C 
ENDROOT
BRANCH   2   8
ATOM      8  C   UNL     1      35.032 -18.851 -22.183  0.00  0.00    +0.034 C 
ATOM      9  C   UNL     1      35.017 -17.470 -21.986  0.00  0.00    +0.139 C 
ATOM     10  C   UNL     1      34.898 -19.373 -23.470  0.00  0.00    +0.003 C 
ATOM     11  C   UNL     1      34.868 -16.612 -23.074  0.00  0.00    +0.037 C 
ATOM     12  C   UNL     1      34.750 -18.514 -24.559  0.00  0.00    +0.000 C 
ATOM     13  C   UNL     1      34.735 -17.134 -24.361  0.00  0.00    +0.003 C 
BRANCH   9  14
ATOM     14  O   UNL     1      35.146 -16.932 -20.739  0.00  0.00    -0.471 OA
ATOM     15  C   UNL     1      34.616 -15.624 -20.542  0.00  0.00    +0.252 C 
ENDBRANCH   9  14
ENDBRANCH   2   8
BRANCH   5  17
ATOM     16  O   UNL     1      37.256 -21.275 -16.513  0.00  0.00    -0.269 OA
ATOM     17  N   UNL     1      35.664 -22.393 -17.822  0.00  0.00    -0.279 N 
ATOM     18  C   UNL     1      36.509 -22.223 -16.733  0.00  0.00    +0.262 C 
ATOM     19  H   UNL     1      35.133 -23.223 -17.839  0.00  0.00    +0.155 HD
BRANCH  18  20
ATOM     20  C   UNL     1      36.439 -23.379 -15.769  0.00  0.00    +0.151 C 
ATOM     21  C   UNL     1      37.587 -23.974 -15.384  0.00  0.00    +0.126 C 
ATOM     22  C   UNL     1      37.688 -25.145 -14.445  0.00  0.00    +0.072 C 
BRANCH  21  23
ATOM     23  O   UNL     1      38.814 -23.510 -15.830  0.00  0.00    -0.509 OA
ATOM     24  H   UNL     1      39.460 -24.116 -16.138  0.00  0.00    +0.292 HD
ENDBRANCH  21  23
BRANCH  20  26
ATOM     25  N   UNL     1      34.132 -24.185 -14.915  0.00  0.00    -0.191 NA
ATOM     26  C   UNL     1      35.163 -23.822 -15.304  0.00  0.00    +0.108 C 
ENDBRANCH  20  26
ENDBRANCH  18  20
ENDBRANCH   5  17
TORSDOF 6
ENDMDL
MODEL 2
REMARK VINA RESULT:     -10.1      2.377      3.156
REMARK  Name = 54727975
REMARK  6 active torsions:
REMARK  status: ('A' for Active; 'I' for Inactive)
REMARK    1  A    between atoms: C_2  and  C_8
REMARK    2  A    between atoms: C_5  and  N_17
REMARK    3  A    between atoms: C_9  and  O_14
REMARK    4  A    between atoms: C_18  and  C_20
REMARK    5  A    between atoms: C_20  and  C_26
REMARK    6  A    between atoms: C_21  and  O_23
REMARK                            x       y       z     vdW  Elec       q    Type
REMARK                         _______ _______ _______ _____ _____    ______ ____
ROOT
ATOM      1 CL   UNL     1      36.659 -21.363 -19.259  0.00  0.00    -0.081 Cl
ATOM      2  C   UNL     1      34.342 -19.287 -21.762  0.00  0.00    +0.004 C 
ATOM      3  C   UNL     1      35.445 -19.868 -21.136  0.00  0.00    +0.013 C 
ATOM      4  C   UNL     1      33.060 -19.503 -21.257  0.00  0.00    +0.001 C 
ATOM      5  C   UNL     1      33.984 -20.880 -19.500  0.00  0.00    +0.061 C 
ATOM      6  C   UNL     1      35.266 -20.664 -20.005  0.00  0.00    +0.071 C 
ATOM      7  C   UNL     1      32.881 -20.300 -20.126  0.00  0.00    +0.016 C 
ENDROOT
BRANCH   2   8
ATOM      8  C   UNL     1      34.526 -18.461 -22.935  0.00  0.00    +0.034 C 
ATOM      9  C   UNL     1      34.791 -17.096 -22.815  0.00  0.00    +0.139 C 
ATOM     10  C   UNL     1      34.435 -19.045 -24.199  0.00  0.00    +0.003 C 
ATOM     11  C   UNL     1      34.965 -16.317 -23.958  0.00  0.00    +0.037 C 
ATOM     12  C   UNL     1      34.609 -18.265 -25.342  0.00  0.00    +0.000 C 
ATOM     13  C   UNL     1      34.874 -16.901 -25.221  0.00  0.00    +0.003 C 
BRANCH   9  14
ATOM     14  O   UNL     1      34.886 -16.499 -21.593  0.00  0.00    -0.471 OA
ATOM     15  C   UNL     1      34.436 -15.149 -21.497  0.00  0.00    +0.252 C 
ENDBRANCH   9  14
ENDBRANCH   2   8
BRANCH   5  17
ATOM     16  O   UNL     1      33.854 -23.860 -19.219  0.00  0.00    -0.269 OA
ATOM     17  N   UNL     1      33.766 -21.683 -18.353  0.00  0.00    -0.279 N 
ATOM     18  C   UNL     1      33.718 -23.070 -18.291  0.00  0.00    +0.262 C 
ATOM     19  H   UNL     1      33.633 -21.203 -17.503  0.00  0.00    +0.155 HD
BRANCH  18  20
ATOM     20  C   UNL     1      33.464 -23.572 -16.893  0.00  0.00    +0.151 C 
ATOM     21  C   UNL     1      32.245 -23.384 -16.347  0.00  0.00    +0.126 C 
ATOM     22  C   UNL     1      31.838 -23.808 -14.962  0.00  0.00    +0.072 C 
BRANCH  21  23
ATOM     23  O   UNL     1      31.228 -22.778 -17.066  0.00  0.00    -0.509 OA
ATOM     24  H   UNL     1      31.242 -21.852 -17.210  0.00  0.00    +0.292 HD
ENDBRANCH  21  23
BRANCH  20  26
ATOM     25  N   UNL     1      35.390 -24.736 -15.612  0.00  0.00    -0.191 NA
ATOM     26  C   UNL     1      34.522 -24.216 -16.181  0.00  0.00    +0.108 C 
ENDBRANCH  20  26
ENDBRANCH  18  20
ENDBRANCH   5  17
TORSDOF 6
ENDMDL
MODEL 3
REMARK VINA RESULT:      -9.4      5.338     10.171
REMARK  Name = 54727975
REMARK  6 active torsions:
REMARK  status: ('A' for Active; 'I' for Inactive)
REMARK    1  A    between atoms: C_2  and  C_8
REMARK    2  A    between atoms: C_5  and  N_17
REMARK    3  A    between atoms: C_9  and  O_14
REMARK    4  A    between atoms: C_18  and  C_20
REMARK    5  A    between atoms: C_20  and  C_26
REMARK    6  A    between atoms: C_21  and  O_23
REMARK                            x       y       z     vdW  Elec       q    Type
REMARK                         _______ _______ _______ _____ _____    ______ ____
ROOT
ATOM      1 CL   UNL     1      33.864 -15.677 -25.213  0.00  0.00    -0.081 Cl
ATOM      2  C   UNL     1      34.345 -17.331 -21.609  0.00  0.00    +0.004 C 
ATOM      3  C   UNL     1      34.151 -17.148 -22.979  0.00  0.00    +0.013 C 
ATOM      4  C   UNL     1      34.495 -16.225 -20.773  0.00  0.00    +0.001 C 
ATOM      5  C   UNL     1      34.257 -14.754 -22.675  0.00  0.00    +0.061 C 
ATOM      6  C   UNL     1      34.108 -15.860 -23.512  0.00  0.00    +0.071 C 
ATOM      7  C   UNL     1      34.451 -14.937 -21.305  0.00  0.00    +0.016 C 
ENDROOT
BRANCH   2   8
ATOM      8  C   UNL     1      34.390 -18.667 -21.056  0.00  0.00    +0.034 C 
ATOM      9  C   UNL     1      35.609 -19.300 -20.814  0.00  0.00    +0.139 C 
ATOM     10  C   UNL     1      33.194 -19.323 -20.767  0.00  0.00    +0.003 C 
ATOM     11  C   UNL     1      35.632 -20.589 -20.282  0.00  0.00    +0.037 C 
ATOM     12  C   UNL     1      33.217 -20.612 -20.234  0.00  0.00    +0.000 C 
ATOM     13  C   UNL     1      34.436 -21.244 -19.991  0.00  0.00    +0.003 C 
BRANCH   9  14
ATOM     14  O   UNL     1      36.794 -18.682 -21.088  0.00  0.00    -0.471 OA
ATOM     15  C   UNL     1      37.283 -18.786 -22.422  0.00  0.00    +0.252 C 
ENDBRANCH   9  14
ENDBRANCH   2   8
BRANCH   5  17
ATOM     16  O   UNL     1      31.960 -12.847 -22.936  0.00  0.00    -0.269 OA
ATOM     17  N   UNL     1      34.218 -13.431 -23.182  0.00  0.00    -0.279 N 
ATOM     18  C   UNL     1      33.112 -12.595 -23.275  0.00  0.00    +0.262 C 
ATOM     19  H   UNL     1      35.072 -13.063 -23.506  0.00  0.00    +0.155 HD
BRANCH  18  20
ATOM     20  C   UNL     1      33.456 -11.255 -23.871  0.00  0.00    +0.151 C 
ATOM     21  C   UNL     1      32.986 -10.139 -23.275  0.00  0.00    +0.126 C 
ATOM     22  C   UNL     1      33.223  -8.733 -23.753  0.00  0.00    +0.072 C 
BRANCH  21  23
ATOM     23  O   UNL     1      32.234 -10.214 -22.114  0.00  0.00    -0.509 OA
ATOM     24  H   UNL     1      32.230  -9.497 -21.511  0.00  0.00    +0.292 HD
ENDBRANCH  21  23
BRANCH  20  26
ATOM     25  N   UNL     1      34.912 -11.159 -26.010  0.00  0.00    -0.191 NA
ATOM     26  C   UNL     1      34.254 -11.203 -25.055  0.00  0.00    +0.108 C 
ENDBRANCH  20  26
ENDBRANCH  18  20
ENDBRANCH   5  17
TORSDOF 6
ENDMDL
MODEL 4
REMARK VINA RESULT:      -9.4      7.775     11.438
REMARK  Name = 54727975
REMARK  6 active torsions:
REMARK  status: ('A' for Active; 'I' for Inactive)
REMARK    1  A    between atoms: C_2  and  C_8
REMARK    2  A    between atoms: C_5  and  N_17
REMARK    3  A    between atoms: C_9  and  O_14
REMARK    4  A    between atoms: C_18  and  C_20
REMARK    5  A    between atoms: C_20  and  C_26
REMARK    6  A    between atoms: C_21  and  O_23
REMARK                            x       y       z     vdW  Elec       q    Type
REMARK                         _______ _______ _______ _____ _____    ______ ____
ROOT
ATOM      1 CL   UNL     1      31.542 -12.565 -21.345  0.00  0.00    -0.081 Cl
ATOM      2  C   UNL     1      32.486  -9.205 -23.285  0.00  0.00    +0.004 C 
ATOM      3  C   UNL     1      31.897 -10.124 -22.416  0.00  0.00    +0.013 C 
ATOM      4  C   UNL     1      33.478  -9.622 -24.173  0.00  0.00    +0.001 C 
ATOM      5  C   UNL     1      33.290 -11.876 -23.325  0.00  0.00    +0.061 C 
ATOM      6  C   UNL     1      32.299 -11.459 -22.436  0.00  0.00    +0.071 C 
ATOM      7  C   UNL     1      33.879 -10.957 -24.193  0.00  0.00    +0.016 C 
ENDROOT
BRANCH   2   8
ATOM      8  C   UNL     1      32.070  -7.819 -23.265  0.00  0.00    +0.034 C 
ATOM      9  C   UNL     1      32.405  -6.987 -22.197  0.00  0.00    +0.139 C 
ATOM     10  C   UNL     1      31.324  -7.319 -24.332  0.00  0.00    +0.003 C 
ATOM     11  C   UNL     1      31.993  -5.655 -22.195  0.00  0.00    +0.037 C 
ATOM     12  C   UNL     1      30.912  -5.986 -24.331  0.00  0.00    +0.000 C 
ATOM     13  C   UNL     1      31.247  -5.154 -23.262  0.00  0.00    +0.003 C 
BRANCH   9  14
ATOM     14  O   UNL     1      33.134  -7.449 -21.141  0.00  0.00    -0.471 OA
ATOM     15  C   UNL     1      32.489  -7.467 -19.870  0.00  0.00    +0.252 C 
ENDBRANCH   9  14
ENDBRANCH   2   8
BRANCH   5  17
ATOM     16  O   UNL     1      32.559 -14.079 -25.221  0.00  0.00    -0.269 OA
ATOM     17  N   UNL     1      33.722 -13.225 -23.372  0.00  0.00    -0.279 N 
ATOM     18  C   UNL     1      33.342 -14.201 -24.284  0.00  0.00    +0.262 C 
ATOM     19  H   UNL     1      34.364 -13.501 -22.678  0.00  0.00    +0.155 HD
BRANCH  18  20
ATOM     20  C   UNL     1      34.011 -15.525 -24.018  0.00  0.00    +0.151 C 
ATOM     21  C   UNL     1      34.140 -16.403 -25.033  0.00  0.00    +0.126 C 
ATOM     22  C   UNL     1      34.765 -17.768 -24.929  0.00  0.00    +0.072 C 
BRANCH  21  23
ATOM     23  O   UNL     1      33.706 -16.086 -26.310  0.00  0.00    -0.509 OA
ATOM     24  H   UNL     1      32.849 -15.728 -26.439  0.00  0.00    +0.292 HD
ENDBRANCH  21  23
BRANCH  20  26
ATOM     25  N   UNL     1      34.836 -16.055 -21.622  0.00  0.00    -0.191 NA
ATOM     26  C   UNL     1      34.472 -15.819 -22.698  0.00  0.00    +0.108 C 
ENDBRANCH  20  26
ENDBRANCH  18  20
ENDBRANCH   5  17
TORSDOF 6
ENDMDL
MODEL 5
REMARK VINA RESULT:      -9.3      7.722     11.401
REMARK  Name = 54727975
REMARK  6 active torsions:
REMARK  status: ('A' for Active; 'I' for Inactive)
REMARK    1  A    between atoms: C_2  and  C_8
REMARK    2  A    between atoms: C_5  and  N_17
REMARK    3  A    between atoms: C_9  and  O_14
REMARK    4  A    between atoms: C_18  and  C_20
REMARK    5  A    between atoms: C_20  and  C_26
REMARK    6  A    between atoms: C_21  and  O_23
REMARK                            x       y       z     vdW  Elec       q    Type
REMARK                         _______ _______ _______ _____ _____    ______ ____
ROOT
ATOM      1 CL   UNL     1      34.630 -11.180 -25.431  0.00  0.00    -0.081 Cl
ATOM      2  C   UNL     1      32.454  -9.689 -22.433  0.00  0.00    +0.004 C 
ATOM      3  C   UNL     1      33.302  -9.812 -23.535  0.00  0.00    +0.013 C 
ATOM      4  C   UNL     1      31.878 -10.826 -21.866  0.00  0.00    +0.001 C 
ATOM      5  C   UNL     1      32.997 -12.208 -23.501  0.00  0.00    +0.061 C 
ATOM      6  C   UNL     1      33.573 -11.071 -24.068  0.00  0.00    +0.071 C 
ATOM      7  C   UNL     1      32.149 -12.085 -22.400  0.00  0.00    +0.016 C 
ENDROOT
BRANCH   2   8
ATOM      8  C   UNL     1      32.172  -8.383 -21.878  0.00  0.00    +0.034 C 
ATOM      9  C   UNL     1      31.452  -7.436 -22.608  0.00  0.00    +0.139 C 
ATOM     10  C   UNL     1      32.631  -8.075 -20.598  0.00  0.00    +0.003 C 
ATOM     11  C   UNL     1      31.192  -6.182 -22.057  0.00  0.00    +0.037 C 
ATOM     12  C   UNL     1      32.370  -6.820 -20.046  0.00  0.00    +0.000 C 
ATOM     13  C   UNL     1      31.650  -5.874 -20.775  0.00  0.00    +0.003 C 
BRANCH   9  14
ATOM     14  O   UNL     1      30.992  -7.709 -23.862  0.00  0.00    -0.471 OA
ATOM     15  C   UNL     1      31.001  -6.638 -24.802  0.00  0.00    +0.252 C 
ENDBRANCH   9  14
ENDBRANCH   2   8
BRANCH   5  17
ATOM     16  O   UNL     1      34.787 -14.384 -22.480  0.00  0.00    -0.269 OA
ATOM     17  N   UNL     1      33.252 -13.503 -24.018  0.00  0.00    -0.279 N 
ATOM     18  C   UNL     1      34.099 -14.470 -23.492  0.00  0.00    +0.262 C 
ATOM     19  H   UNL     1      32.773 -13.743 -24.845  0.00  0.00    +0.155 HD
BRANCH  18  20
ATOM     20  C   UNL     1      34.113 -15.730 -24.319  0.00  0.00    +0.151 C 
ATOM     21  C   UNL     1      34.669 -16.843 -23.798  0.00  0.00    +0.126 C 
ATOM     22  C   UNL     1      34.779 -18.170 -24.498  0.00  0.00    +0.072 C 
BRANCH  21  23
ATOM     23  O   UNL     1      35.181 -16.848 -22.511  0.00  0.00    -0.509 OA
ATOM     24  H   UNL     1      36.109 -16.853 -22.375  0.00  0.00    +0.292 HD
ENDBRANCH  21  23
BRANCH  20  26
ATOM     25  N   UNL     1      33.107 -15.674 -26.704  0.00  0.00    -0.191 NA
ATOM     26  C   UNL     1      33.556 -15.705 -25.634  0.00  0.00    +0.108 C 
ENDBRANCH  20  26
ENDBRANCH  18  20
ENDBRANCH   5  17
TORSDOF 6
ENDMDL
MODEL 6
REMARK VINA RESULT:      -9.3      7.379     11.158
REMARK  Name = 54727975
REMARK  6 active torsions:
REMARK  status: ('A' for Active; 'I' for Inactive)
REMARK    1  A    between atoms: C_2  and  C_8
REMARK    2  A    between atoms: C_5  and  N_17
REMARK    3  A    between atoms: C_9  and  O_14
REMARK    4  A    between atoms: C_18  and  C_20
REMARK    5  A    between atoms: C_20  and  C_26
REMARK    6  A    between atoms: C_21  and  O_23
REMARK                            x       y       z     vdW  Elec       q    Type
REMARK                         _______ _______ _______ _____ _____    ______ ____
ROOT
ATOM      1 CL   UNL     1      34.771 -11.271 -25.483  0.00  0.00    -0.081 Cl
ATOM      2  C   UNL     1      32.252  -9.573 -22.891  0.00  0.00    +0.004 C 
ATOM      3  C   UNL     1      33.206  -9.773 -23.890  0.00  0.00    +0.013 C 
ATOM      4  C   UNL     1      31.679 -10.669 -22.245  0.00  0.00    +0.001 C 
ATOM      5  C   UNL     1      33.013 -12.163 -23.596  0.00  0.00    +0.061 C 
ATOM      6  C   UNL     1      33.586 -11.067 -24.243  0.00  0.00    +0.071 C 
ATOM      7  C   UNL     1      32.059 -11.963 -22.598  0.00  0.00    +0.016 C 
ENDROOT
BRANCH   2   8
ATOM      8  C   UNL     1      31.857  -8.230 -22.524  0.00  0.00    +0.034 C 
ATOM      9  C   UNL     1      32.139  -7.722 -21.256  0.00  0.00    +0.139 C 
ATOM     10  C   UNL     1      31.184  -7.442 -23.458  0.00  0.00    +0.003 C 
ATOM     11  C   UNL     1      31.749  -6.426 -20.921  0.00  0.00    +0.037 C 
ATOM     12  C   UNL     1      30.794  -6.145 -23.123  0.00  0.00    +0.000 C 
ATOM     13  C   UNL     1      31.077  -5.638 -21.855  0.00  0.00    +0.003 C 
BRANCH   9  14
ATOM     14  O   UNL     1      32.795  -8.471 -20.323  0.00  0.00    -0.471 OA
ATOM     15  C   UNL     1      32.000  -9.081 -19.309  0.00  0.00    +0.252 C 
ENDBRANCH   9  14
ENDBRANCH   2   8
BRANCH   5  17
ATOM     16  O   UNL     1      34.575 -14.192 -22.040  0.00  0.00    -0.269 OA
ATOM     17  N   UNL     1      33.376 -13.492 -23.929  0.00  0.00    -0.279 N 
ATOM     18  C   UNL     1      34.105 -14.386 -23.157  0.00  0.00    +0.262 C 
ATOM     19  H   UNL     1      33.077 -13.817 -24.810  0.00  0.00    +0.155 HD
BRANCH  18  20
ATOM     20  C   UNL     1      34.297 -15.713 -23.844  0.00  0.00    +0.151 C 
ATOM     21  C   UNL     1      34.870 -16.723 -23.158  0.00  0.00    +0.126 C 
ATOM     22  C   UNL     1      35.147 -18.098 -23.704  0.00  0.00    +0.072 C 
BRANCH  21  23
ATOM     23  O   UNL     1      35.241 -16.564 -21.833  0.00  0.00    -0.509 OA
ATOM     24  H   UNL     1      34.739 -16.010 -21.268  0.00  0.00    +0.292 HD
ENDBRANCH  21  23
BRANCH  20  26
ATOM     25  N   UNL     1      33.535 -15.973 -26.305  0.00  0.00    -0.191 NA
ATOM     26  C   UNL     1      33.882 -15.859 -25.204  0.00  0.00    +0.108 C 
ENDBRANCH  20  26
ENDBRANCH  18  20
ENDBRANCH   5  17
TORSDOF 6
ENDMDL
MODEL 7
REMARK VINA RESULT:      -9.1      8.193     12.994
REMARK  Name = 54727975
REMARK  6 active torsions:
REMARK  status: ('A' for Active; 'I' for Inactive)
REMARK    1  A    between atoms: C_2  and  C_8
REMARK    2  A    between atoms: C_5  and  N_17
REMARK    3  A    between atoms: C_9  and  O_14
REMARK    4  A    between atoms: C_18  and  C_20
REMARK    5  A    between atoms: C_20  and  C_26
REMARK    6  A    between atoms: C_21  and  O_23
REMARK                            x       y       z     vdW  Elec       q    Type
REMARK                         _______ _______ _______ _____ _____    ______ ____
ROOT
ATOM      1 CL   UNL     1      30.896 -11.110 -21.208  0.00  0.00    -0.081 Cl
ATOM      2  C   UNL     1      33.341 -12.872 -23.828  0.00  0.00    +0.004 C 
ATOM      3  C   UNL     1      32.382 -12.647 -22.839  0.00  0.00    +0.013 C 
ATOM      4  C   UNL     1      34.005 -11.794 -24.413  0.00  0.00    +0.001 C 
ATOM      5  C   UNL     1      32.753 -10.267 -23.022  0.00  0.00    +0.061 C 
ATOM      6  C   UNL     1      32.088 -11.345 -22.436  0.00  0.00    +0.071 C 
ATOM      7  C   UNL     1      33.711 -10.492 -24.010  0.00  0.00    +0.016 C 
ENDROOT
BRANCH   2   8
ATOM      8  C   UNL     1      33.646 -14.223 -24.246  0.00  0.00    +0.034 C 
ATOM      9  C   UNL     1      34.408 -15.068 -23.439  0.00  0.00    +0.139 C 
ATOM     10  C   UNL     1      33.169 -14.677 -25.476  0.00  0.00    +0.003 C 
ATOM     11  C   UNL     1      34.693 -16.366 -23.860  0.00  0.00    +0.037 C 
ATOM     12  C   UNL     1      33.454 -15.976 -25.898  0.00  0.00    +0.000 C 
ATOM     13  C   UNL     1      34.216 -16.820 -25.090  0.00  0.00    +0.003 C 
BRANCH   9  14
ATOM     14  O   UNL     1      34.888 -14.650 -22.232  0.00  0.00    -0.471 OA
ATOM     15  C   UNL     1      34.502 -15.405 -21.087  0.00  0.00    +0.252 C 
ENDBRANCH   9  14
ENDBRANCH   2   8
BRANCH   5  17
ATOM     16  O   UNL     1      30.901  -8.244 -24.228  0.00  0.00    -0.269 OA
ATOM     17  N   UNL     1      32.479  -8.931 -22.636  0.00  0.00    -0.279 N 
ATOM     18  C   UNL     1      31.602  -8.041 -23.243  0.00  0.00    +0.262 C 
ATOM     19  H   UNL     1      32.967  -8.596 -21.849  0.00  0.00    +0.155 HD
BRANCH  18  20
ATOM     20  C   UNL     1      31.575  -6.702 -22.550  0.00  0.00    +0.151 C 
ATOM     21  C   UNL     1      31.228  -5.610 -23.262  0.00  0.00    +0.126 C 
ATOM     22  C   UNL     1      31.170  -4.206 -22.726  0.00  0.00    +0.072 C 
BRANCH  21  23
ATOM     23  O   UNL     1      30.861  -5.715 -24.594  0.00  0.00    -0.509 OA
ATOM     24  H   UNL     1      29.979  -5.533 -24.853  0.00  0.00    +0.292 HD
ENDBRANCH  21  23
BRANCH  20  26
ATOM     25  N   UNL     1      32.234  -6.569 -20.050  0.00  0.00    -0.191 NA
ATOM     26  C   UNL     1      31.934  -6.625 -21.170  0.00  0.00    +0.108 C 
ENDBRANCH  20  26
ENDBRANCH  18  20
ENDBRANCH   5  17
TORSDOF 6
ENDMDL
MODEL 8
REMARK VINA RESULT:      -9.1      7.945     12.610
REMARK  Name = 54727975
REMARK  6 active torsions:
REMARK  status: ('A' for Active; 'I' for Inactive)
REMARK    1  A    between atoms: C_2  and  C_8
REMARK    2  A    between atoms: C_5  and  N_17
REMARK    3  A    between atoms: C_9  and  O_14
REMARK    4  A    between atoms: C_18  and  C_20
REMARK    5  A    between atoms: C_20  and  C_26
REMARK    6  A    between atoms: C_21  and  O_23
REMARK                            x       y       z     vdW  Elec       q    Type
REMARK                         _______ _______ _______ _____ _____    ______ ____
ROOT
ATOM      1 CL   UNL     1      31.041 -11.369 -21.344  0.00  0.00    -0.081 Cl
ATOM      2  C   UNL     1      33.512 -13.353 -23.774  0.00  0.00    +0.004 C 
ATOM      3  C   UNL     1      32.588 -13.038 -22.776  0.00  0.00    +0.013 C 
ATOM      4  C   UNL     1      34.031 -12.345 -24.586  0.00  0.00    +0.001 C 
ATOM      5  C   UNL     1      32.704 -10.708 -23.404  0.00  0.00    +0.061 C 
ATOM      6  C   UNL     1      32.184 -11.716 -22.591  0.00  0.00    +0.071 C 
ATOM      7  C   UNL     1      33.627 -11.023 -24.401  0.00  0.00    +0.016 C 
ENDROOT
BRANCH   2   8
ATOM      8  C   UNL     1      33.931 -14.724 -23.967  0.00  0.00    +0.034 C 
ATOM      9  C   UNL     1      34.651 -15.398 -22.980  0.00  0.00    +0.139 C 
ATOM     10  C   UNL     1      33.608 -15.372 -25.159  0.00  0.00    +0.003 C 
ATOM     11  C   UNL     1      35.048 -16.718 -23.185  0.00  0.00    +0.037 C 
ATOM     12  C   UNL     1      34.004 -16.694 -25.364  0.00  0.00    +0.000 C 
ATOM     13  C   UNL     1      34.724 -17.367 -24.377  0.00  0.00    +0.003 C 
BRANCH   9  14
ATOM     14  O   UNL     1      34.982 -14.788 -21.805  0.00  0.00    -0.471 OA
ATOM     15  C   UNL     1      34.571 -15.436 -20.603  0.00  0.00    +0.252 C 
ENDBRANCH   9  14
ENDBRANCH   2   8
BRANCH   5  17
ATOM     16  O   UNL     1      34.369  -8.221 -23.252  0.00  0.00    -0.269 OA
ATOM     17  N   UNL     1      32.316  -9.355 -23.243  0.00  0.00    -0.279 N 
ATOM     18  C   UNL     1      33.144  -8.241 -23.181  0.00  0.00    +0.262 C 
ATOM     19  H   UNL     1      31.349  -9.185 -23.166  0.00  0.00    +0.155 HD
BRANCH  18  20
ATOM     20  C   UNL     1      32.369  -6.961 -23.003  0.00  0.00    +0.151 C 
ATOM     21  C   UNL     1      31.755  -6.732 -21.824  0.00  0.00    +0.126 C 
ATOM     22  C   UNL     1      30.932  -5.517 -21.494  0.00  0.00    +0.072 C 
BRANCH  21  23
ATOM     23  O   UNL     1      31.864  -7.633 -20.777  0.00  0.00    -0.509 OA
ATOM     24  H   UNL     1      31.885  -7.324 -19.893  0.00  0.00    +0.292 HD
ENDBRANCH  21  23
BRANCH  20  26
ATOM     25  N   UNL     1      32.229  -5.295 -24.980  0.00  0.00    -0.191 NA
ATOM     26  C   UNL     1      32.293  -6.036 -24.090  0.00  0.00    +0.108 C 
ENDBRANCH  20  26
ENDBRANCH  18  20
ENDBRANCH   5  17
TORSDOF 6
ENDMDL
MODEL 9
REMARK VINA RESULT:      -9.0      8.928     12.946
REMARK  Name = 54727975
REMARK  6 active torsions:
REMARK  status: ('A' for Active; 'I' for Inactive)
REMARK    1  A    between atoms: C_2  and  C_8
REMARK    2  A    between atoms: C_5  and  N_17
REMARK    3  A    between atoms: C_9  and  O_14
REMARK    4  A    between atoms: C_18  and  C_20
REMARK    5  A    between atoms: C_20  and  C_26
REMARK    6  A    between atoms: C_21  and  O_23
REMARK                            x       y       z     vdW  Elec       q    Type
REMARK                         _______ _______ _______ _____ _____    ______ ____
ROOT
ATOM      1 CL   UNL     1      30.788 -11.390 -21.156  0.00  0.00    -0.081 Cl
ATOM      2  C   UNL     1      33.388 -13.059 -23.687  0.00  0.00    +0.004 C 
ATOM      3  C   UNL     1      32.373 -12.869 -22.748  0.00  0.00    +0.013 C 
ATOM      4  C   UNL     1      34.078 -11.961 -24.199  0.00  0.00    +0.001 C 
ATOM      5  C   UNL     1      32.741 -10.483 -22.833  0.00  0.00    +0.061 C 
ATOM      6  C   UNL     1      32.050 -11.581 -22.321  0.00  0.00    +0.071 C 
ATOM      7  C   UNL     1      33.755 -10.673 -23.772  0.00  0.00    +0.016 C 
ENDROOT
BRANCH   2   8
ATOM      8  C   UNL     1      33.723 -14.395 -24.130  0.00  0.00    +0.034 C 
ATOM      9  C   UNL     1      33.292 -14.867 -25.370  0.00  0.00    +0.139 C 
ATOM     10  C   UNL     1      34.487 -15.214 -23.299  0.00  0.00    +0.003 C 
ATOM     11  C   UNL     1      33.625 -16.158 -25.779  0.00  0.00    +0.037 C 
ATOM     12  C   UNL     1      34.820 -16.506 -23.708  0.00  0.00    +0.000 C 
ATOM     13  C   UNL     1      34.389 -16.977 -24.948  0.00  0.00    +0.003 C 
BRANCH   9  14
ATOM     14  O   UNL     1      32.544 -14.088 -26.203  0.00  0.00    -0.471 OA
ATOM     15  C   UNL     1      33.212 -13.514 -27.324  0.00  0.00    +0.252 C 
ENDBRANCH   9  14
ENDBRANCH   2   8
BRANCH   5  17
ATOM     16  O   UNL     1      31.154  -8.343 -24.204  0.00  0.00    -0.269 OA
ATOM     17  N   UNL     1      32.439  -9.161 -22.421  0.00  0.00    -0.279 N 
ATOM     18  C   UNL     1      31.692  -8.213 -23.109  0.00  0.00    +0.262 C 
ATOM     19  H   UNL     1      32.801  -8.883 -21.548  0.00  0.00    +0.155 HD
BRANCH  18  20
ATOM     20  C   UNL     1      31.584  -6.913 -22.356  0.00  0.00    +0.151 C 
ATOM     21  C   UNL     1      31.116  -5.825 -23.002  0.00  0.00    +0.126 C 
ATOM     22  C   UNL     1      30.964  -4.454 -22.400  0.00  0.00    +0.072 C 
BRANCH  21  23
ATOM     23  O   UNL     1      30.701  -5.903 -24.322  0.00  0.00    -0.509 OA
ATOM     24  H   UNL     1      31.064  -6.555 -24.889  0.00  0.00    +0.292 HD
ENDBRANCH  21  23
BRANCH  20  26
ATOM     25  N   UNL     1      32.328  -6.836 -19.877  0.00  0.00    -0.191 NA
ATOM     26  C   UNL     1      31.994  -6.864 -20.988  0.00  0.00    +0.108 C 
ENDBRANCH  20  26
ENDBRANCH  18  20
ENDBRANCH   5  17
TORSDOF 6
ENDMDL
