MODEL 1
REMARK VINA RESULT:      -7.0      0.000      0.000
REMARK  Name = 6140
REMARK  5 active torsions:
REMARK  status: ('A' for Active; 'I' for Inactive)
REMARK    1  A    between atoms: CA_1  and  N_2
REMARK    2  A    between atoms: CA_1  and  C_7
REMARK    3  A    between atoms: CA_1  and  CB_10
REMARK    4  A    between atoms: C_7  and  O_8
REMARK    5  A    between atoms: CB_10  and  CG_11
REMARK                            x       y       z     vdW  Elec       q    Type
REMARK                         _______ _______ _______ _____ _____    ______ ____
ROOT
ATOM      1  CA  PHE A   1      34.589 -18.344 -23.555  0.00  0.00    +0.040 C 
ENDROOT
BRANCH   1   2
ATOM      2  N   PHE A   1      34.918 -19.533 -24.339  0.00  0.00    +0.389 N 
ATOM      3  H1  PHE A   1      35.754 -19.354 -24.893  0.00  0.00    -0.088 HD
ATOM      4  H2  PHE A   1      34.139 -19.756 -24.960  0.00  0.00    -0.088 HD
ATOM      5  H3  PHE A   1      35.088 -20.318 -23.711  0.00  0.00    -0.088 HD
ENDBRANCH   1   2
BRANCH   1   7
ATOM      6  OXT PHE A   1      34.711 -16.997 -25.581  0.00  0.00    -0.253 OA
ATOM      7  C   PHE A   1      34.988 -17.145 -24.397  0.00  0.00    +0.293 C 
BRANCH   7   8
ATOM      8  O   PHE A   1      35.669 -16.214 -23.681  0.00  0.00    -0.482 OA
ATOM      9  H   PHE A   1      35.728 -16.290 -22.748  0.00  0.00    +0.295 HD
ENDBRANCH   7   8
ENDBRANCH   1   7
BRANCH   1  10
ATOM     10  CB  PHE A   1      35.338 -18.383 -22.214  0.00  0.00    +0.015 C 
BRANCH  10  11
ATOM     11  CG  PHE A   1      34.790 -19.423 -21.265  0.00  0.00    -0.024 C 
ATOM     12  CD1 PHE A   1      33.424 -19.483 -21.040  0.00  0.00    -0.004 C 
ATOM     13  CD2 PHE A   1      35.663 -20.296 -20.638  0.00  0.00    -0.004 C 
ATOM     14  CE1 PHE A   1      32.918 -20.444 -20.164  0.00  0.00    -0.000 C 
ATOM     15  CE2 PHE A   1      35.158 -21.257 -19.762  0.00  0.00    -0.000 C 
ATOM     16  CZ  PHE A   1      33.785 -21.330 -19.525  0.00  0.00    -0.000 C 
ENDBRANCH  10  11
ENDBRANCH   1  10
TORSDOF 5
ENDMDL
MODEL 2
REMARK VINA RESULT:      -7.0      1.452      1.894
REMARK  Name = 6140
REMARK  5 active torsions:
REMARK  status: ('A' for Active; 'I' for Inactive)
REMARK    1  A    between atoms: CA_1  and  N_2
REMARK    2  A    between atoms: CA_1  and  C_7
REMARK    3  A    between atoms: CA_1  and  CB_10
REMARK    4  A    between atoms: C_7  and  O_8
REMARK    5  A    between atoms: CB_10  and  CG_11
REMARK                            x       y       z     vdW  Elec       q    Type
REMARK                         _______ _______ _______ _____ _____    ______ ____
ROOT
ATOM      1  CA  PHE A   1      34.912 -17.595 -22.502  0.00  0.00    +0.040 C 
ENDROOT
BRANCH   1   2
ATOM      2  N   PHE A   1      35.394 -17.408 -23.870  0.00  0.00    +0.389 N 
ATOM      3  H1  PHE A   1      34.608 -17.465 -24.517  0.00  0.00    -0.088 HD
ATOM      4  H2  PHE A   1      36.073 -18.136 -24.093  0.00  0.00    -0.088 HD
ATOM      5  H3  PHE A   1      35.837 -16.493 -23.951  0.00  0.00    -0.088 HD
ENDBRANCH   1   2
BRANCH   1   7
ATOM      6  OXT PHE A   1      34.938 -16.033 -20.633  0.00  0.00    -0.253 OA
ATOM      7  C   PHE A   1      34.938 -16.227 -21.842  0.00  0.00    +0.293 C 
BRANCH   7   8
ATOM      8  O   PHE A   1      34.995 -15.217 -22.748  0.00  0.00    -0.482 OA
ATOM      9  H   PHE A   1      34.977 -15.408 -23.665  0.00  0.00    +0.295 HD
ENDBRANCH   7   8
ENDBRANCH   1   7
BRANCH   1  10
ATOM     10  CB  PHE A   1      35.806 -18.607 -21.770  0.00  0.00    +0.015 C 
BRANCH  10  11
ATOM     11  CG  PHE A   1      35.017 -19.617 -20.969  0.00  0.00    -0.024 C 
ATOM     12  CD1 PHE A   1      33.633 -19.549 -20.969  0.00  0.00    -0.004 C 
ATOM     13  CD2 PHE A   1      35.693 -20.590 -20.252  0.00  0.00    -0.004 C 
ATOM     14  CE1 PHE A   1      32.905 -20.482 -20.230  0.00  0.00    -0.000 C 
ATOM     15  CE2 PHE A   1      34.964 -21.523 -19.514  0.00  0.00    -0.000 C 
ATOM     16  CZ  PHE A   1      33.571 -21.469 -19.502  0.00  0.00    -0.000 C 
ENDBRANCH  10  11
ENDBRANCH   1  10
TORSDOF 5
ENDMDL
MODEL 3
REMARK VINA RESULT:      -7.0      1.404      2.309
REMARK  Name = 6140
REMARK  5 active torsions:
REMARK  status: ('A' for Active; 'I' for Inactive)
REMARK    1  A    between atoms: CA_1  and  N_2
REMARK    2  A    between atoms: CA_1  and  C_7
REMARK    3  A    between atoms: CA_1  and  CB_10
REMARK    4  A    between atoms: C_7  and  O_8
REMARK    5  A    between atoms: CB_10  and  CG_11
REMARK                            x       y       z     vdW  Elec       q    Type
REMARK                         _______ _______ _______ _____ _____    ______ ____
ROOT
ATOM      1  CA  PHE A   1      34.973 -17.646 -22.531  0.00  0.00    +0.040 C 
ENDROOT
BRANCH   1   2
ATOM      2  N   PHE A   1      35.496 -17.518 -23.890  0.00  0.00    +0.389 N 
ATOM      3  H1  PHE A   1      36.405 -17.976 -23.948  0.00  0.00    -0.088 HD
ATOM      4  H2  PHE A   1      35.596 -16.529 -24.123  0.00  0.00    -0.088 HD
ATOM      5  H3  PHE A   1      34.850 -17.959 -24.545  0.00  0.00    -0.088 HD
ENDBRANCH   1   2
BRANCH   1   7
ATOM      6  OXT PHE A   1      34.984 -16.003 -20.733  0.00  0.00    -0.253 OA
ATOM      7  C   PHE A   1      34.973 -16.250 -21.931  0.00  0.00    +0.293 C 
BRANCH   7   8
ATOM      8  O   PHE A   1      34.995 -15.280 -22.882  0.00  0.00    -0.482 OA
ATOM      9  H   PHE A   1      35.723 -15.216 -23.470  0.00  0.00    +0.295 HD
ENDBRANCH   7   8
ENDBRANCH   1   7
BRANCH   1  10
ATOM     10  CB  PHE A   1      35.848 -18.621 -21.727  0.00  0.00    +0.015 C 
BRANCH  10  11
ATOM     11  CG  PHE A   1      35.038 -19.627 -20.943  0.00  0.00    -0.024 C 
ATOM     12  CD1 PHE A   1      35.694 -20.625 -20.240  0.00  0.00    -0.004 C 
ATOM     13  CD2 PHE A   1      33.656 -19.533 -20.943  0.00  0.00    -0.004 C 
ATOM     14  CE1 PHE A   1      34.947 -21.554 -19.515  0.00  0.00    -0.000 C 
ATOM     15  CE2 PHE A   1      32.909 -20.462 -20.218  0.00  0.00    -0.000 C 
ATOM     16  CZ  PHE A   1      33.554 -21.472 -19.505  0.00  0.00    -0.000 C 
ENDBRANCH  10  11
ENDBRANCH   1  10
TORSDOF 5
ENDMDL
MODEL 4
REMARK VINA RESULT:      -6.9      1.766      2.427
REMARK  Name = 6140
REMARK  5 active torsions:
REMARK  status: ('A' for Active; 'I' for Inactive)
REMARK    1  A    between atoms: CA_1  and  N_2
REMARK    2  A    between atoms: CA_1  and  C_7
REMARK    3  A    between atoms: CA_1  and  CB_10
REMARK    4  A    between atoms: C_7  and  O_8
REMARK    5  A    between atoms: CB_10  and  CG_11
REMARK                            x       y       z     vdW  Elec       q    Type
REMARK                         _______ _______ _______ _____ _____    ______ ____
ROOT
ATOM      1  CA  PHE A   1      35.182 -17.633 -21.537  0.00  0.00    +0.040 C 
ENDROOT
BRANCH   1   2
ATOM      2  N   PHE A   1      34.905 -16.572 -20.571  0.00  0.00    +0.389 N 
ATOM      3  H1  PHE A   1      35.113 -15.667 -20.993  0.00  0.00    -0.088 HD
ATOM      4  H2  PHE A   1      35.487 -16.705 -19.744  0.00  0.00    -0.088 HD
ATOM      5  H3  PHE A   1      33.921 -16.604 -20.304  0.00  0.00    -0.088 HD
ENDBRANCH   1   2
BRANCH   1   7
ATOM      6  OXT PHE A   1      35.283 -15.752 -23.080  0.00  0.00    -0.253 OA
ATOM      7  C   PHE A   1      35.366 -16.957 -22.885  0.00  0.00    +0.293 C 
BRANCH   7   8
ATOM      8  O   PHE A   1      35.673 -17.842 -23.869  0.00  0.00    -0.482 OA
ATOM      9  H   PHE A   1      35.247 -18.676 -23.899  0.00  0.00    +0.295 HD
ENDBRANCH   7   8
ENDBRANCH   1   7
BRANCH   1  10
ATOM     10  CB  PHE A   1      34.021 -18.640 -21.550  0.00  0.00    +0.015 C 
BRANCH  10  11
ATOM     11  CG  PHE A   1      34.294 -19.862 -20.703  0.00  0.00    -0.024 C 
ATOM     12  CD1 PHE A   1      35.604 -20.254 -20.481  0.00  0.00    -0.004 C 
ATOM     13  CD2 PHE A   1      33.229 -20.565 -20.165  0.00  0.00    -0.004 C 
ATOM     14  CE1 PHE A   1      35.856 -21.381 -19.698  0.00  0.00    -0.000 C 
ATOM     15  CE2 PHE A   1      33.480 -21.693 -19.382  0.00  0.00    -0.000 C 
ATOM     16  CZ  PHE A   1      34.793 -22.101 -19.150  0.00  0.00    -0.000 C 
ENDBRANCH  10  11
ENDBRANCH   1  10
TORSDOF 5
ENDMDL
MODEL 5
REMARK VINA RESULT:      -6.4      3.329      5.137
REMARK  Name = 6140
REMARK  5 active torsions:
REMARK  status: ('A' for Active; 'I' for Inactive)
REMARK    1  A    between atoms: CA_1  and  N_2
REMARK    2  A    between atoms: CA_1  and  C_7
REMARK    3  A    between atoms: CA_1  and  CB_10
REMARK    4  A    between atoms: C_7  and  O_8
REMARK    5  A    between atoms: CB_10  and  CG_11
REMARK                            x       y       z     vdW  Elec       q    Type
REMARK                         _______ _______ _______ _____ _____    ______ ____
ROOT
ATOM      1  CA  PHE A   1      34.866 -20.331 -20.797  0.00  0.00    +0.040 C 
ENDROOT
BRANCH   1   2
ATOM      2  N   PHE A   1      33.497 -20.228 -20.295  0.00  0.00    +0.389 N 
ATOM      3  H1  PHE A   1      33.020 -21.120 -20.425  0.00  0.00    -0.088 HD
ATOM      4  H2  PHE A   1      33.002 -19.498 -20.808  0.00  0.00    -0.088 HD
ATOM      5  H3  PHE A   1      33.516 -19.994 -19.303  0.00  0.00    -0.088 HD
ENDBRANCH   1   2
BRANCH   1   7
ATOM      6  OXT PHE A   1      36.576 -20.620 -19.086  0.00  0.00    -0.253 OA
ATOM      7  C   PHE A   1      35.658 -21.090 -19.746  0.00  0.00    +0.293 C 
BRANCH   7   8
ATOM      8  O   PHE A   1      35.213 -22.363 -19.583  0.00  0.00    -0.482 OA
ATOM      9  H   PHE A   1      35.038 -22.898 -20.333  0.00  0.00    +0.295 HD
ENDBRANCH   7   8
ENDBRANCH   1   7
BRANCH   1  10
ATOM     10  CB  PHE A   1      35.436 -18.926 -21.046  0.00  0.00    +0.015 C 
BRANCH  10  11
ATOM     11  CG  PHE A   1      35.131 -18.406 -22.431  0.00  0.00    -0.024 C 
ATOM     12  CD1 PHE A   1      35.179 -17.041 -22.668  0.00  0.00    -0.004 C 
ATOM     13  CD2 PHE A   1      34.811 -19.303 -23.437  0.00  0.00    -0.004 C 
ATOM     14  CE1 PHE A   1      34.898 -16.561 -23.948  0.00  0.00    -0.000 C 
ATOM     15  CE2 PHE A   1      34.530 -18.823 -24.716  0.00  0.00    -0.000 C 
ATOM     16  CZ  PHE A   1      34.573 -17.452 -24.972  0.00  0.00    -0.000 C 
ENDBRANCH  10  11
ENDBRANCH   1  10
TORSDOF 5
ENDMDL
MODEL 6
REMARK VINA RESULT:      -6.3      3.605      4.785
REMARK  Name = 6140
REMARK  5 active torsions:
REMARK  status: ('A' for Active; 'I' for Inactive)
REMARK    1  A    between atoms: CA_1  and  N_2
REMARK    2  A    between atoms: CA_1  and  C_7
REMARK    3  A    between atoms: CA_1  and  CB_10
REMARK    4  A    between atoms: C_7  and  O_8
REMARK    5  A    between atoms: CB_10  and  CG_11
REMARK                            x       y       z     vdW  Elec       q    Type
REMARK                         _______ _______ _______ _____ _____    ______ ____
ROOT
ATOM      1  CA  PHE A   1      33.603 -14.352 -23.341  0.00  0.00    +0.040 C 
ENDROOT
BRANCH   1   2
ATOM      2  N   PHE A   1      34.086 -12.999 -23.614  0.00  0.00    +0.389 N 
ATOM      3  H1  PHE A   1      33.418 -12.515 -24.214  0.00  0.00    -0.088 HD
ATOM      4  H2  PHE A   1      34.991 -13.050 -24.084  0.00  0.00    -0.088 HD
ATOM      5  H3  PHE A   1      34.185 -12.490 -22.736  0.00  0.00    -0.088 HD
ENDBRANCH   1   2
BRANCH   1   7
ATOM      6  OXT PHE A   1      32.154 -15.046 -21.511  0.00  0.00    -0.253 OA
ATOM      7  C   PHE A   1      32.456 -14.212 -22.354  0.00  0.00    +0.293 C 
BRANCH   7   8
ATOM      8  O   PHE A   1      31.806 -13.027 -22.483  0.00  0.00    -0.482 OA
ATOM      9  H   PHE A   1      32.291 -12.240 -22.633  0.00  0.00    +0.295 HD
ENDBRANCH   7   8
ENDBRANCH   1   7
BRANCH   1  10
ATOM     10  CB  PHE A   1      34.748 -15.208 -22.779  0.00  0.00    +0.015 C 
BRANCH  10  11
ATOM     11  CG  PHE A   1      34.741 -16.622 -23.312  0.00  0.00    -0.024 C 
ATOM     12  CD1 PHE A   1      34.978 -17.675 -22.443  0.00  0.00    -0.004 C 
ATOM     13  CD2 PHE A   1      34.497 -16.837 -24.658  0.00  0.00    -0.004 C 
ATOM     14  CE1 PHE A   1      34.971 -18.980 -22.936  0.00  0.00    -0.000 C 
ATOM     15  CE2 PHE A   1      34.490 -18.142 -25.151  0.00  0.00    -0.000 C 
ATOM     16  CZ  PHE A   1      34.727 -19.214 -24.290  0.00  0.00    -0.000 C 
ENDBRANCH  10  11
ENDBRANCH   1  10
TORSDOF 5
ENDMDL
MODEL 7
REMARK VINA RESULT:      -6.3      5.497      6.988
REMARK  Name = 6140
REMARK  5 active torsions:
REMARK  status: ('A' for Active; 'I' for Inactive)
REMARK    1  A    between atoms: CA_1  and  N_2
REMARK    2  A    between atoms: CA_1  and  C_7
REMARK    3  A    between atoms: CA_1  and  CB_10
REMARK    4  A    between atoms: C_7  and  O_8
REMARK    5  A    between atoms: CB_10  and  CG_11
REMARK                            x       y       z     vdW  Elec       q    Type
REMARK                         _______ _______ _______ _____ _____    ______ ____
ROOT
ATOM      1  CA  PHE A   1      33.393 -22.901 -16.969  0.00  0.00    +0.040 C 
ENDROOT
BRANCH   1   2
ATOM      2  N   PHE A   1      34.285 -23.713 -16.144  0.00  0.00    +0.389 N 
ATOM      3  H1  PHE A   1      34.921 -23.103 -15.630  0.00  0.00    -0.088 HD
ATOM      4  H2  PHE A   1      34.825 -24.340 -16.742  0.00  0.00    -0.088 HD
ATOM      5  H3  PHE A   1      33.733 -24.262 -15.485  0.00  0.00    -0.088 HD
ENDBRANCH   1   2
BRANCH   1   7
ATOM      6  OXT PHE A   1      31.686 -24.006 -15.629  0.00  0.00    -0.253 OA
ATOM      7  C   PHE A   1      31.977 -23.216 -16.517  0.00  0.00    +0.293 C 
BRANCH   7   8
ATOM      8  O   PHE A   1      31.047 -22.491 -17.190  0.00  0.00    -0.482 OA
ATOM      9  H   PHE A   1      30.329 -22.104 -16.727  0.00  0.00    +0.295 HD
ENDBRANCH   7   8
ENDBRANCH   1   7
BRANCH   1  10
ATOM     10  CB  PHE A   1      33.612 -23.232 -18.453  0.00  0.00    +0.015 C 
BRANCH  10  11
ATOM     11  CG  PHE A   1      34.090 -22.044 -19.255  0.00  0.00    -0.024 C 
ATOM     12  CD1 PHE A   1      33.159 -21.175 -19.799  0.00  0.00    -0.004 C 
ATOM     13  CD2 PHE A   1      35.450 -21.848 -19.431  0.00  0.00    -0.004 C 
ATOM     14  CE1 PHE A   1      33.601 -20.078 -20.540  0.00  0.00    -0.000 C 
ATOM     15  CE2 PHE A   1      35.892 -20.751 -20.171  0.00  0.00    -0.000 C 
ATOM     16  CZ  PHE A   1      34.967 -19.866 -20.726  0.00  0.00    -0.000 C 
ENDBRANCH  10  11
ENDBRANCH   1  10
TORSDOF 5
ENDMDL
MODEL 8
REMARK VINA RESULT:      -6.2      3.812      5.300
REMARK  Name = 6140
REMARK  5 active torsions:
REMARK  status: ('A' for Active; 'I' for Inactive)
REMARK    1  A    between atoms: CA_1  and  N_2
REMARK    2  A    between atoms: CA_1  and  C_7
REMARK    3  A    between atoms: CA_1  and  CB_10
REMARK    4  A    between atoms: C_7  and  O_8
REMARK    5  A    between atoms: CB_10  and  CG_11
REMARK                            x       y       z     vdW  Elec       q    Type
REMARK                         _______ _______ _______ _____ _____    ______ ____
ROOT
ATOM      1  CA  PHE A   1      34.077 -21.206 -20.243  0.00  0.00    +0.040 C 
ENDROOT
BRANCH   1   2
ATOM      2  N   PHE A   1      32.846 -20.623 -19.712  0.00  0.00    +0.389 N 
ATOM      3  H1  PHE A   1      32.977 -20.394 -18.727  0.00  0.00    -0.088 HD
ATOM      4  H2  PHE A   1      32.084 -21.294 -19.808  0.00  0.00    -0.088 HD
ATOM      5  H3  PHE A   1      32.621 -19.774 -20.231  0.00  0.00    -0.088 HD
ENDBRANCH   1   2
BRANCH   1   7
ATOM      6  OXT PHE A   1      33.780 -23.443 -19.326  0.00  0.00    -0.253 OA
ATOM      7  C   PHE A   1      34.411 -22.395 -19.358  0.00  0.00    +0.293 C 
BRANCH   7   8
ATOM      8  O   PHE A   1      35.526 -22.186 -18.611  0.00  0.00    -0.482 OA
ATOM      9  H   PHE A   1      36.023 -22.915 -18.296  0.00  0.00    +0.295 HD
ENDBRANCH   7   8
ENDBRANCH   1   7
BRANCH   1  10
ATOM     10  CB  PHE A   1      35.195 -20.152 -20.240  0.00  0.00    +0.015 C 
BRANCH  10  11
ATOM     11  CG  PHE A   1      35.064 -19.154 -21.367  0.00  0.00    -0.024 C 
ATOM     12  CD1 PHE A   1      34.850 -19.612 -22.657  0.00  0.00    -0.004 C 
ATOM     13  CD2 PHE A   1      35.159 -17.801 -21.089  0.00  0.00    -0.004 C 
ATOM     14  CE1 PHE A   1      34.728 -18.690 -23.697  0.00  0.00    -0.000 C 
ATOM     15  CE2 PHE A   1      35.037 -16.879 -22.129  0.00  0.00    -0.000 C 
ATOM     16  CZ  PHE A   1      34.823 -17.324 -23.433  0.00  0.00    -0.000 C 
ENDBRANCH  10  11
ENDBRANCH   1  10
TORSDOF 5
ENDMDL
MODEL 9
REMARK VINA RESULT:      -6.2      3.182      5.053
REMARK  Name = 6140
REMARK  5 active torsions:
REMARK  status: ('A' for Active; 'I' for Inactive)
REMARK    1  A    between atoms: CA_1  and  N_2
REMARK    2  A    between atoms: CA_1  and  C_7
REMARK    3  A    between atoms: CA_1  and  CB_10
REMARK    4  A    between atoms: C_7  and  O_8
REMARK    5  A    between atoms: CB_10  and  CG_11
REMARK                            x       y       z     vdW  Elec       q    Type
REMARK                         _______ _______ _______ _____ _____    ______ ____
ROOT
ATOM      1  CA  PHE A   1      34.553 -19.855 -20.534  0.00  0.00    +0.040 C 
ENDROOT
BRANCH   1   2
ATOM      2  N   PHE A   1      35.629 -20.571 -19.851  0.00  0.00    +0.389 N 
ATOM      3  H1  PHE A   1      36.341 -19.907 -19.548  0.00  0.00    -0.088 HD
ATOM      4  H2  PHE A   1      36.046 -21.248 -20.492  0.00  0.00    -0.088 HD
ATOM      5  H3  PHE A   1      35.251 -21.059 -19.039  0.00  0.00    -0.088 HD
ENDBRANCH   1   2
BRANCH   1   7
ATOM      6  OXT PHE A   1      33.139 -21.428 -19.326  0.00  0.00    -0.253 OA
ATOM      7  C   PHE A   1      33.267 -20.599 -20.218  0.00  0.00    +0.293 C 
BRANCH   7   8
ATOM      8  O   PHE A   1      32.240 -20.220 -21.021  0.00  0.00    -0.482 OA
ATOM      9  H   PHE A   1      32.269 -19.392 -21.460  0.00  0.00    +0.295 HD
ENDBRANCH   7   8
ENDBRANCH   1   7
BRANCH   1  10
ATOM     10  CB  PHE A   1      34.837 -19.806 -22.043  0.00  0.00    +0.015 C 
BRANCH  10  11
ATOM     11  CG  PHE A   1      34.827 -18.401 -22.598  0.00  0.00    -0.024 C 
ATOM     12  CD1 PHE A   1      34.878 -18.213 -23.970  0.00  0.00    -0.004 C 
ATOM     13  CD2 PHE A   1      34.767 -17.328 -21.724  0.00  0.00    -0.004 C 
ATOM     14  CE1 PHE A   1      34.868 -16.916 -24.481  0.00  0.00    -0.000 C 
ATOM     15  CE2 PHE A   1      34.757 -16.030 -22.236  0.00  0.00    -0.000 C 
ATOM     16  CZ  PHE A   1      34.809 -15.824 -23.614  0.00  0.00    -0.000 C 
ENDBRANCH  10  11
ENDBRANCH   1  10
TORSDOF 5
ENDMDL
