MODEL 1
REMARK VINA RESULT:     -10.4      0.000      0.000
REMARK  Name = 12555
REMARK  7 active torsions:
REMARK  status: ('A' for Active; 'I' for Inactive)
REMARK    1  A    between atoms: N_1  and  C_18
REMARK    2  A    between atoms: C_5  and  O_10
REMARK    3  A    between atoms: O_10  and  C_11
REMARK    4  A    between atoms: C_11  and  C_12
REMARK    5  A    between atoms: C_12  and  C_13
REMARK    6  A    between atoms: C_13  and  N_14
REMARK    7  A    between atoms: C_18  and  C_19
REMARK                            x       y       z     vdW  Elec       q    Type
REMARK                         _______ _______ _______ _____ _____    ______ ____
ROOT
ATOM      1  N   UNL     1      35.522 -17.771 -21.571  0.00  0.00    -0.244 N 
ATOM      2  N   UNL     1      35.238 -16.852 -20.633  0.00  0.00    -0.131 NA
ATOM      3  C   UNL     1      35.102 -17.436 -22.829  0.00  0.00    +0.083 A 
ATOM      4  C   UNL     1      34.493 -16.193 -22.694  0.00  0.00    +0.072 A 
ATOM      5  C   UNL     1      34.612 -15.894 -21.319  0.00  0.00    +0.243 A 
ATOM      6  C   UNL     1      35.203 -18.105 -24.051  0.00  0.00    +0.019 C 
ATOM      7  C   UNL     1      33.948 -15.566 -23.826  0.00  0.00    +0.006 C 
ATOM      8  C   UNL     1      34.655 -17.468 -25.170  0.00  0.00    +0.002 C 
ATOM      9  C   UNL     1      34.038 -16.220 -25.062  0.00  0.00    +0.000 C 
ENDROOT
BRANCH   5  10
ATOM     10  O   UNL     1      34.185 -14.808 -20.661  0.00  0.00    -0.459 OA
BRANCH  10  11
ATOM     11  C   UNL     1      32.771 -14.660 -20.490  0.00  0.00    +0.205 C 
BRANCH  11  12
ATOM     12  C   UNL     1      32.410 -13.187 -20.619  0.00  0.00    +0.025 C 
BRANCH  12  13
ATOM     13  C   UNL     1      32.099 -12.810 -22.064  0.00  0.00    -0.074 C 
BRANCH  13  14
ATOM     14  N   UNL     1      31.257 -11.620 -22.106  0.00  0.00    +0.384 N 
ATOM     15  C   UNL     1      30.740 -11.306 -20.774  0.00  0.00    -0.101 C 
ATOM     16  C   UNL     1      32.003 -10.480 -22.643  0.00  0.00    -0.101 C 
ATOM     17  H   UNL     1      30.468 -11.810 -22.725  0.00  0.00    -0.080 HD
ENDBRANCH  13  14
ENDBRANCH  12  13
ENDBRANCH  11  12
ENDBRANCH  10  11
ENDBRANCH   5  10
BRANCH   1  18
ATOM     18  C   UNL     1      36.216 -18.979 -21.185  0.00  0.00    +0.154 C 
BRANCH  18  19
ATOM     19  C   UNL     1      35.279 -19.970 -20.549  0.00  0.00    +0.002 C 
ATOM     20  C   UNL     1      33.910 -19.836 -20.738  0.00  0.00    -0.002 C 
ATOM     21  C   UNL     1      35.797 -21.006 -19.783  0.00  0.00    -0.002 C 
ATOM     22  C   UNL     1      33.043 -20.756 -20.148  0.00  0.00    -0.000 C 
ATOM     23  C   UNL     1      34.929 -21.925 -19.194  0.00  0.00    -0.000 C 
ATOM     24  C   UNL     1      33.551 -21.801 -19.377  0.00  0.00    -0.000 C 
ENDBRANCH  18  19
ENDBRANCH   1  18
TORSDOF 7
ENDMDL
MODEL 2
REMARK VINA RESULT:     -10.1      0.239      1.035
REMARK  Name = 12555
REMARK  7 active torsions:
REMARK  status: ('A' for Active; 'I' for Inactive)
REMARK    1  A    between atoms: N_1  and  C_18
REMARK    2  A    between atoms: C_5  and  O_10
REMARK    3  A    between atoms: O_10  and  C_11
REMARK    4  A    between atoms: C_11  and  C_12
REMARK    5  A    between atoms: C_12  and  C_13
REMARK    6  A    between atoms: C_13  and  N_14
REMARK    7  A    between atoms: C_18  and  C_19
REMARK                            x       y       z     vdW  Elec       q    Type
REMARK                         _______ _______ _______ _____ _____    ______ ____
ROOT
ATOM      1  N   UNL     1      35.547 -17.845 -21.626  0.00  0.00    -0.244 N 
ATOM      2  N   UNL     1      35.302 -16.876 -20.729  0.00  0.00    -0.131 NA
ATOM      3  C   UNL     1      35.122 -17.555 -22.894  0.00  0.00    +0.083 A 
ATOM      4  C   UNL     1      34.552 -16.290 -22.810  0.00  0.00    +0.072 A 
ATOM      5  C   UNL     1      34.697 -15.932 -21.451  0.00  0.00    +0.243 A 
ATOM      6  C   UNL     1      35.189 -18.281 -24.085  0.00  0.00    +0.019 C 
ATOM      7  C   UNL     1      34.013 -15.699 -23.964  0.00  0.00    +0.006 C 
ATOM      8  C   UNL     1      34.648 -17.680 -25.226  0.00  0.00    +0.002 C 
ATOM      9  C   UNL     1      34.069 -16.411 -25.169  0.00  0.00    +0.000 C 
ENDROOT
BRANCH   5  10
ATOM     10  O   UNL     1      34.310 -14.805 -20.839  0.00  0.00    -0.459 OA
BRANCH  10  11
ATOM     11  C   UNL     1      32.997 -14.788 -20.267  0.00  0.00    +0.205 C 
BRANCH  11  12
ATOM     12  C   UNL     1      32.382 -13.412 -20.484  0.00  0.00    +0.025 C 
BRANCH  12  13
ATOM     13  C   UNL     1      32.028 -13.182 -21.950  0.00  0.00    -0.074 C 
BRANCH  13  14
ATOM     14  N   UNL     1      31.444 -11.857 -22.127  0.00  0.00    +0.384 N 
ATOM     15  C   UNL     1      31.063 -11.285 -20.835  0.00  0.00    -0.101 C 
ATOM     16  C   UNL     1      32.381 -10.969 -22.818  0.00  0.00    -0.101 C 
ATOM     17  H   UNL     1      30.606 -11.953 -22.700  0.00  0.00    -0.080 HD
ENDBRANCH  13  14
ENDBRANCH  12  13
ENDBRANCH  11  12
ENDBRANCH  10  11
ENDBRANCH   5  10
BRANCH   1  18
ATOM     18  C   UNL     1      36.209 -19.054 -21.193  0.00  0.00    +0.154 C 
BRANCH  18  19
ATOM     19  C   UNL     1      35.241 -20.009 -20.546  0.00  0.00    +0.002 C 
ATOM     20  C   UNL     1      35.723 -21.021 -19.728  0.00  0.00    -0.002 C 
ATOM     21  C   UNL     1      33.880 -19.862 -20.775  0.00  0.00    -0.002 C 
ATOM     22  C   UNL     1      34.826 -21.905 -19.129  0.00  0.00    -0.000 C 
ATOM     23  C   UNL     1      32.983 -20.746 -20.176  0.00  0.00    -0.000 C 
ATOM     24  C   UNL     1      33.456 -21.768 -19.352  0.00  0.00    -0.000 C 
ENDBRANCH  18  19
ENDBRANCH   1  18
TORSDOF 7
ENDMDL
MODEL 3
REMARK VINA RESULT:      -9.4      6.089     10.812
REMARK  Name = 12555
REMARK  7 active torsions:
REMARK  status: ('A' for Active; 'I' for Inactive)
REMARK    1  A    between atoms: N_1  and  C_18
REMARK    2  A    between atoms: C_5  and  O_10
REMARK    3  A    between atoms: O_10  and  C_11
REMARK    4  A    between atoms: C_11  and  C_12
REMARK    5  A    between atoms: C_12  and  C_13
REMARK    6  A    between atoms: C_13  and  N_14
REMARK    7  A    between atoms: C_18  and  C_19
REMARK                            x       y       z     vdW  Elec       q    Type
REMARK                         _______ _______ _______ _____ _____    ______ ____
ROOT
ATOM      1  N   UNL     1      33.824 -23.355 -17.273  0.00  0.00    -0.244 N 
ATOM      2  N   UNL     1      34.976 -23.370 -16.584  0.00  0.00    -0.131 NA
ATOM      3  C   UNL     1      32.707 -23.205 -16.497  0.00  0.00    +0.083 A 
ATOM      4  C   UNL     1      33.178 -23.117 -15.192  0.00  0.00    +0.072 A 
ATOM      5  C   UNL     1      34.580 -23.226 -15.318  0.00  0.00    +0.243 A 
ATOM      6  C   UNL     1      31.351 -23.141 -16.823  0.00  0.00    +0.019 C 
ATOM      7  C   UNL     1      32.262 -22.955 -14.139  0.00  0.00    +0.006 C 
ATOM      8  C   UNL     1      30.451 -22.980 -15.764  0.00  0.00    +0.002 C 
ATOM      9  C   UNL     1      30.896 -22.889 -14.444  0.00  0.00    +0.000 C 
ENDROOT
BRANCH   5  10
ATOM     10  O   UNL     1      35.509 -23.201 -14.353  0.00  0.00    -0.459 OA
BRANCH  10  11
ATOM     11  C   UNL     1      36.880 -23.151 -14.765  0.00  0.00    +0.205 C 
BRANCH  11  12
ATOM     12  C   UNL     1      37.713 -23.995 -13.812  0.00  0.00    +0.025 C 
BRANCH  12  13
ATOM     13  C   UNL     1      38.440 -25.117 -14.547  0.00  0.00    -0.074 C 
BRANCH  13  14
ATOM     14  N   UNL     1      37.885 -26.412 -14.170  0.00  0.00    +0.384 N 
ATOM     15  C   UNL     1      37.287 -26.348 -12.836  0.00  0.00    -0.101 C 
ATOM     16  C   UNL     1      36.890 -26.851 -15.151  0.00  0.00    -0.101 C 
ATOM     17  H   UNL     1      38.646 -27.092 -14.154  0.00  0.00    -0.080 HD
ENDBRANCH  13  14
ENDBRANCH  12  13
ENDBRANCH  11  12
ENDBRANCH  10  11
ENDBRANCH   5  10
BRANCH   1  18
ATOM     18  C   UNL     1      33.863 -23.492 -18.712  0.00  0.00    +0.154 C 
BRANCH  18  19
ATOM     19  C   UNL     1      34.133 -22.171 -19.381  0.00  0.00    +0.002 C 
ATOM     20  C   UNL     1      35.444 -21.777 -19.614  0.00  0.00    -0.002 C 
ATOM     21  C   UNL     1      33.068 -21.365 -19.758  0.00  0.00    -0.002 C 
ATOM     22  C   UNL     1      35.693 -20.553 -20.235  0.00  0.00    -0.000 C 
ATOM     23  C   UNL     1      33.317 -20.141 -20.378  0.00  0.00    -0.000 C 
ATOM     24  C   UNL     1      34.631 -19.735 -20.617  0.00  0.00    -0.000 C 
ENDBRANCH  18  19
ENDBRANCH   1  18
TORSDOF 7
ENDMDL
MODEL 4
REMARK VINA RESULT:      -8.9      3.887      6.380
REMARK  Name = 12555
REMARK  7 active torsions:
REMARK  status: ('A' for Active; 'I' for Inactive)
REMARK    1  A    between atoms: N_1  and  C_18
REMARK    2  A    between atoms: C_5  and  O_10
REMARK    3  A    between atoms: O_10  and  C_11
REMARK    4  A    between atoms: C_11  and  C_12
REMARK    5  A    between atoms: C_12  and  C_13
REMARK    6  A    between atoms: C_13  and  N_14
REMARK    7  A    between atoms: C_18  and  C_19
REMARK                            x       y       z     vdW  Elec       q    Type
REMARK                         _______ _______ _______ _____ _____    ______ ____
ROOT
ATOM      1  N   UNL     1      32.404 -11.976 -23.176  0.00  0.00    -0.244 N 
ATOM      2  N   UNL     1      31.667 -11.316 -22.268  0.00  0.00    -0.131 NA
ATOM      3  C   UNL     1      33.347 -11.205 -23.799  0.00  0.00    +0.083 A 
ATOM      4  C   UNL     1      33.207  -9.936 -23.248  0.00  0.00    +0.072 A 
ATOM      5  C   UNL     1      32.157 -10.076 -22.314  0.00  0.00    +0.243 A 
ATOM      6  C   UNL     1      34.293 -11.506 -24.782  0.00  0.00    +0.019 C 
ATOM      7  C   UNL     1      34.045  -8.898 -23.685  0.00  0.00    +0.006 C 
ATOM      8  C   UNL     1      35.121 -10.462 -25.207  0.00  0.00    +0.002 C 
ATOM      9  C   UNL     1      35.001  -9.180 -24.670  0.00  0.00    +0.000 C 
ENDROOT
BRANCH   5  10
ATOM     10  O   UNL     1      31.625  -9.145 -21.510  0.00  0.00    -0.459 OA
BRANCH  10  11
ATOM     11  C   UNL     1      32.426  -8.694 -20.411  0.00  0.00    +0.205 C 
BRANCH  11  12
ATOM     12  C   UNL     1      32.280  -7.185 -20.282  0.00  0.00    +0.025 C 
BRANCH  12  13
ATOM     13  C   UNL     1      32.391  -6.493 -21.636  0.00  0.00    -0.074 C 
BRANCH  13  14
ATOM     14  N   UNL     1      31.085  -6.435 -22.283  0.00  0.00    +0.384 N 
ATOM     15  C   UNL     1      30.360  -5.231 -21.875  0.00  0.00    -0.101 C 
ATOM     16  C   UNL     1      31.229  -6.471 -23.740  0.00  0.00    -0.101 C 
ATOM     17  H   UNL     1      30.549  -7.253 -21.991  0.00  0.00    -0.080 HD
ENDBRANCH  13  14
ENDBRANCH  12  13
ENDBRANCH  11  12
ENDBRANCH  10  11
ENDBRANCH   5  10
BRANCH   1  18
ATOM     18  C   UNL     1      32.149 -13.380 -23.404  0.00  0.00    +0.154 C 
BRANCH  18  19
ATOM     19  C   UNL     1      33.017 -14.244 -22.529  0.00  0.00    +0.002 C 
ATOM     20  C   UNL     1      32.724 -14.360 -21.177  0.00  0.00    -0.002 C 
ATOM     21  C   UNL     1      34.097 -14.916 -23.086  0.00  0.00    -0.002 C 
ATOM     22  C   UNL     1      33.529 -15.161 -20.366  0.00  0.00    -0.000 C 
ATOM     23  C   UNL     1      34.901 -15.717 -22.275  0.00  0.00    -0.000 C 
ATOM     24  C   UNL     1      34.616 -15.840 -20.915  0.00  0.00    -0.000 C 
ENDBRANCH  18  19
ENDBRANCH   1  18
TORSDOF 7
ENDMDL
MODEL 5
REMARK VINA RESULT:      -8.8      2.595      7.927
REMARK  Name = 12555
REMARK  7 active torsions:
REMARK  status: ('A' for Active; 'I' for Inactive)
REMARK    1  A    between atoms: N_1  and  C_18
REMARK    2  A    between atoms: C_5  and  O_10
REMARK    3  A    between atoms: O_10  and  C_11
REMARK    4  A    between atoms: C_11  and  C_12
REMARK    5  A    between atoms: C_12  and  C_13
REMARK    6  A    between atoms: C_13  and  N_14
REMARK    7  A    between atoms: C_18  and  C_19
REMARK                            x       y       z     vdW  Elec       q    Type
REMARK                         _______ _______ _______ _____ _____    ______ ____
ROOT
ATOM      1  N   UNL     1      33.445 -14.227 -24.232  0.00  0.00    -0.244 N 
ATOM      2  N   UNL     1      34.272 -15.197 -24.655  0.00  0.00    -0.131 NA
ATOM      3  C   UNL     1      33.146 -14.287 -22.898  0.00  0.00    +0.083 A 
ATOM      4  C   UNL     1      33.839 -15.392 -22.416  0.00  0.00    +0.072 A 
ATOM      5  C   UNL     1      34.510 -15.904 -23.549  0.00  0.00    +0.243 A 
ATOM      6  C   UNL     1      32.342 -13.481 -22.088  0.00  0.00    +0.019 C 
ATOM      7  C   UNL     1      33.738 -15.729 -21.057  0.00  0.00    +0.006 C 
ATOM      8  C   UNL     1      32.251 -13.830 -20.737  0.00  0.00    +0.002 C 
ATOM      9  C   UNL     1      32.936 -14.934 -20.227  0.00  0.00    +0.000 C 
ENDROOT
BRANCH   5  10
ATOM     10  O   UNL     1      35.318 -16.970 -23.629  0.00  0.00    -0.459 OA
BRANCH  10  11
ATOM     11  C   UNL     1      34.764 -18.171 -24.179  0.00  0.00    +0.205 C 
BRANCH  11  12
ATOM     12  C   UNL     1      34.863 -19.280 -23.142  0.00  0.00    +0.025 C 
BRANCH  12  13
ATOM     13  C   UNL     1      35.679 -18.843 -21.930  0.00  0.00    -0.074 C 
BRANCH  13  14
ATOM     14  N   UNL     1      35.090 -19.373 -20.706  0.00  0.00    +0.384 N 
ATOM     15  C   UNL     1      33.662 -19.631 -20.890  0.00  0.00    -0.101 C 
ATOM     16  C   UNL     1      35.777 -20.598 -20.292  0.00  0.00    -0.101 C 
ATOM     17  H   UNL     1      35.203 -18.675 -19.970  0.00  0.00    -0.080 HD
ENDBRANCH  13  14
ENDBRANCH  12  13
ENDBRANCH  11  12
ENDBRANCH  10  11
ENDBRANCH   5  10
BRANCH   1  18
ATOM     18  C   UNL     1      32.965 -13.248 -25.181  0.00  0.00    +0.154 C 
BRANCH  18  19
ATOM     19  C   UNL     1      33.763 -11.974 -25.105  0.00  0.00    +0.002 C 
ATOM     20  C   UNL     1      33.601 -11.129 -24.015  0.00  0.00    -0.002 C 
ATOM     21  C   UNL     1      34.651 -11.661 -26.124  0.00  0.00    -0.002 C 
ATOM     22  C   UNL     1      34.340  -9.949 -23.945  0.00  0.00    -0.000 C 
ATOM     23  C   UNL     1      35.391 -10.481 -26.054  0.00  0.00    -0.000 C 
ATOM     24  C   UNL     1      35.236  -9.624 -24.963  0.00  0.00    -0.000 C 
ENDBRANCH  18  19
ENDBRANCH   1  18
TORSDOF 7
ENDMDL
MODEL 6
REMARK VINA RESULT:      -8.8      4.438      7.938
REMARK  Name = 12555
REMARK  7 active torsions:
REMARK  status: ('A' for Active; 'I' for Inactive)
REMARK    1  A    between atoms: N_1  and  C_18
REMARK    2  A    between atoms: C_5  and  O_10
REMARK    3  A    between atoms: O_10  and  C_11
REMARK    4  A    between atoms: C_11  and  C_12
REMARK    5  A    between atoms: C_12  and  C_13
REMARK    6  A    between atoms: C_13  and  N_14
REMARK    7  A    between atoms: C_18  and  C_19
REMARK                            x       y       z     vdW  Elec       q    Type
REMARK                         _______ _______ _______ _____ _____    ______ ____
ROOT
ATOM      1  N   UNL     1      33.143 -23.347 -16.535  0.00  0.00    -0.244 N 
ATOM      2  N   UNL     1      32.509 -23.078 -17.688  0.00  0.00    -0.131 NA
ATOM      3  C   UNL     1      34.462 -22.984 -16.522  0.00  0.00    +0.083 A 
ATOM      4  C   UNL     1      34.703 -22.434 -17.776  0.00  0.00    +0.072 A 
ATOM      5  C   UNL     1      33.460 -22.523 -18.441  0.00  0.00    +0.243 A 
ATOM      6  C   UNL     1      35.446 -23.090 -15.537  0.00  0.00    +0.019 C 
ATOM      7  C   UNL     1      35.987 -21.957 -18.084  0.00  0.00    +0.006 C 
ATOM      8  C   UNL     1      36.720 -22.611 -15.858  0.00  0.00    +0.002 C 
ATOM      9  C   UNL     1      36.989 -22.055 -17.110  0.00  0.00    +0.000 C 
ENDROOT
BRANCH   5  10
ATOM     10  O   UNL     1      33.148 -22.132 -19.684  0.00  0.00    -0.459 OA
BRANCH  10  11
ATOM     11  C   UNL     1      32.976 -20.727 -19.904  0.00  0.00    +0.205 C 
BRANCH  11  12
ATOM     12  C   UNL     1      34.210 -20.184 -20.611  0.00  0.00    +0.025 C 
BRANCH  12  13
ATOM     13  C   UNL     1      33.945 -18.815 -21.230  0.00  0.00    -0.074 C 
BRANCH  13  14
ATOM     14  N   UNL     1      35.168 -18.021 -21.245  0.00  0.00    +0.384 N 
ATOM     15  C   UNL     1      35.862 -18.168 -22.526  0.00  0.00    -0.101 C 
ATOM     16  C   UNL     1      34.870 -16.611 -20.988  0.00  0.00    -0.101 C 
ATOM     17  H   UNL     1      35.779 -18.364 -20.503  0.00  0.00    -0.080 HD
ENDBRANCH  13  14
ENDBRANCH  12  13
ENDBRANCH  11  12
ENDBRANCH  10  11
ENDBRANCH   5  10
BRANCH   1  18
ATOM     18  C   UNL     1      32.408 -23.967 -15.456  0.00  0.00    +0.154 C 
BRANCH  18  19
ATOM     19  C   UNL     1      30.931 -23.698 -15.572  0.00  0.00    +0.002 C 
ATOM     20  C   UNL     1      30.427 -22.468 -15.171  0.00  0.00    -0.002 C 
ATOM     21  C   UNL     1      30.095 -24.682 -16.080  0.00  0.00    -0.002 C 
ATOM     22  C   UNL     1      29.059 -22.219 -15.279  0.00  0.00    -0.000 C 
ATOM     23  C   UNL     1      28.727 -24.433 -16.188  0.00  0.00    -0.000 C 
ATOM     24  C   UNL     1      28.208 -23.201 -15.788  0.00  0.00    -0.000 C 
ENDBRANCH  18  19
ENDBRANCH   1  18
TORSDOF 7
ENDMDL
MODEL 7
REMARK VINA RESULT:      -8.6      5.140      9.488
REMARK  Name = 12555
REMARK  7 active torsions:
REMARK  status: ('A' for Active; 'I' for Inactive)
REMARK    1  A    between atoms: N_1  and  C_18
REMARK    2  A    between atoms: C_5  and  O_10
REMARK    3  A    between atoms: O_10  and  C_11
REMARK    4  A    between atoms: C_11  and  C_12
REMARK    5  A    between atoms: C_12  and  C_13
REMARK    6  A    between atoms: C_13  and  N_14
REMARK    7  A    between atoms: C_18  and  C_19
REMARK                            x       y       z     vdW  Elec       q    Type
REMARK                         _______ _______ _______ _____ _____    ______ ____
ROOT
ATOM      1  N   UNL     1      34.720 -22.547 -18.515  0.00  0.00    -0.244 N 
ATOM      2  N   UNL     1      33.446 -22.932 -18.336  0.00  0.00    -0.131 NA
ATOM      3  C   UNL     1      35.468 -22.531 -17.370  0.00  0.00    +0.083 A 
ATOM      4  C   UNL     1      34.603 -22.940 -16.361  0.00  0.00    +0.072 A 
ATOM      5  C   UNL     1      33.378 -23.170 -17.025  0.00  0.00    +0.243 A 
ATOM      6  C   UNL     1      36.805 -22.199 -17.137  0.00  0.00    +0.019 C 
ATOM      7  C   UNL     1      35.076 -23.030 -15.042  0.00  0.00    +0.006 C 
ATOM      8  C   UNL     1      37.261 -22.293 -15.818  0.00  0.00    +0.002 C 
ATOM      9  C   UNL     1      36.413 -22.701 -14.787  0.00  0.00    +0.000 C 
ENDROOT
BRANCH   5  10
ATOM     10  O   UNL     1      32.212 -23.580 -16.507  0.00  0.00    -0.459 OA
BRANCH  10  11
ATOM     11  C   UNL     1      31.057 -22.778 -16.779  0.00  0.00    +0.205 C 
BRANCH  11  12
ATOM     12  C   UNL     1      29.974 -23.111 -15.762  0.00  0.00    +0.025 C 
BRANCH  12  13
ATOM     13  C   UNL     1      30.540 -23.191 -14.348  0.00  0.00    -0.074 C 
BRANCH  13  14
ATOM     14  N   UNL     1      30.482 -24.564 -13.858  0.00  0.00    +0.384 N 
ATOM     15  C   UNL     1      29.755 -25.417 -14.798  0.00  0.00    -0.101 C 
ATOM     16  C   UNL     1      31.831 -25.088 -13.635  0.00  0.00    -0.101 C 
ATOM     17  H   UNL     1      29.985 -24.562 -12.967  0.00  0.00    -0.080 HD
ENDBRANCH  13  14
ENDBRANCH  12  13
ENDBRANCH  11  12
ENDBRANCH  10  11
ENDBRANCH   5  10
BRANCH   1  18
ATOM     18  C   UNL     1      35.169 -22.199 -19.844  0.00  0.00    +0.154 C 
BRANCH  18  19
ATOM     19  C   UNL     1      34.641 -20.855 -20.268  0.00  0.00    +0.002 C 
ATOM     20  C   UNL     1      35.529 -19.870 -20.680  0.00  0.00    -0.002 C 
ATOM     21  C   UNL     1      33.274 -20.618 -20.243  0.00  0.00    -0.002 C 
ATOM     22  C   UNL     1      35.039 -18.625 -21.073  0.00  0.00    -0.000 C 
ATOM     23  C   UNL     1      32.783 -19.373 -20.636  0.00  0.00    -0.000 C 
ATOM     24  C   UNL     1      33.666 -18.376 -21.052  0.00  0.00    -0.000 C 
ENDBRANCH  18  19
ENDBRANCH   1  18
TORSDOF 7
ENDMDL
MODEL 8
REMARK VINA RESULT:      -8.6      1.982      7.806
REMARK  Name = 12555
REMARK  7 active torsions:
REMARK  status: ('A' for Active; 'I' for Inactive)
REMARK    1  A    between atoms: N_1  and  C_18
REMARK    2  A    between atoms: C_5  and  O_10
REMARK    3  A    between atoms: O_10  and  C_11
REMARK    4  A    between atoms: C_11  and  C_12
REMARK    5  A    between atoms: C_12  and  C_13
REMARK    6  A    between atoms: C_13  and  N_14
REMARK    7  A    between atoms: C_18  and  C_19
REMARK                            x       y       z     vdW  Elec       q    Type
REMARK                         _______ _______ _______ _____ _____    ______ ____
ROOT
ATOM      1  N   UNL     1      33.014 -13.331 -23.035  0.00  0.00    -0.244 N 
ATOM      2  N   UNL     1      33.606 -13.704 -21.889  0.00  0.00    -0.131 NA
ATOM      3  C   UNL     1      33.207 -14.200 -24.074  0.00  0.00    +0.083 A 
ATOM      4  C   UNL     1      33.992 -15.224 -23.556  0.00  0.00    +0.072 A 
ATOM      5  C   UNL     1      34.200 -14.855 -22.208  0.00  0.00    +0.243 A 
ATOM      6  C   UNL     1      32.767 -14.176 -25.400  0.00  0.00    +0.019 C 
ATOM      7  C   UNL     1      34.371 -16.290 -24.387  0.00  0.00    +0.006 C 
ATOM      8  C   UNL     1      33.152 -15.245 -26.216  0.00  0.00    +0.002 C 
ATOM      9  C   UNL     1      33.941 -16.285 -25.720  0.00  0.00    +0.000 C 
ENDROOT
BRANCH   5  10
ATOM     10  O   UNL     1      34.896 -15.502 -21.264  0.00  0.00    -0.459 OA
BRANCH  10  11
ATOM     11  C   UNL     1      34.442 -16.810 -20.897  0.00  0.00    +0.205 C 
BRANCH  11  12
ATOM     12  C   UNL     1      35.522 -17.824 -21.248  0.00  0.00    +0.025 C 
BRANCH  12  13
ATOM     13  C   UNL     1      34.927 -19.196 -21.549  0.00  0.00    -0.074 C 
BRANCH  13  14
ATOM     14  N   UNL     1      34.638 -19.905 -20.308  0.00  0.00    +0.384 N 
ATOM     15  C   UNL     1      33.269 -20.423 -20.317  0.00  0.00    -0.101 C 
ATOM     16  C   UNL     1      35.592 -20.997 -20.105  0.00  0.00    -0.101 C 
ATOM     17  H   UNL     1      34.731 -19.246 -19.535  0.00  0.00    -0.080 HD
ENDBRANCH  13  14
ENDBRANCH  12  13
ENDBRANCH  11  12
ENDBRANCH  10  11
ENDBRANCH   5  10
BRANCH   1  18
ATOM     18  C   UNL     1      32.258 -12.100 -23.068  0.00  0.00    +0.154 C 
BRANCH  18  19
ATOM     19  C   UNL     1      33.130 -10.931 -23.445  0.00  0.00    +0.002 C 
ATOM     20  C   UNL     1      32.874  -9.683 -22.894  0.00  0.00    -0.002 C 
ATOM     21  C   UNL     1      34.177 -11.118 -24.336  0.00  0.00    -0.002 C 
ATOM     22  C   UNL     1      33.682  -8.600 -23.243  0.00  0.00    -0.000 C 
ATOM     23  C   UNL     1      34.985 -10.036 -24.684  0.00  0.00    -0.000 C 
ATOM     24  C   UNL     1      34.738  -8.776 -24.137  0.00  0.00    -0.000 C 
ENDBRANCH  18  19
ENDBRANCH   1  18
TORSDOF 7
ENDMDL
MODEL 9
REMARK VINA RESULT:      -8.6      1.739      2.757
REMARK  Name = 12555
REMARK  7 active torsions:
REMARK  status: ('A' for Active; 'I' for Inactive)
REMARK    1  A    between atoms: N_1  and  C_18
REMARK    2  A    between atoms: C_5  and  O_10
REMARK    3  A    between atoms: O_10  and  C_11
REMARK    4  A    between atoms: C_11  and  C_12
REMARK    5  A    between atoms: C_12  and  C_13
REMARK    6  A    between atoms: C_13  and  N_14
REMARK    7  A    between atoms: C_18  and  C_19
REMARK                            x       y       z     vdW  Elec       q    Type
REMARK                         _______ _______ _______ _____ _____    ______ ____
ROOT
ATOM      1  N   UNL     1      34.142 -15.301 -21.915  0.00  0.00    -0.244 N 
ATOM      2  N   UNL     1      33.390 -14.282 -21.469  0.00  0.00    -0.131 NA
ATOM      3  C   UNL     1      34.058 -15.511 -23.265  0.00  0.00    +0.083 A 
ATOM      4  C   UNL     1      33.173 -14.545 -23.732  0.00  0.00    +0.072 A 
ATOM      5  C   UNL     1      32.801 -13.825 -22.575  0.00  0.00    +0.243 A 
ATOM      6  C   UNL     1      34.670 -16.449 -24.099  0.00  0.00    +0.019 C 
ATOM      7  C   UNL     1      32.870 -14.494 -25.102  0.00  0.00    +0.006 C 
ATOM      8  C   UNL     1      34.358 -16.385 -25.461  0.00  0.00    +0.002 C 
ATOM      9  C   UNL     1      33.473 -15.426 -25.956  0.00  0.00    +0.000 C 
ENDROOT
BRANCH   5  10
ATOM     10  O   UNL     1      31.963 -12.784 -22.474  0.00  0.00    -0.459 OA
BRANCH  10  11
ATOM     11  C   UNL     1      31.683 -12.295 -21.157  0.00  0.00    +0.205 C 
BRANCH  11  12
ATOM     12  C   UNL     1      30.977 -10.951 -21.270  0.00  0.00    +0.025 C 
BRANCH  12  13
ATOM     13  C   UNL     1      31.948  -9.838 -21.650  0.00  0.00    -0.074 C 
BRANCH  13  14
ATOM     14  N   UNL     1      31.977  -9.663 -23.097  0.00  0.00    +0.384 N 
ATOM     15  C   UNL     1      31.375  -8.384 -23.475  0.00  0.00    -0.101 C 
ATOM     16  C   UNL     1      33.351  -9.745 -23.599  0.00  0.00    -0.101 C 
ATOM     17  H   UNL     1      31.434 -10.417 -23.519  0.00  0.00    -0.080 HD
ENDBRANCH  13  14
ENDBRANCH  12  13
ENDBRANCH  11  12
ENDBRANCH  10  11
ENDBRANCH   5  10
BRANCH   1  18
ATOM     18  C   UNL     1      34.940 -16.052 -20.973  0.00  0.00    +0.154 C 
BRANCH  18  19
ATOM     19  C   UNL     1      34.590 -17.515 -21.001  0.00  0.00    +0.002 C 
ATOM     20  C   UNL     1      35.596 -18.456 -21.174  0.00  0.00    -0.002 C 
ATOM     21  C   UNL     1      33.266 -17.905 -20.852  0.00  0.00    -0.002 C 
ATOM     22  C   UNL     1      35.271 -19.812 -21.199  0.00  0.00    -0.000 C 
ATOM     23  C   UNL     1      32.941 -19.261 -20.877  0.00  0.00    -0.000 C 
ATOM     24  C   UNL     1      33.944 -20.215 -21.051  0.00  0.00    -0.000 C 
ENDBRANCH  18  19
ENDBRANCH   1  18
TORSDOF 7
ENDMDL
