MODEL 1
REMARK VINA RESULT:      -6.4      0.000      0.000
REMARK  Name = 3033053
REMARK  2 active torsions:
REMARK  status: ('A' for Active; 'I' for Inactive)
REMARK    1  A    between atoms: C_2  and  N_17
REMARK    2  A    between atoms: C_15  and  O_21
REMARK                            x       y       z     vdW  Elec       q    Type
REMARK                         _______ _______ _______ _____ _____    ______ ____
ROOT
ATOM      1  C   UNL     1      36.190 -24.124 -12.346  0.00  0.00    +0.001 C 
ATOM      2  C   UNL     1      37.481 -23.314 -12.702  0.00  0.00    -0.061 C 
ATOM      3  C   UNL     1      37.874 -23.307 -14.192  0.00  0.00    -0.015 C 
ATOM      4  C   UNL     1      36.446 -25.627 -11.994  0.00  0.00    +0.002 C 
ATOM      5  C   UNL     1      36.705 -22.770 -15.023  0.00  0.00    +0.024 C 
ATOM      6  C   UNL     1      35.105 -23.975 -13.432  0.00  0.00    -0.026 C 
ATOM      7  C   UNL     1      38.539 -24.563 -14.781  0.00  0.00    -0.002 C 
ATOM      8  C   UNL     1      35.367 -23.363 -14.675  0.00  0.00    -0.026 C 
ATOM      9  C   UNL     1      37.248 -26.539 -12.929  0.00  0.00    +0.000 C 
ATOM     10  C   UNL     1      35.626 -23.478 -11.035  0.00  0.00    +0.002 C 
ATOM     11  C   UNL     1      37.679 -25.699 -15.339  0.00  0.00    -0.000 C 
ATOM     12  C   UNL     1      36.828 -26.538 -14.389  0.00  0.00    +0.000 C 
ATOM     13  C   UNL     1      33.803 -24.473 -13.207  0.00  0.00    +0.032 C 
ATOM     14  C   UNL     1      34.339 -23.244 -15.630  0.00  0.00    -0.001 C 
ATOM     15  C   UNL     1      32.796 -24.359 -14.169  0.00  0.00    +0.133 C 
ATOM     16  C   UNL     1      33.064 -23.741 -15.381  0.00  0.00    +0.036 C 
ENDROOT
BRANCH   2  17
ATOM     17  N   UNL     1      38.617 -23.589 -11.817  0.00  0.00    +0.382 N 
ATOM     18  H   UNL     1      38.539 -24.536 -11.447  0.00  0.00    -0.089 HD
ATOM     19  H   UNL     1      38.617 -22.921 -11.046  0.00  0.00    -0.089 HD
ATOM     20  H   UNL     1      39.487 -23.501 -12.342  0.00  0.00    -0.089 HD
ENDBRANCH   2  17
BRANCH  15  21
ATOM     21  O   UNL     1      31.554 -24.855 -13.914  0.00  0.00    -0.506 OA
ATOM     22  H   UNL     1      30.943 -24.353 -13.411  0.00  0.00    +0.292 HD
ENDBRANCH  15  21
TORSDOF 2
ENDMDL
MODEL 2
REMARK VINA RESULT:      -6.2     16.715     18.687
REMARK  Name = 3033053
REMARK  2 active torsions:
REMARK  status: ('A' for Active; 'I' for Inactive)
REMARK    1  A    between atoms: C_2  and  N_17
REMARK    2  A    between atoms: C_15  and  O_21
REMARK                            x       y       z     vdW  Elec       q    Type
REMARK                         _______ _______ _______ _____ _____    ______ ____
ROOT
ATOM      1  C   UNL     1      33.108  -8.773 -23.316  0.00  0.00    +0.001 C 
ATOM      2  C   UNL     1      33.941  -7.494 -22.973  0.00  0.00    -0.061 C 
ATOM      3  C   UNL     1      33.329  -6.565 -21.906  0.00  0.00    -0.015 C 
ATOM      4  C   UNL     1      32.079  -8.582 -24.479  0.00  0.00    +0.002 C 
ATOM      5  C   UNL     1      33.086  -7.360 -20.620  0.00  0.00    +0.024 C 
ATOM      6  C   UNL     1      32.438  -9.370 -22.062  0.00  0.00    -0.026 C 
ATOM      7  C   UNL     1      32.158  -5.654 -22.312  0.00  0.00    -0.002 C 
ATOM      8  C   UNL     1      32.419  -8.693 -20.826  0.00  0.00    -0.026 C 
ATOM      9  C   UNL     1      31.065  -7.433 -24.466  0.00  0.00    +0.000 C 
ATOM     10  C   UNL     1      34.139  -9.829 -23.839  0.00  0.00    +0.002 C 
ATOM     11  C   UNL     1      30.719  -6.169 -22.234  0.00  0.00    -0.000 C 
ATOM     12  C   UNL     1      30.258  -7.266 -23.190  0.00  0.00    +0.000 C 
ATOM     13  C   UNL     1      31.801 -10.629 -22.129  0.00  0.00    +0.032 C 
ATOM     14  C   UNL     1      31.802  -9.287 -19.708  0.00  0.00    -0.001 C 
ATOM     15  C   UNL     1      31.181 -11.201 -21.015  0.00  0.00    +0.133 C 
ATOM     16  C   UNL     1      31.184 -10.529 -19.802  0.00  0.00    +0.036 C 
ENDROOT
BRANCH   2  17
ATOM     17  N   UNL     1      34.421  -6.764 -24.151  0.00  0.00    +0.382 N 
ATOM     18  H   UNL     1      34.913  -5.922 -23.853  0.00  0.00    -0.089 HD
ATOM     19  H   UNL     1      33.628  -6.505 -24.738  0.00  0.00    -0.089 HD
ATOM     20  H   UNL     1      35.057  -7.358 -24.683  0.00  0.00    -0.089 HD
ENDBRANCH   2  17
BRANCH  15  21
ATOM     21  O   UNL     1      30.575 -12.415 -21.123  0.00  0.00    -0.506 OA
ATOM     22  H   UNL     1      29.690 -12.523 -20.834  0.00  0.00    +0.292 HD
ENDBRANCH  15  21
TORSDOF 2
ENDMDL
MODEL 3
REMARK VINA RESULT:      -6.0      2.193      3.214
REMARK  Name = 3033053
REMARK  2 active torsions:
REMARK  status: ('A' for Active; 'I' for Inactive)
REMARK    1  A    between atoms: C_2  and  N_17
REMARK    2  A    between atoms: C_15  and  O_21
REMARK                            x       y       z     vdW  Elec       q    Type
REMARK                         _______ _______ _______ _____ _____    ______ ____
ROOT
ATOM      1  C   UNL     1      35.075 -24.210 -14.289  0.00  0.00    +0.001 C 
ATOM      2  C   UNL     1      35.693 -23.946 -12.877  0.00  0.00    -0.061 C 
ATOM      3  C   UNL     1      37.207 -23.658 -12.855  0.00  0.00    -0.015 C 
ATOM      4  C   UNL     1      35.079 -25.712 -14.727  0.00  0.00    +0.002 C 
ATOM      5  C   UNL     1      37.511 -22.463 -13.762  0.00  0.00    +0.024 C 
ATOM      6  C   UNL     1      35.708 -23.305 -15.367  0.00  0.00    -0.026 C 
ATOM      7  C   UNL     1      38.180 -24.838 -13.025  0.00  0.00    -0.002 C 
ATOM      8  C   UNL     1      36.848 -22.518 -15.112  0.00  0.00    -0.026 C 
ATOM      9  C   UNL     1      36.362 -26.550 -14.687  0.00  0.00    +0.000 C 
ATOM     10  C   UNL     1      33.564 -23.812 -14.178  0.00  0.00    +0.002 C 
ATOM     11  C   UNL     1      38.607 -25.289 -14.423  0.00  0.00    -0.000 C 
ATOM     12  C   UNL     1      37.583 -25.939 -15.351  0.00  0.00    +0.000 C 
ATOM     13  C   UNL     1      35.155 -23.258 -16.667  0.00  0.00    +0.032 C 
ATOM     14  C   UNL     1      37.382 -21.702 -16.128  0.00  0.00    -0.001 C 
ATOM     15  C   UNL     1      35.702 -22.453 -17.669  0.00  0.00    +0.133 C 
ATOM     16  C   UNL     1      36.816 -21.673 -17.398  0.00  0.00    +0.036 C 
ENDROOT
BRANCH   2  17
ATOM     17  N   UNL     1      35.286 -24.920 -11.859  0.00  0.00    +0.382 N 
ATOM     18  H   UNL     1      34.579 -24.503 -11.254  0.00  0.00    -0.089 HD
ATOM     19  H   UNL     1      36.097 -25.187 -11.301  0.00  0.00    -0.089 HD
ATOM     20  H   UNL     1      34.900 -25.746 -12.314  0.00  0.00    -0.089 HD
ENDBRANCH   2  17
BRANCH  15  21
ATOM     21  O   UNL     1      35.142 -22.438 -18.910  0.00  0.00    -0.506 OA
ATOM     22  H   UNL     1      34.877 -21.625 -19.293  0.00  0.00    +0.292 HD
ENDBRANCH  15  21
TORSDOF 2
ENDMDL
MODEL 4
REMARK VINA RESULT:      -6.0     19.112     20.910
REMARK  Name = 3033053
REMARK  2 active torsions:
REMARK  status: ('A' for Active; 'I' for Inactive)
REMARK    1  A    between atoms: C_2  and  N_17
REMARK    2  A    between atoms: C_15  and  O_21
REMARK                            x       y       z     vdW  Elec       q    Type
REMARK                         _______ _______ _______ _____ _____    ______ ____
ROOT
ATOM      1  C   UNL     1      31.981  -5.946 -22.824  0.00  0.00    +0.001 C 
ATOM      2  C   UNL     1      32.812  -6.671 -21.714  0.00  0.00    -0.061 C 
ATOM      3  C   UNL     1      33.706  -7.829 -22.199  0.00  0.00    -0.015 C 
ATOM      4  C   UNL     1      30.564  -6.560 -23.077  0.00  0.00    +0.002 C 
ATOM      5  C   UNL     1      34.662  -7.315 -23.280  0.00  0.00    +0.024 C 
ATOM      6  C   UNL     1      32.780  -5.811 -24.138  0.00  0.00    -0.026 C 
ATOM      7  C   UNL     1      33.043  -9.175 -22.537  0.00  0.00    -0.002 C 
ATOM      8  C   UNL     1      34.010  -6.468 -24.339  0.00  0.00    -0.026 C 
ATOM      9  C   UNL     1      30.381  -8.056 -23.350  0.00  0.00    +0.000 C 
ATOM     10  C   UNL     1      31.720  -4.498 -22.289  0.00  0.00    +0.002 C 
ATOM     11  C   UNL     1      32.493  -9.432 -23.941  0.00  0.00    -0.000 C 
ATOM     12  C   UNL     1      31.270  -8.655 -24.426  0.00  0.00    +0.000 C 
ATOM     13  C   UNL     1      32.277  -5.021 -25.195  0.00  0.00    +0.032 C 
ATOM     14  C   UNL     1      34.704  -6.304 -25.553  0.00  0.00    -0.001 C 
ATOM     15  C   UNL     1      32.970  -4.878 -26.400  0.00  0.00    +0.133 C 
ATOM     16  C   UNL     1      34.187  -5.519 -26.578  0.00  0.00    +0.036 C 
ENDROOT
BRANCH   2  17
ATOM     17  N   UNL     1      32.033  -7.017 -20.521  0.00  0.00    +0.382 N 
ATOM     18  H   UNL     1      32.069  -6.245 -19.856  0.00  0.00    -0.089 HD
ATOM     19  H   UNL     1      32.425  -7.855 -20.091  0.00  0.00    -0.089 HD
ATOM     20  H   UNL     1      31.064  -7.193 -20.786  0.00  0.00    -0.089 HD
ENDBRANCH   2  17
BRANCH  15  21
ATOM     21  O   UNL     1      32.450  -4.110 -27.396  0.00  0.00    -0.506 OA
ATOM     22  H   UNL     1      32.017  -3.305 -27.190  0.00  0.00    +0.292 HD
ENDBRANCH  15  21
TORSDOF 2
ENDMDL
MODEL 5
REMARK VINA RESULT:      -5.5      2.453      4.083
REMARK  Name = 3033053
REMARK  2 active torsions:
REMARK  status: ('A' for Active; 'I' for Inactive)
REMARK    1  A    between atoms: C_2  and  N_17
REMARK    2  A    between atoms: C_15  and  O_21
REMARK                            x       y       z     vdW  Elec       q    Type
REMARK                         _______ _______ _______ _____ _____    ______ ____
ROOT
ATOM      1  C   UNL     1      38.295 -24.560 -14.350  0.00  0.00    +0.001 C 
ATOM      2  C   UNL     1      37.620 -25.902 -13.911  0.00  0.00    -0.061 C 
ATOM      3  C   UNL     1      36.128 -25.808 -13.537  0.00  0.00    -0.015 C 
ATOM      4  C   UNL     1      38.931 -23.742 -13.177  0.00  0.00    +0.002 C 
ATOM      5  C   UNL     1      35.346 -25.219 -14.715  0.00  0.00    +0.024 C 
ATOM      6  C   UNL     1      37.338 -23.689 -15.191  0.00  0.00    -0.026 C 
ATOM      7  C   UNL     1      35.751 -25.210 -12.171  0.00  0.00    -0.002 C 
ATOM      8  C   UNL     1      35.971 -23.998 -15.333  0.00  0.00    -0.026 C 
ATOM      9  C   UNL     1      38.128 -23.396 -11.918  0.00  0.00    +0.000 C 
ATOM     10  C   UNL     1      39.491 -24.963 -15.276  0.00  0.00    +0.002 C 
ATOM     11  C   UNL     1      35.559 -23.700 -12.018  0.00  0.00    -0.000 C 
ATOM     12  C   UNL     1      36.763 -22.769 -12.145  0.00  0.00    +0.000 C 
ATOM     13  C   UNL     1      37.819 -22.530 -15.839  0.00  0.00    +0.032 C 
ATOM     14  C   UNL     1      35.142 -23.176 -16.120  0.00  0.00    -0.001 C 
ATOM     15  C   UNL     1      36.983 -21.716 -16.607  0.00  0.00    +0.133 C 
ATOM     16  C   UNL     1      35.642 -22.041 -16.748  0.00  0.00    +0.036 C 
ENDROOT
BRANCH   2  17
ATOM     17  N   UNL     1      38.402 -26.668 -12.936  0.00  0.00    +0.382 N 
ATOM     18  H   UNL     1      38.692 -27.553 -13.352  0.00  0.00    -0.089 HD
ATOM     19  H   UNL     1      37.831 -26.851 -12.111  0.00  0.00    -0.089 HD
ATOM     20  H   UNL     1      39.227 -26.133 -12.665  0.00  0.00    -0.089 HD
ENDBRANCH   2  17
BRANCH  15  21
ATOM     21  O   UNL     1      37.485 -20.605 -17.212  0.00  0.00    -0.506 OA
ATOM     22  H   UNL     1      36.903 -19.953 -17.550  0.00  0.00    +0.292 HD
ENDBRANCH  15  21
TORSDOF 2
ENDMDL
MODEL 6
REMARK VINA RESULT:      -5.3      1.527      3.270
REMARK  Name = 3033053
REMARK  2 active torsions:
REMARK  status: ('A' for Active; 'I' for Inactive)
REMARK    1  A    between atoms: C_2  and  N_17
REMARK    2  A    between atoms: C_15  and  O_21
REMARK                            x       y       z     vdW  Elec       q    Type
REMARK                         _______ _______ _______ _____ _____    ______ ____
ROOT
ATOM      1  C   UNL     1      36.488 -25.505 -14.618  0.00  0.00    +0.001 C 
ATOM      2  C   UNL     1      36.852 -26.051 -13.198  0.00  0.00    -0.061 C 
ATOM      3  C   UNL     1      36.529 -25.111 -12.019  0.00  0.00    -0.015 C 
ATOM      4  C   UNL     1      37.635 -24.700 -15.315  0.00  0.00    +0.002 C 
ATOM      5  C   UNL     1      35.041 -24.752 -12.048  0.00  0.00    +0.024 C 
ATOM      6  C   UNL     1      35.168 -24.707 -14.602  0.00  0.00    -0.026 C 
ATOM      7  C   UNL     1      37.460 -23.913 -11.761  0.00  0.00    -0.002 C 
ATOM      8  C   UNL     1      34.522 -24.349 -13.402  0.00  0.00    -0.026 C 
ATOM      9  C   UNL     1      38.338 -23.538 -14.605  0.00  0.00    +0.000 C 
ATOM     10  C   UNL     1      36.257 -26.766 -15.517  0.00  0.00    +0.002 C 
ATOM     11  C   UNL     1      37.218 -22.583 -12.476  0.00  0.00    -0.000 C 
ATOM     12  C   UNL     1      37.435 -22.486 -13.984  0.00  0.00    +0.000 C 
ATOM     13  C   UNL     1      34.573 -24.295 -15.815  0.00  0.00    +0.032 C 
ATOM     14  C   UNL     1      33.313 -23.628 -13.441  0.00  0.00    -0.001 C 
ATOM     15  C   UNL     1      33.380 -23.569 -15.840  0.00  0.00    +0.133 C 
ATOM     16  C   UNL     1      32.748 -23.236 -14.651  0.00  0.00    +0.036 C 
ENDROOT
BRANCH   2  17
ATOM     17  N   UNL     1      38.196 -26.630 -13.110  0.00  0.00    +0.382 N 
ATOM     18  H   UNL     1      38.288 -27.145 -12.235  0.00  0.00    -0.089 HD
ATOM     19  H   UNL     1      38.890 -25.883 -13.140  0.00  0.00    -0.089 HD
ATOM     20  H   UNL     1      38.345 -27.263 -13.896  0.00  0.00    -0.089 HD
ENDBRANCH   2  17
BRANCH  15  21
ATOM     21  O   UNL     1      32.840 -23.187 -17.030  0.00  0.00    -0.506 OA
ATOM     22  H   UNL     1      32.809 -22.280 -17.260  0.00  0.00    +0.292 HD
ENDBRANCH  15  21
TORSDOF 2
ENDMDL
MODEL 7
REMARK VINA RESULT:      -5.1      1.422      2.952
REMARK  Name = 3033053
REMARK  2 active torsions:
REMARK  status: ('A' for Active; 'I' for Inactive)
REMARK    1  A    between atoms: C_2  and  N_17
REMARK    2  A    between atoms: C_15  and  O_21
REMARK                            x       y       z     vdW  Elec       q    Type
REMARK                         _______ _______ _______ _____ _____    ______ ____
ROOT
ATOM      1  C   UNL     1      36.832 -23.263 -14.960  0.00  0.00    +0.001 C 
ATOM      2  C   UNL     1      37.757 -24.443 -15.408  0.00  0.00    -0.061 C 
ATOM      3  C   UNL     1      37.435 -25.816 -14.789  0.00  0.00    -0.015 C 
ATOM      4  C   UNL     1      37.333 -22.493 -13.693  0.00  0.00    +0.002 C 
ATOM      5  C   UNL     1      35.979 -26.182 -15.094  0.00  0.00    +0.024 C 
ATOM      6  C   UNL     1      35.366 -23.717 -14.802  0.00  0.00    -0.026 C 
ATOM      7  C   UNL     1      37.857 -26.081 -13.333  0.00  0.00    -0.002 C 
ATOM      8  C   UNL     1      34.991 -25.075 -14.846  0.00  0.00    -0.026 C 
ATOM      9  C   UNL     1      37.694 -23.234 -12.401  0.00  0.00    +0.000 C 
ATOM     10  C   UNL     1      36.871 -22.219 -16.127  0.00  0.00    +0.002 C 
ATOM     11  C   UNL     1      36.928 -25.697 -12.180  0.00  0.00    -0.000 C 
ATOM     12  C   UNL     1      36.663 -24.222 -11.884  0.00  0.00    +0.000 C 
ATOM     13  C   UNL     1      34.347 -22.762 -14.589  0.00  0.00    +0.032 C 
ATOM     14  C   UNL     1      33.638 -25.436 -14.706  0.00  0.00    -0.001 C 
ATOM     15  C   UNL     1      33.009 -23.135 -14.439  0.00  0.00    +0.133 C 
ATOM     16  C   UNL     1      32.654 -24.475 -14.499  0.00  0.00    +0.036 C 
ENDROOT
BRANCH   2  17
ATOM     17  N   UNL     1      39.188 -24.124 -15.366  0.00  0.00    +0.382 N 
ATOM     18  H   UNL     1      39.377 -23.511 -14.573  0.00  0.00    -0.089 HD
ATOM     19  H   UNL     1      39.457 -23.653 -16.231  0.00  0.00    -0.089 HD
ATOM     20  H   UNL     1      39.726 -24.985 -15.267  0.00  0.00    -0.089 HD
ENDBRANCH   2  17
BRANCH  15  21
ATOM     21  O   UNL     1      32.057 -22.185 -14.232  0.00  0.00    -0.506 OA
ATOM     22  H   UNL     1      31.868 -21.894 -13.362  0.00  0.00    +0.292 HD
ENDBRANCH  15  21
TORSDOF 2
ENDMDL
MODEL 8
REMARK VINA RESULT:      -4.3      3.162      5.055
REMARK  Name = 3033053
REMARK  2 active torsions:
REMARK  status: ('A' for Active; 'I' for Inactive)
REMARK    1  A    between atoms: C_2  and  N_17
REMARK    2  A    between atoms: C_15  and  O_21
REMARK                            x       y       z     vdW  Elec       q    Type
REMARK                         _______ _______ _______ _____ _____    ______ ____
ROOT
ATOM      1  C   UNL     1      36.805 -25.975 -14.309  0.00  0.00    +0.001 C 
ATOM      2  C   UNL     1      35.845 -24.957 -15.007  0.00  0.00    -0.061 C 
ATOM      3  C   UNL     1      36.303 -23.485 -14.985  0.00  0.00    -0.015 C 
ATOM      4  C   UNL     1      36.513 -26.203 -12.788  0.00  0.00    +0.002 C 
ATOM      5  C   UNL     1      37.692 -23.376 -15.620  0.00  0.00    +0.024 C 
ATOM      6  C   UNL     1      38.287 -25.621 -14.552  0.00  0.00    -0.026 C 
ATOM      7  C   UNL     1      36.146 -22.688 -13.678  0.00  0.00    -0.002 C 
ATOM      8  C   UNL     1      38.681 -24.404 -15.142  0.00  0.00    -0.026 C 
ATOM      9  C   UNL     1      36.398 -25.025 -11.814  0.00  0.00    +0.000 C 
ATOM     10  C   UNL     1      36.539 -27.357 -14.996  0.00  0.00    +0.002 C 
ATOM     11  C   UNL     1      37.251 -22.718 -12.621  0.00  0.00    -0.000 C 
ATOM     12  C   UNL     1      37.527 -24.010 -11.854  0.00  0.00    +0.000 C 
ATOM     13  C   UNL     1      39.304 -26.522 -14.165  0.00  0.00    +0.032 C 
ATOM     14  C   UNL     1      40.047 -24.133 -15.351  0.00  0.00    -0.001 C 
ATOM     15  C   UNL     1      40.656 -26.235 -14.367  0.00  0.00    +0.133 C 
ATOM     16  C   UNL     1      41.027 -25.039 -14.962  0.00  0.00    +0.036 C 
ENDROOT
BRANCH   2  17
ATOM     17  N   UNL     1      34.436 -25.117 -14.634  0.00  0.00    +0.382 N 
ATOM     18  H   UNL     1      34.297 -26.039 -14.219  0.00  0.00    -0.089 HD
ATOM     19  H   UNL     1      33.852 -25.028 -15.466  0.00  0.00    -0.089 HD
ATOM     20  H   UNL     1      34.178 -24.398 -13.959  0.00  0.00    -0.089 HD
ENDBRANCH   2  17
BRANCH  15  21
ATOM     21  O   UNL     1      41.606 -27.129 -13.977  0.00  0.00    -0.506 OA
ATOM     22  H   UNL     1      42.121 -27.575 -14.620  0.00  0.00    +0.292 HD
ENDBRANCH  15  21
TORSDOF 2
ENDMDL
MODEL 9
REMARK VINA RESULT:      -4.3     18.504     20.386
REMARK  Name = 3033053
REMARK  2 active torsions:
REMARK  status: ('A' for Active; 'I' for Inactive)
REMARK    1  A    between atoms: C_2  and  N_17
REMARK    2  A    between atoms: C_15  and  O_21
REMARK                            x       y       z     vdW  Elec       q    Type
REMARK                         _______ _______ _______ _____ _____    ______ ____
ROOT
ATOM      1  C   UNL     1      33.691  -7.933 -24.108  0.00  0.00    +0.001 C 
ATOM      2  C   UNL     1      32.992  -9.317 -23.900  0.00  0.00    -0.061 C 
ATOM      3  C   UNL     1      31.658  -9.283 -23.130  0.00  0.00    -0.015 C 
ATOM      4  C   UNL     1      34.685  -7.533 -22.968  0.00  0.00    +0.002 C 
ATOM      5  C   UNL     1      30.686  -8.336 -23.839  0.00  0.00    +0.024 C 
ATOM      6  C   UNL     1      32.666  -6.812 -24.382  0.00  0.00    -0.026 C 
ATOM      7  C   UNL     1      31.698  -9.111 -21.601  0.00  0.00    -0.002 C 
ATOM      8  C   UNL     1      31.279  -7.010 -24.233  0.00  0.00    -0.026 C 
ATOM      9  C   UNL     1      34.260  -7.552 -21.495  0.00  0.00    +0.000 C 
ATOM     10  C   UNL     1      34.569  -8.083 -25.395  0.00  0.00    +0.002 C 
ATOM     11  C   UNL     1      31.727  -7.711 -20.984  0.00  0.00    -0.000 C 
ATOM     12  C   UNL     1      32.964  -6.833 -21.162  0.00  0.00    +0.000 C 
ATOM     13  C   UNL     1      33.106  -5.531 -24.781  0.00  0.00    +0.032 C 
ATOM     14  C   UNL     1      30.385  -5.957 -24.505  0.00  0.00    -0.001 C 
ATOM     15  C   UNL     1      32.209  -4.491 -25.036  0.00  0.00    +0.133 C 
ATOM     16  C   UNL     1      30.846  -4.706 -24.899  0.00  0.00    +0.036 C 
ENDROOT
BRANCH   2  17
ATOM     17  N   UNL     1      33.893 -10.372 -23.427  0.00  0.00    +0.382 N 
ATOM     18  H   UNL     1      33.965 -10.327 -22.410  0.00  0.00    -0.089 HD
ATOM     19  H   UNL     1      34.817 -10.240 -23.839  0.00  0.00    -0.089 HD
ATOM     20  H   UNL     1      33.526 -11.283 -23.702  0.00  0.00    -0.089 HD
ENDBRANCH   2  17
BRANCH  15  21
ATOM     21  O   UNL     1      32.673  -3.269 -25.416  0.00  0.00    -0.506 OA
ATOM     22  H   UNL     1      33.481  -2.947 -25.067  0.00  0.00    +0.292 HD
ENDBRANCH  15  21
TORSDOF 2
ENDMDL
