MODEL 1
REMARK VINA RESULT:      -7.9      0.000      0.000
REMARK  Name = 46937109
REMARK  13 active torsions:
REMARK  status: ('A' for Active; 'I' for Inactive)
REMARK    1  A    between atoms: C_2  and  O_7
REMARK    2  A    between atoms: C_3  and  O_9
REMARK    3  A    between atoms: C_4  and  O_11
REMARK    4  A    between atoms: C_5  and  C_22
REMARK    5  A    between atoms: C_6  and  O_13
REMARK    6  A    between atoms: O_13  and  C_14
REMARK    7  A    between atoms: C_14  and  C_15
REMARK    8  A    between atoms: C_15  and  C_16
REMARK    9  A    between atoms: C_16  and  C_17
REMARK   10  A    between atoms: C_17  and  C_18
REMARK   11  A    between atoms: C_18  and  C_19
REMARK   12  A    between atoms: C_19  and  C_20
REMARK   13  A    between atoms: C_22  and  O_23
REMARK                            x       y       z     vdW  Elec       q    Type
REMARK                         _______ _______ _______ _____ _____    ______ ____
ROOT
ATOM      1  O   UNL     1      38.380 -23.699 -14.538  0.00  0.00    -0.326 OA
ATOM      2  C   UNL     1      36.362 -25.761 -14.371  0.00  0.00    +0.172 C 
ATOM      3  C   UNL     1      37.862 -26.057 -14.276  0.00  0.00    +0.169 C 
ATOM      4  C   UNL     1      36.080 -24.315 -13.952  0.00  0.00    +0.196 C 
ATOM      5  C   UNL     1      38.672 -25.006 -15.042  0.00  0.00    +0.176 C 
ATOM      6  C   UNL     1      37.006 -23.318 -14.660  0.00  0.00    +0.266 C 
ENDROOT
BRANCH   2   7
ATOM      7  O   UNL     1      35.927 -25.964 -15.715  0.00  0.00    -0.379 OA
ATOM      8  H   UNL     1      36.363 -26.749 -16.081  0.00  0.00    +0.211 HD
ENDBRANCH   2   7
BRANCH   3   9
ATOM      9  O   UNL     1      38.138 -27.355 -14.789  0.00  0.00    -0.379 OA
ATOM     10  H   UNL     1      38.071 -27.342 -15.758  0.00  0.00    +0.211 HD
ENDBRANCH   3   9
BRANCH   4  11
ATOM     11  O   UNL     1      36.280 -24.183 -12.547  0.00  0.00    -0.378 OA
ATOM     12  H   UNL     1      36.731 -23.344 -12.362  0.00  0.00    +0.211 HD
ENDBRANCH   4  11
BRANCH   6  13
ATOM     13  O   UNL     1      36.611 -23.171 -16.021  0.00  0.00    -0.329 OA
BRANCH  13  14
ATOM     14  C   UNL     1      36.839 -21.849 -16.490  0.00  0.00    +0.145 C 
BRANCH  14  15
ATOM     15  C   UNL     1      36.713 -21.836 -18.007  0.00  0.00    +0.032 C 
BRANCH  15  16
ATOM     16  C   UNL     1      35.267 -22.046 -18.454  0.00  0.00    +0.003 C 
BRANCH  16  17
ATOM     17  C   UNL     1      34.980 -21.309 -19.765  0.00  0.00    +0.000 C 
BRANCH  17  18
ATOM     18  C   UNL     1      33.509 -20.919 -19.934  0.00  0.00    +0.000 C 
BRANCH  18  19
ATOM     19  C   UNL     1      33.302 -19.705 -20.842  0.00  0.00    +0.000 C 
BRANCH  19  20
ATOM     20  C   UNL     1      34.626 -19.233 -21.444  0.00  0.00    +0.000 C 
ATOM     21  C   UNL     1      34.560 -19.175 -22.962  0.00  0.00    +0.000 C 
ENDBRANCH  19  20
ENDBRANCH  18  19
ENDBRANCH  17  18
ENDBRANCH  16  17
ENDBRANCH  15  16
ENDBRANCH  14  15
ENDBRANCH  13  14
ENDBRANCH   6  13
BRANCH   5  22
ATOM     22  C   UNL     1      40.174 -25.228 -14.886  0.00  0.00    +0.169 C 
BRANCH  22  23
ATOM     23  O   UNL     1      40.622 -26.042 -15.954  0.00  0.00    -0.379 OA
ATOM     24  H   UNL     1      41.174 -26.758 -15.603  0.00  0.00    +0.211 HD
ENDBRANCH  22  23
ENDBRANCH   5  22
TORSDOF 13
ENDMDL
MODEL 2
REMARK VINA RESULT:      -7.7      1.672      2.917
REMARK  Name = 46937109
REMARK  13 active torsions:
REMARK  status: ('A' for Active; 'I' for Inactive)
REMARK    1  A    between atoms: C_2  and  O_7
REMARK    2  A    between atoms: C_3  and  O_9
REMARK    3  A    between atoms: C_4  and  O_11
REMARK    4  A    between atoms: C_5  and  C_22
REMARK    5  A    between atoms: C_6  and  O_13
REMARK    6  A    between atoms: O_13  and  C_14
REMARK    7  A    between atoms: C_14  and  C_15
REMARK    8  A    between atoms: C_15  and  C_16
REMARK    9  A    between atoms: C_16  and  C_17
REMARK   10  A    between atoms: C_17  and  C_18
REMARK   11  A    between atoms: C_18  and  C_19
REMARK   12  A    between atoms: C_19  and  C_20
REMARK   13  A    between atoms: C_22  and  O_23
REMARK                            x       y       z     vdW  Elec       q    Type
REMARK                         _______ _______ _______ _____ _____    ______ ____
ROOT
ATOM      1  O   UNL     1      35.846 -24.311 -13.624  0.00  0.00    -0.326 OA
ATOM      2  C   UNL     1      38.256 -25.536 -14.644  0.00  0.00    +0.172 C 
ATOM      3  C   UNL     1      38.184 -24.862 -13.270  0.00  0.00    +0.169 C 
ATOM      4  C   UNL     1      36.864 -26.002 -15.079  0.00  0.00    +0.196 C 
ATOM      5  C   UNL     1      37.117 -23.763 -13.261  0.00  0.00    +0.176 C 
ATOM      6  C   UNL     1      35.812 -24.895 -14.930  0.00  0.00    +0.266 C 
ENDROOT
BRANCH   2   7
ATOM      7  O   UNL     1      38.770 -24.607 -15.598  0.00  0.00    -0.379 OA
ATOM      8  H   UNL     1      39.460 -25.035 -16.128  0.00  0.00    +0.211 HD
ENDBRANCH   2   7
BRANCH   3   9
ATOM      9  O   UNL     1      39.452 -24.315 -12.927  0.00  0.00    -0.379 OA
ATOM     10  H   UNL     1      40.151 -24.799 -13.395  0.00  0.00    +0.211 HD
ENDBRANCH   3   9
BRANCH   4  11
ATOM     11  O   UNL     1      36.461 -27.106 -14.271  0.00  0.00    -0.378 OA
ATOM     12  H   UNL     1      35.496 -27.193 -14.301  0.00  0.00    +0.211 HD
ENDBRANCH   4  11
BRANCH   6  13
ATOM     13  O   UNL     1      35.983 -23.921 -15.955  0.00  0.00    -0.329 OA
BRANCH  13  14
ATOM     14  C   UNL     1      34.929 -22.968 -15.950  0.00  0.00    +0.145 C 
BRANCH  14  15
ATOM     15  C   UNL     1      33.674 -23.618 -16.515  0.00  0.00    +0.032 C 
BRANCH  15  16
ATOM     16  C   UNL     1      33.125 -22.840 -17.709  0.00  0.00    +0.003 C 
BRANCH  16  17
ATOM     17  C   UNL     1      34.105 -22.865 -18.885  0.00  0.00    +0.000 C 
BRANCH  17  18
ATOM     18  C   UNL     1      34.344 -21.486 -19.506  0.00  0.00    +0.000 C 
BRANCH  18  19
ATOM     19  C   UNL     1      33.052 -20.758 -19.887  0.00  0.00    +0.000 C 
BRANCH  19  20
ATOM     20  C   UNL     1      33.330 -19.612 -20.860  0.00  0.00    +0.000 C 
ATOM     21  C   UNL     1      34.821 -19.357 -21.012  0.00  0.00    +0.000 C 
ENDBRANCH  19  20
ENDBRANCH  18  19
ENDBRANCH  17  18
ENDBRANCH  16  17
ENDBRANCH  15  16
ENDBRANCH  14  15
ENDBRANCH  13  14
ENDBRANCH   6  13
BRANCH   5  22
ATOM     22  C   UNL     1      36.963 -23.140 -11.876  0.00  0.00    +0.169 C 
BRANCH  22  23
ATOM     23  O   UNL     1      37.875 -22.062 -11.764  0.00  0.00    -0.379 OA
ATOM     24  H   UNL     1      37.800 -21.666 -10.882  0.00  0.00    +0.211 HD
ENDBRANCH  22  23
ENDBRANCH   5  22
TORSDOF 13
ENDMDL
MODEL 3
REMARK VINA RESULT:      -7.6      1.775      2.478
REMARK  Name = 46937109
REMARK  13 active torsions:
REMARK  status: ('A' for Active; 'I' for Inactive)
REMARK    1  A    between atoms: C_2  and  O_7
REMARK    2  A    between atoms: C_3  and  O_9
REMARK    3  A    between atoms: C_4  and  O_11
REMARK    4  A    between atoms: C_5  and  C_22
REMARK    5  A    between atoms: C_6  and  O_13
REMARK    6  A    between atoms: O_13  and  C_14
REMARK    7  A    between atoms: C_14  and  C_15
REMARK    8  A    between atoms: C_15  and  C_16
REMARK    9  A    between atoms: C_16  and  C_17
REMARK   10  A    between atoms: C_17  and  C_18
REMARK   11  A    between atoms: C_18  and  C_19
REMARK   12  A    between atoms: C_19  and  C_20
REMARK   13  A    between atoms: C_22  and  O_23
REMARK                            x       y       z     vdW  Elec       q    Type
REMARK                         _______ _______ _______ _____ _____    ______ ____
ROOT
ATOM      1  O   UNL     1      37.402 -24.048 -14.355  0.00  0.00    -0.326 OA
ATOM      2  C   UNL     1      36.373 -24.536 -11.699  0.00  0.00    +0.172 C 
ATOM      3  C   UNL     1      37.268 -25.534 -12.440  0.00  0.00    +0.169 C 
ATOM      4  C   UNL     1      36.609 -23.118 -12.229  0.00  0.00    +0.196 C 
ATOM      5  C   UNL     1      37.104 -25.389 -13.955  0.00  0.00    +0.176 C 
ATOM      6  C   UNL     1      36.556 -23.059 -13.760  0.00  0.00    +0.266 C 
ENDROOT
BRANCH   2   7
ATOM      7  O   UNL     1      35.006 -24.897 -11.891  0.00  0.00    -0.379 OA
ATOM      8  H   UNL     1      34.717 -25.467 -11.161  0.00  0.00    +0.211 HD
ENDBRANCH   2   7
BRANCH   3   9
ATOM      9  O   UNL     1      36.954 -26.863 -12.039  0.00  0.00    -0.379 OA
ATOM     10  H   UNL     1      37.765 -27.398 -12.026  0.00  0.00    +0.211 HD
ENDBRANCH   3   9
BRANCH   4  11
ATOM     11  O   UNL     1      37.897 -22.668 -11.813  0.00  0.00    -0.378 OA
ATOM     12  H   UNL     1      38.568 -22.987 -12.438  0.00  0.00    +0.211 HD
ENDBRANCH   4  11
BRANCH   6  13
ATOM     13  O   UNL     1      35.207 -23.173 -14.204  0.00  0.00    -0.329 OA
BRANCH  13  14
ATOM     14  C   UNL     1      35.090 -22.898 -15.594  0.00  0.00    +0.145 C 
BRANCH  14  15
ATOM     15  C   UNL     1      33.822 -23.555 -16.120  0.00  0.00    +0.032 C 
BRANCH  15  16
ATOM     16  C   UNL     1      33.431 -23.007 -17.491  0.00  0.00    +0.003 C 
BRANCH  16  17
ATOM     17  C   UNL     1      34.637 -22.393 -18.207  0.00  0.00    +0.000 C 
BRANCH  17  18
ATOM     18  C   UNL     1      34.339 -21.972 -19.649  0.00  0.00    +0.000 C 
BRANCH  18  19
ATOM     19  C   UNL     1      35.142 -20.751 -20.104  0.00  0.00    +0.000 C 
BRANCH  19  20
ATOM     20  C   UNL     1      34.247 -19.734 -20.813  0.00  0.00    +0.000 C 
ATOM     21  C   UNL     1      32.774 -20.008 -20.551  0.00  0.00    +0.000 C 
ENDBRANCH  19  20
ENDBRANCH  18  19
ENDBRANCH  17  18
ENDBRANCH  16  17
ENDBRANCH  15  16
ENDBRANCH  14  15
ENDBRANCH  13  14
ENDBRANCH   6  13
BRANCH   5  22
ATOM     22  C   UNL     1      38.054 -26.311 -14.716  0.00  0.00    +0.169 C 
BRANCH  22  23
ATOM     23  O   UNL     1      37.380 -26.808 -15.858  0.00  0.00    -0.379 OA
ATOM     24  H   UNL     1      37.015 -26.066 -16.366  0.00  0.00    +0.211 HD
ENDBRANCH  22  23
ENDBRANCH   5  22
TORSDOF 13
ENDMDL
MODEL 4
REMARK VINA RESULT:      -7.4      1.610      3.614
REMARK  Name = 46937109
REMARK  13 active torsions:
REMARK  status: ('A' for Active; 'I' for Inactive)
REMARK    1  A    between atoms: C_2  and  O_7
REMARK    2  A    between atoms: C_3  and  O_9
REMARK    3  A    between atoms: C_4  and  O_11
REMARK    4  A    between atoms: C_5  and  C_22
REMARK    5  A    between atoms: C_6  and  O_13
REMARK    6  A    between atoms: O_13  and  C_14
REMARK    7  A    between atoms: C_14  and  C_15
REMARK    8  A    between atoms: C_15  and  C_16
REMARK    9  A    between atoms: C_16  and  C_17
REMARK   10  A    between atoms: C_17  and  C_18
REMARK   11  A    between atoms: C_18  and  C_19
REMARK   12  A    between atoms: C_19  and  C_20
REMARK   13  A    between atoms: C_22  and  O_23
REMARK                            x       y       z     vdW  Elec       q    Type
REMARK                         _______ _______ _______ _____ _____    ______ ____
ROOT
ATOM      1  O   UNL     1      35.941 -24.688 -14.554  0.00  0.00    -0.326 OA
ATOM      2  C   UNL     1      37.370 -24.660 -12.042  0.00  0.00    +0.172 C 
ATOM      3  C   UNL     1      35.845 -24.781 -12.130  0.00  0.00    +0.169 C 
ATOM      4  C   UNL     1      38.016 -25.163 -13.337  0.00  0.00    +0.196 C 
ATOM      5  C   UNL     1      35.320 -24.109 -13.402  0.00  0.00    +0.176 C 
ATOM      6  C   UNL     1      37.365 -24.550 -14.583  0.00  0.00    +0.266 C 
ENDROOT
BRANCH   2   7
ATOM      7  O   UNL     1      37.722 -23.293 -11.831  0.00  0.00    -0.379 OA
ATOM      8  H   UNL     1      37.658 -23.085 -10.886  0.00  0.00    +0.211 HD
ENDBRANCH   2   7
BRANCH   3   9
ATOM      9  O   UNL     1      35.242 -24.193 -10.982  0.00  0.00    -0.379 OA
ATOM     10  H   UNL     1      34.392 -23.795 -11.232  0.00  0.00    +0.211 HD
ENDBRANCH   3   9
BRANCH   4  11
ATOM     11  O   UNL     1      37.873 -26.580 -13.416  0.00  0.00    -0.378 OA
ATOM     12  H   UNL     1      36.934 -26.814 -13.349  0.00  0.00    +0.211 HD
ENDBRANCH   4  11
BRANCH   6  13
ATOM     13  O   UNL     1      37.767 -23.190 -14.721  0.00  0.00    -0.329 OA
BRANCH  13  14
ATOM     14  C   UNL     1      38.000 -22.851 -16.081  0.00  0.00    +0.145 C 
BRANCH  14  15
ATOM     15  C   UNL     1      37.090 -21.691 -16.462  0.00  0.00    +0.032 C 
BRANCH  15  16
ATOM     16  C   UNL     1      36.119 -22.079 -17.576  0.00  0.00    +0.003 C 
BRANCH  16  17
ATOM     17  C   UNL     1      36.466 -21.368 -18.887  0.00  0.00    +0.000 C 
BRANCH  17  18
ATOM     18  C   UNL     1      35.295 -21.300 -19.871  0.00  0.00    +0.000 C 
BRANCH  18  19
ATOM     19  C   UNL     1      35.385 -20.120 -20.841  0.00  0.00    +0.000 C 
BRANCH  19  20
ATOM     20  C   UNL     1      34.049 -19.382 -20.938  0.00  0.00    +0.000 C 
ATOM     21  C   UNL     1      32.904 -20.228 -20.403  0.00  0.00    +0.000 C 
ENDBRANCH  19  20
ENDBRANCH  18  19
ENDBRANCH  17  18
ENDBRANCH  16  17
ENDBRANCH  15  16
ENDBRANCH  14  15
ENDBRANCH  13  14
ENDBRANCH   6  13
BRANCH   5  22
ATOM     22  C   UNL     1      33.813 -24.296 -13.557  0.00  0.00    +0.169 C 
BRANCH  22  23
ATOM     23  O   UNL     1      33.156 -23.297 -12.799  0.00  0.00    -0.379 OA
ATOM     24  H   UNL     1      32.771 -23.697 -12.003  0.00  0.00    +0.211 HD
ENDBRANCH  22  23
ENDBRANCH   5  22
TORSDOF 13
ENDMDL
MODEL 5
REMARK VINA RESULT:      -7.4      3.491      5.117
REMARK  Name = 46937109
REMARK  13 active torsions:
REMARK  status: ('A' for Active; 'I' for Inactive)
REMARK    1  A    between atoms: C_2  and  O_7
REMARK    2  A    between atoms: C_3  and  O_9
REMARK    3  A    between atoms: C_4  and  O_11
REMARK    4  A    between atoms: C_5  and  C_22
REMARK    5  A    between atoms: C_6  and  O_13
REMARK    6  A    between atoms: O_13  and  C_14
REMARK    7  A    between atoms: C_14  and  C_15
REMARK    8  A    between atoms: C_15  and  C_16
REMARK    9  A    between atoms: C_16  and  C_17
REMARK   10  A    between atoms: C_17  and  C_18
REMARK   11  A    between atoms: C_18  and  C_19
REMARK   12  A    between atoms: C_19  and  C_20
REMARK   13  A    between atoms: C_22  and  O_23
REMARK                            x       y       z     vdW  Elec       q    Type
REMARK                         _______ _______ _______ _____ _____    ______ ____
ROOT
ATOM      1  O   UNL     1      35.501 -24.574 -13.633  0.00  0.00    -0.326 OA
ATOM      2  C   UNL     1      38.044 -25.539 -14.610  0.00  0.00    +0.172 C 
ATOM      3  C   UNL     1      37.858 -24.970 -13.200  0.00  0.00    +0.169 C 
ATOM      4  C   UNL     1      36.713 -26.077 -15.144  0.00  0.00    +0.196 C 
ATOM      5  C   UNL     1      36.708 -23.958 -13.171  0.00  0.00    +0.176 C 
ATOM      6  C   UNL     1      35.572 -25.066 -14.975  0.00  0.00    +0.266 C 
ENDROOT
BRANCH   2   7
ATOM      7  O   UNL     1      38.525 -24.510 -15.474  0.00  0.00    -0.379 OA
ATOM      8  H   UNL     1      38.423 -23.649 -15.039  0.00  0.00    +0.211 HD
ENDBRANCH   2   7
BRANCH   3   9
ATOM      9  O   UNL     1      39.062 -24.354 -12.759  0.00  0.00    -0.379 OA
ATOM     10  H   UNL     1      39.514 -23.947 -13.516  0.00  0.00    +0.211 HD
ENDBRANCH   3   9
BRANCH   4  11
ATOM     11  O   UNL     1      36.363 -27.262 -14.432  0.00  0.00    -0.378 OA
ATOM     12  H   UNL     1      36.600 -28.039 -14.962  0.00  0.00    +0.211 HD
ENDBRANCH   4  11
BRANCH   6  13
ATOM     13  O   UNL     1      35.711 -24.013 -15.923  0.00  0.00    -0.329 OA
BRANCH  13  14
ATOM     14  C   UNL     1      34.652 -23.072 -15.817  0.00  0.00    +0.145 C 
BRANCH  14  15
ATOM     15  C   UNL     1      33.694 -23.275 -16.983  0.00  0.00    +0.032 C 
BRANCH  15  16
ATOM     16  C   UNL     1      32.240 -23.321 -16.516  0.00  0.00    +0.003 C 
BRANCH  16  17
ATOM     17  C   UNL     1      32.132 -23.052 -15.013  0.00  0.00    +0.000 C 
BRANCH  17  18
ATOM     18  C   UNL     1      30.695 -23.105 -14.487  0.00  0.00    +0.000 C 
BRANCH  18  19
ATOM     19  C   UNL     1      29.645 -22.796 -15.557  0.00  0.00    +0.000 C 
BRANCH  19  20
ATOM     20  C   UNL     1      28.675 -23.964 -15.734  0.00  0.00    +0.000 C 
ATOM     21  C   UNL     1      28.993 -25.103 -14.778  0.00  0.00    +0.000 C 
ENDBRANCH  19  20
ENDBRANCH  18  19
ENDBRANCH  17  18
ENDBRANCH  16  17
ENDBRANCH  15  16
ENDBRANCH  14  15
ENDBRANCH  13  14
ENDBRANCH   6  13
BRANCH   5  22
ATOM     22  C   UNL     1      36.444 -23.446 -11.758  0.00  0.00    +0.169 C 
BRANCH  22  23
ATOM     23  O   UNL     1      37.082 -24.314 -10.838  0.00  0.00    -0.379 OA
ATOM     24  H   UNL     1      36.485 -25.046 -10.619  0.00  0.00    +0.211 HD
ENDBRANCH  22  23
ENDBRANCH   5  22
TORSDOF 13
ENDMDL
MODEL 6
REMARK VINA RESULT:      -7.1      3.414      4.424
REMARK  Name = 46937109
REMARK  13 active torsions:
REMARK  status: ('A' for Active; 'I' for Inactive)
REMARK    1  A    between atoms: C_2  and  O_7
REMARK    2  A    between atoms: C_3  and  O_9
REMARK    3  A    between atoms: C_4  and  O_11
REMARK    4  A    between atoms: C_5  and  C_22
REMARK    5  A    between atoms: C_6  and  O_13
REMARK    6  A    between atoms: O_13  and  C_14
REMARK    7  A    between atoms: C_14  and  C_15
REMARK    8  A    between atoms: C_15  and  C_16
REMARK    9  A    between atoms: C_16  and  C_17
REMARK   10  A    between atoms: C_17  and  C_18
REMARK   11  A    between atoms: C_18  and  C_19
REMARK   12  A    between atoms: C_19  and  C_20
REMARK   13  A    between atoms: C_22  and  O_23
REMARK                            x       y       z     vdW  Elec       q    Type
REMARK                         _______ _______ _______ _____ _____    ______ ____
ROOT
ATOM      1  O   UNL     1      37.368 -24.114 -14.353  0.00  0.00    -0.326 OA
ATOM      2  C   UNL     1      36.461 -24.537 -11.642  0.00  0.00    +0.172 C 
ATOM      3  C   UNL     1      37.302 -25.564 -12.406  0.00  0.00    +0.169 C 
ATOM      4  C   UNL     1      36.695 -23.133 -12.209  0.00  0.00    +0.196 C 
ATOM      5  C   UNL     1      37.067 -25.443 -13.914  0.00  0.00    +0.176 C 
ATOM      6  C   UNL     1      36.568 -23.100 -13.737  0.00  0.00    +0.266 C 
ENDROOT
BRANCH   2   7
ATOM      7  O   UNL     1      35.080 -24.877 -11.760  0.00  0.00    -0.379 OA
ATOM      8  H   UNL     1      34.565 -24.077 -11.949  0.00  0.00    +0.211 HD
ENDBRANCH   2   7
BRANCH   3   9
ATOM      9  O   UNL     1      36.985 -26.879 -11.965  0.00  0.00    -0.379 OA
ATOM     10  H   UNL     1      37.536 -27.105 -11.199  0.00  0.00    +0.211 HD
ENDBRANCH   3   9
BRANCH   4  11
ATOM     11  O   UNL     1      38.008 -22.698 -11.865  0.00  0.00    -0.378 OA
ATOM     12  H   UNL     1      38.469 -23.406 -11.388  0.00  0.00    +0.211 HD
ENDBRANCH   4  11
BRANCH   6  13
ATOM     13  O   UNL     1      35.198 -23.198 -14.113  0.00  0.00    -0.329 OA
BRANCH  13  14
ATOM     14  C   UNL     1      35.005 -22.852 -15.478  0.00  0.00    +0.145 C 
BRANCH  14  15
ATOM     15  C   UNL     1      33.869 -23.694 -16.044  0.00  0.00    +0.032 C 
BRANCH  15  16
ATOM     16  C   UNL     1      33.280 -23.068 -17.307  0.00  0.00    +0.003 C 
BRANCH  16  17
ATOM     17  C   UNL     1      31.785 -22.782 -17.137  0.00  0.00    +0.000 C 
BRANCH  17  18
ATOM     18  C   UNL     1      31.119 -23.644 -16.061  0.00  0.00    +0.000 C 
BRANCH  18  19
ATOM     19  C   UNL     1      29.993 -22.923 -15.316  0.00  0.00    +0.000 C 
BRANCH  19  20
ATOM     20  C   UNL     1      28.650 -23.618 -15.538  0.00  0.00    +0.000 C 
ATOM     21  C   UNL     1      28.204 -23.522 -16.989  0.00  0.00    +0.000 C 
ENDBRANCH  19  20
ENDBRANCH  18  19
ENDBRANCH  17  18
ENDBRANCH  16  17
ENDBRANCH  15  16
ENDBRANCH  14  15
ENDBRANCH  13  14
ENDBRANCH   6  13
BRANCH   5  22
ATOM     22  C   UNL     1      37.963 -26.395 -14.702  0.00  0.00    +0.169 C 
BRANCH  22  23
ATOM     23  O   UNL     1      37.302 -26.742 -15.906  0.00  0.00    -0.379 OA
ATOM     24  H   UNL     1      37.524 -26.095 -16.594  0.00  0.00    +0.211 HD
ENDBRANCH  22  23
ENDBRANCH   5  22
TORSDOF 13
ENDMDL
MODEL 7
REMARK VINA RESULT:      -7.1      1.536      3.004
REMARK  Name = 46937109
REMARK  13 active torsions:
REMARK  status: ('A' for Active; 'I' for Inactive)
REMARK    1  A    between atoms: C_2  and  O_7
REMARK    2  A    between atoms: C_3  and  O_9
REMARK    3  A    between atoms: C_4  and  O_11
REMARK    4  A    between atoms: C_5  and  C_22
REMARK    5  A    between atoms: C_6  and  O_13
REMARK    6  A    between atoms: O_13  and  C_14
REMARK    7  A    between atoms: C_14  and  C_15
REMARK    8  A    between atoms: C_15  and  C_16
REMARK    9  A    between atoms: C_16  and  C_17
REMARK   10  A    between atoms: C_17  and  C_18
REMARK   11  A    between atoms: C_18  and  C_19
REMARK   12  A    between atoms: C_19  and  C_20
REMARK   13  A    between atoms: C_22  and  O_23
REMARK                            x       y       z     vdW  Elec       q    Type
REMARK                         _______ _______ _______ _____ _____    ______ ____
ROOT
ATOM      1  O   UNL     1      35.629 -24.352 -13.743  0.00  0.00    -0.326 OA
ATOM      2  C   UNL     1      37.887 -26.123 -14.089  0.00  0.00    +0.172 C 
ATOM      3  C   UNL     1      37.310 -25.771 -12.714  0.00  0.00    +0.169 C 
ATOM      4  C   UNL     1      36.816 -25.953 -15.172  0.00  0.00    +0.196 C 
ATOM      5  C   UNL     1      36.650 -24.389 -12.741  0.00  0.00    +0.176 C 
ATOM      6  C   UNL     1      36.103 -24.599 -15.071  0.00  0.00    +0.266 C 
ENDROOT
BRANCH   2   7
ATOM      7  O   UNL     1      38.992 -25.265 -14.370  0.00  0.00    -0.379 OA
ATOM      8  H   UNL     1      39.810 -25.786 -14.385  0.00  0.00    +0.211 HD
ENDBRANCH   2   7
BRANCH   3   9
ATOM      9  O   UNL     1      38.338 -25.803 -11.731  0.00  0.00    -0.379 OA
ATOM     10  H   UNL     1      39.181 -25.542 -12.135  0.00  0.00    +0.211 HD
ENDBRANCH   3   9
BRANCH   4  11
ATOM     11  O   UNL     1      35.836 -26.980 -15.032  0.00  0.00    -0.378 OA
ATOM     12  H   UNL     1      35.499 -26.982 -14.122  0.00  0.00    +0.211 HD
ENDBRANCH   4  11
BRANCH   6  13
ATOM     13  O   UNL     1      36.964 -23.561 -15.531  0.00  0.00    -0.329 OA
BRANCH  13  14
ATOM     14  C   UNL     1      36.226 -22.425 -15.964  0.00  0.00    +0.145 C 
BRANCH  14  15
ATOM     15  C   UNL     1      36.870 -21.873 -17.228  0.00  0.00    +0.032 C 
BRANCH  15  16
ATOM     16  C   UNL     1      35.929 -21.970 -18.428  0.00  0.00    +0.003 C 
BRANCH  16  17
ATOM     17  C   UNL     1      36.416 -21.096 -19.586  0.00  0.00    +0.000 C 
BRANCH  17  18
ATOM     18  C   UNL     1      35.278 -20.468 -20.395  0.00  0.00    +0.000 C 
BRANCH  18  19
ATOM     19  C   UNL     1      35.670 -19.156 -21.078  0.00  0.00    +0.000 C 
BRANCH  19  20
ATOM     20  C   UNL     1      34.464 -18.226 -21.223  0.00  0.00    +0.000 C 
ATOM     21  C   UNL     1      34.862 -16.767 -21.060  0.00  0.00    +0.000 C 
ENDBRANCH  19  20
ENDBRANCH  18  19
ENDBRANCH  17  18
ENDBRANCH  16  17
ENDBRANCH  15  16
ENDBRANCH  14  15
ENDBRANCH  13  14
ENDBRANCH   6  13
BRANCH   5  22
ATOM     22  C   UNL     1      35.988 -24.055 -11.406  0.00  0.00    +0.169 C 
BRANCH  22  23
ATOM     23  O   UNL     1      34.984 -25.020 -11.148  0.00  0.00    -0.379 OA
ATOM     24  H   UNL     1      35.319 -25.671 -10.513  0.00  0.00    +0.211 HD
ENDBRANCH  22  23
ENDBRANCH   5  22
TORSDOF 13
ENDMDL
MODEL 8
REMARK VINA RESULT:      -7.1      2.140      4.051
REMARK  Name = 46937109
REMARK  13 active torsions:
REMARK  status: ('A' for Active; 'I' for Inactive)
REMARK    1  A    between atoms: C_2  and  O_7
REMARK    2  A    between atoms: C_3  and  O_9
REMARK    3  A    between atoms: C_4  and  O_11
REMARK    4  A    between atoms: C_5  and  C_22
REMARK    5  A    between atoms: C_6  and  O_13
REMARK    6  A    between atoms: O_13  and  C_14
REMARK    7  A    between atoms: C_14  and  C_15
REMARK    8  A    between atoms: C_15  and  C_16
REMARK    9  A    between atoms: C_16  and  C_17
REMARK   10  A    between atoms: C_17  and  C_18
REMARK   11  A    between atoms: C_18  and  C_19
REMARK   12  A    between atoms: C_19  and  C_20
REMARK   13  A    between atoms: C_22  and  O_23
REMARK                            x       y       z     vdW  Elec       q    Type
REMARK                         _______ _______ _______ _____ _____    ______ ____
ROOT
ATOM      1  O   UNL     1      34.696 -24.037 -16.067  0.00  0.00    -0.326 OA
ATOM      2  C   UNL     1      34.965 -24.518 -13.230  0.00  0.00    +0.172 C 
ATOM      3  C   UNL     1      33.606 -24.398 -13.927  0.00  0.00    +0.169 C 
ATOM      4  C   UNL     1      36.037 -24.957 -14.232  0.00  0.00    +0.196 C 
ATOM      5  C   UNL     1      33.711 -23.511 -15.171  0.00  0.00    +0.176 C 
ATOM      6  C   UNL     1      36.012 -24.111 -15.511  0.00  0.00    +0.266 C 
ENDROOT
BRANCH   2   7
ATOM      7  O   UNL     1      35.320 -23.254 -12.671  0.00  0.00    -0.379 OA
ATOM      8  H   UNL     1      34.832 -22.550 -13.126  0.00  0.00    +0.211 HD
ENDBRANCH   2   7
BRANCH   3   9
ATOM      9  O   UNL     1      32.640 -23.866 -13.027  0.00  0.00    -0.379 OA
ATOM     10  H   UNL     1      32.788 -22.912 -12.921  0.00  0.00    +0.211 HD
ENDBRANCH   3   9
BRANCH   4  11
ATOM     11  O   UNL     1      35.814 -26.317 -14.597  0.00  0.00    -0.378 OA
ATOM     12  H   UNL     1      36.356 -26.537 -15.371  0.00  0.00    +0.211 HD
ENDBRANCH   4  11
BRANCH   6  13
ATOM     13  O   UNL     1      36.555 -22.820 -15.250  0.00  0.00    -0.329 OA
BRANCH  13  14
ATOM     14  C   UNL     1      37.624 -22.515 -16.135  0.00  0.00    +0.145 C 
BRANCH  14  15
ATOM     15  C   UNL     1      37.233 -21.313 -16.985  0.00  0.00    +0.032 C 
BRANCH  15  16
ATOM     16  C   UNL     1      36.234 -21.696 -18.075  0.00  0.00    +0.003 C 
BRANCH  16  17
ATOM     17  C   UNL     1      36.687 -21.185 -19.445  0.00  0.00    +0.000 C 
BRANCH  17  18
ATOM     18  C   UNL     1      35.526 -20.898 -20.401  0.00  0.00    +0.000 C 
BRANCH  18  19
ATOM     19  C   UNL     1      34.151 -21.188 -19.793  0.00  0.00    +0.000 C 
BRANCH  19  20
ATOM     20  C   UNL     1      33.078 -20.279 -20.393  0.00  0.00    +0.000 C 
ATOM     21  C   UNL     1      33.693 -19.089 -21.113  0.00  0.00    +0.000 C 
ENDBRANCH  19  20
ENDBRANCH  18  19
ENDBRANCH  17  18
ENDBRANCH  16  17
ENDBRANCH  15  16
ENDBRANCH  14  15
ENDBRANCH  13  14
ENDBRANCH   6  13
BRANCH   5  22
ATOM     22  C   UNL     1      32.390 -23.451 -15.934  0.00  0.00    +0.169 C 
BRANCH  22  23
ATOM     23  O   UNL     1      31.468 -22.689 -15.176  0.00  0.00    -0.379 OA
ATOM     24  H   UNL     1      30.623 -23.161 -15.127  0.00  0.00    +0.211 HD
ENDBRANCH  22  23
ENDBRANCH   5  22
TORSDOF 13
ENDMDL
MODEL 9
REMARK VINA RESULT:      -6.8      7.859     10.771
REMARK  Name = 46937109
REMARK  13 active torsions:
REMARK  status: ('A' for Active; 'I' for Inactive)
REMARK    1  A    between atoms: C_2  and  O_7
REMARK    2  A    between atoms: C_3  and  O_9
REMARK    3  A    between atoms: C_4  and  O_11
REMARK    4  A    between atoms: C_5  and  C_22
REMARK    5  A    between atoms: C_6  and  O_13
REMARK    6  A    between atoms: O_13  and  C_14
REMARK    7  A    between atoms: C_14  and  C_15
REMARK    8  A    between atoms: C_15  and  C_16
REMARK    9  A    between atoms: C_16  and  C_17
REMARK   10  A    between atoms: C_17  and  C_18
REMARK   11  A    between atoms: C_18  and  C_19
REMARK   12  A    between atoms: C_19  and  C_20
REMARK   13  A    between atoms: C_22  and  O_23
REMARK                            x       y       z     vdW  Elec       q    Type
REMARK                         _______ _______ _______ _____ _____    ______ ____
ROOT
ATOM      1  O   UNL     1      35.463 -16.561 -22.866  0.00  0.00    -0.326 OA
ATOM      2  C   UNL     1      34.967 -19.367 -22.385  0.00  0.00    +0.172 C 
ATOM      3  C   UNL     1      35.078 -18.772 -23.792  0.00  0.00    +0.169 C 
ATOM      4  C   UNL     1      35.724 -18.493 -21.379  0.00  0.00    +0.196 C 
ATOM      5  C   UNL     1      34.660 -17.299 -23.793  0.00  0.00    +0.176 C 
ATOM      6  C   UNL     1      35.355 -17.010 -21.512  0.00  0.00    +0.266 C 
ENDROOT
BRANCH   2   7
ATOM      7  O   UNL     1      33.591 -19.443 -22.013  0.00  0.00    -0.379 OA
ATOM      8  H   UNL     1      33.201 -20.252 -22.379  0.00  0.00    +0.211 HD
ENDBRANCH   2   7
BRANCH   3   9
ATOM      9  O   UNL     1      34.269 -19.511 -24.700  0.00  0.00    -0.379 OA
ATOM     10  H   UNL     1      33.403 -19.080 -24.785  0.00  0.00    +0.211 HD
ENDBRANCH   3   9
BRANCH   4  11
ATOM     11  O   UNL     1      37.126 -18.622 -21.603  0.00  0.00    -0.378 OA
ATOM     12  H   UNL     1      37.547 -18.994 -20.813  0.00  0.00    +0.211 HD
ENDBRANCH   4  11
BRANCH   6  13
ATOM     13  O   UNL     1      34.055 -16.783 -20.975  0.00  0.00    -0.329 OA
BRANCH  13  14
ATOM     14  C   UNL     1      33.894 -15.436 -20.552  0.00  0.00    +0.145 C 
BRANCH  14  15
ATOM     15  C   UNL     1      32.658 -14.853 -21.224  0.00  0.00    +0.032 C 
BRANCH  15  16
ATOM     16  C   UNL     1      32.348 -13.447 -20.714  0.00  0.00    +0.003 C 
BRANCH  16  17
ATOM     17  C   UNL     1      31.914 -12.526 -21.857  0.00  0.00    +0.000 C 
BRANCH  17  18
ATOM     18  C   UNL     1      31.279 -11.218 -21.377  0.00  0.00    +0.000 C 
BRANCH  18  19
ATOM     19  C   UNL     1      31.109 -11.148 -19.857  0.00  0.00    +0.000 C 
BRANCH  19  20
ATOM     20  C   UNL     1      31.935 -10.007 -19.261  0.00  0.00    +0.000 C 
ATOM     21  C   UNL     1      32.219  -8.925 -20.292  0.00  0.00    +0.000 C 
ENDBRANCH  19  20
ENDBRANCH  18  19
ENDBRANCH  17  18
ENDBRANCH  16  17
ENDBRANCH  15  16
ENDBRANCH  14  15
ENDBRANCH  13  14
ENDBRANCH   6  13
BRANCH   5  22
ATOM     22  C   UNL     1      34.850 -16.661 -25.166  0.00  0.00    +0.169 C 
BRANCH  22  23
ATOM     23  O   UNL     1      33.682 -16.889 -25.934  0.00  0.00    -0.379 OA
ATOM     24  H   UNL     1      33.161 -16.073 -25.979  0.00  0.00    +0.211 HD
ENDBRANCH  22  23
ENDBRANCH   5  22
TORSDOF 13
ENDMDL
