MODEL 1
REMARK VINA RESULT:      -9.9      0.000      0.000
REMARK  Name = 24864082
REMARK  4 active torsions:
REMARK  status: ('A' for Active; 'I' for Inactive)
REMARK    1  A    between atoms: C_3  and  C_9
REMARK    2  A    between atoms: C_4  and  N_20
REMARK    3  A    between atoms: N_8  and  C_12
REMARK    4  A    between atoms: C_21  and  C_25
REMARK                            x       y       z     vdW  Elec       q    Type
REMARK                         _______ _______ _______ _____ _____    ______ ____
ROOT
ATOM      1  N   UNL     1      32.899 -24.252 -15.146  0.00  0.00    -0.230 N 
ATOM      2  N   UNL     1      31.630 -24.107 -15.565  0.00  0.00    -0.178 NA
ATOM      3  C   UNL     1      33.804 -23.535 -15.871  0.00  0.00    +0.133 C 
ATOM      4  C   UNL     1      33.078 -22.875 -16.833  0.00  0.00    +0.091 C 
ATOM      5  C   UNL     1      31.746 -23.266 -16.596  0.00  0.00    +0.134 C 
ATOM      6  H   UNL     1      33.152 -24.822 -14.385  0.00  0.00    +0.175 HD
ENDROOT
BRANCH   3   9
ATOM      7  O   UNL     1      35.904 -22.492 -15.796  0.00  0.00    -0.269 OA
ATOM      8  N   UNL     1      35.806 -24.713 -15.138  0.00  0.00    -0.303 N 
ATOM      9  C   UNL     1      35.266 -23.525 -15.609  0.00  0.00    +0.262 C 
ATOM     10  H   UNL     1      35.212 -25.490 -15.021  0.00  0.00    +0.150 HD
BRANCH   8  12
ATOM     11  N   UNL     1      37.033 -27.004 -13.568  0.00  0.00    +0.385 N 
ATOM     12  C   UNL     1      37.208 -24.855 -14.812  0.00  0.00    +0.051 C 
ATOM     13  C   UNL     1      37.547 -24.129 -13.507  0.00  0.00    +0.015 C 
ATOM     14  C   UNL     1      37.012 -24.886 -12.293  0.00  0.00    -0.022 C 
ATOM     15  C   UNL     1      37.612 -26.333 -14.735  0.00  0.00    -0.062 C 
ATOM     16  C   UNL     1      37.436 -26.352 -12.321  0.00  0.00    -0.082 C 
ATOM     17  H   UNL     1      37.348 -27.973 -13.552  0.00  0.00    -0.084 HD
ATOM     18  H   UNL     1      36.016 -26.954 -13.641  0.00  0.00    -0.084 HD
ENDBRANCH   8  12
ENDBRANCH   3   9
BRANCH   4  20
ATOM     19  O   UNL     1      34.102 -23.464 -19.588  0.00  0.00    -0.270 OA
ATOM     20  N   UNL     1      33.560 -22.028 -17.801  0.00  0.00    -0.278 N 
ATOM     21  C   UNL     1      34.036 -22.343 -19.094  0.00  0.00    +0.254 C 
ATOM     22  H   UNL     1      33.575 -21.073 -17.562  0.00  0.00    +0.155 HD
BRANCH  21  25
ATOM     23  F   UNL     1      36.763 -21.640 -19.261  0.00  0.00    -0.204 F 
ATOM     24  F   UNL     1      32.303 -20.699 -20.596  0.00  0.00    -0.204 F 
ATOM     25  C   UNL     1      34.522 -21.198 -19.909  0.00  0.00    +0.108 C 
ATOM     26  C   UNL     1      35.883 -20.900 -19.951  0.00  0.00    +0.147 C 
ATOM     27  C   UNL     1      33.615 -20.422 -20.630  0.00  0.00    +0.147 C 
ATOM     28  C   UNL     1      36.339 -19.825 -20.715  0.00  0.00    +0.030 C 
ATOM     29  C   UNL     1      34.070 -19.347 -21.394  0.00  0.00    +0.030 C 
ATOM     30  C   UNL     1      35.432 -19.049 -21.436  0.00  0.00    +0.005 C 
ENDBRANCH  21  25
ENDBRANCH   4  20
TORSDOF 4
ENDMDL
MODEL 2
REMARK VINA RESULT:      -9.9      0.148      1.661
REMARK  Name = 24864082
REMARK  4 active torsions:
REMARK  status: ('A' for Active; 'I' for Inactive)
REMARK    1  A    between atoms: C_3  and  C_9
REMARK    2  A    between atoms: C_4  and  N_20
REMARK    3  A    between atoms: N_8  and  C_12
REMARK    4  A    between atoms: C_21  and  C_25
REMARK                            x       y       z     vdW  Elec       q    Type
REMARK                         _______ _______ _______ _____ _____    ______ ____
ROOT
ATOM      1  N   UNL     1      32.738 -24.249 -15.103  0.00  0.00    -0.230 N 
ATOM      2  N   UNL     1      31.486 -24.136 -15.579  0.00  0.00    -0.178 NA
ATOM      3  C   UNL     1      33.660 -23.526 -15.801  0.00  0.00    +0.133 C 
ATOM      4  C   UNL     1      32.964 -22.897 -16.804  0.00  0.00    +0.091 C 
ATOM      5  C   UNL     1      31.631 -23.310 -16.618  0.00  0.00    +0.134 C 
ATOM      6  H   UNL     1      32.968 -24.801 -14.321  0.00  0.00    +0.175 HD
ENDROOT
BRANCH   3   9
ATOM      7  O   UNL     1      35.688 -22.400 -15.452  0.00  0.00    -0.269 OA
ATOM      8  N   UNL     1      35.704 -24.705 -15.194  0.00  0.00    -0.303 N 
ATOM      9  C   UNL     1      35.109 -23.483 -15.475  0.00  0.00    +0.262 C 
ATOM     10  H   UNL     1      35.155 -25.521 -15.240  0.00  0.00    +0.150 HD
BRANCH   8  12
ATOM     11  N   UNL     1      36.944 -27.019 -13.671  0.00  0.00    +0.385 N 
ATOM     12  C   UNL     1      37.100 -24.825 -14.836  0.00  0.00    +0.051 C 
ATOM     13  C   UNL     1      37.387 -24.137 -13.498  0.00  0.00    +0.015 C 
ATOM     14  C   UNL     1      36.839 -24.948 -12.326  0.00  0.00    -0.022 C 
ATOM     15  C   UNL     1      37.537 -26.295 -14.798  0.00  0.00    -0.062 C 
ATOM     16  C   UNL     1      37.299 -26.402 -12.392  0.00  0.00    -0.082 C 
ATOM     17  H   UNL     1      37.283 -27.981 -13.680  0.00  0.00    -0.084 HD
ATOM     18  H   UNL     1      35.929 -26.991 -13.770  0.00  0.00    -0.084 HD
ENDBRANCH   8  12
ENDBRANCH   3   9
BRANCH   4  20
ATOM     19  O   UNL     1      34.072 -23.508 -19.522  0.00  0.00    -0.270 OA
ATOM     20  N   UNL     1      33.472 -22.057 -17.766  0.00  0.00    -0.278 N 
ATOM     21  C   UNL     1      33.987 -22.382 -19.041  0.00  0.00    +0.254 C 
ATOM     22  H   UNL     1      33.476 -21.100 -17.535  0.00  0.00    +0.155 HD
BRANCH  21  25
ATOM     23  F   UNL     1      32.285 -20.706 -20.542  0.00  0.00    -0.204 F 
ATOM     24  F   UNL     1      36.727 -21.725 -19.202  0.00  0.00    -0.204 F 
ATOM     25  C   UNL     1      34.493 -21.243 -19.852  0.00  0.00    +0.108 C 
ATOM     26  C   UNL     1      33.601 -20.451 -20.573  0.00  0.00    +0.147 C 
ATOM     27  C   UNL     1      35.859 -20.969 -19.891  0.00  0.00    +0.147 C 
ATOM     28  C   UNL     1      34.075 -19.382 -21.334  0.00  0.00    +0.030 C 
ATOM     29  C   UNL     1      36.334 -19.900 -20.653  0.00  0.00    +0.030 C 
ATOM     30  C   UNL     1      35.442 -19.108 -21.374  0.00  0.00    +0.005 C 
ENDBRANCH  21  25
ENDBRANCH   4  20
TORSDOF 4
ENDMDL
MODEL 3
REMARK VINA RESULT:      -9.2      8.942     13.650
REMARK  Name = 24864082
REMARK  4 active torsions:
REMARK  status: ('A' for Active; 'I' for Inactive)
REMARK    1  A    between atoms: C_3  and  C_9
REMARK    2  A    between atoms: C_4  and  N_20
REMARK    3  A    between atoms: N_8  and  C_12
REMARK    4  A    between atoms: C_21  and  C_25
REMARK                            x       y       z     vdW  Elec       q    Type
REMARK                         _______ _______ _______ _____ _____    ______ ____
ROOT
ATOM      1  N   UNL     1      33.106 -12.325 -26.617  0.00  0.00    -0.230 N 
ATOM      2  N   UNL     1      32.979 -13.255 -27.579  0.00  0.00    -0.178 NA
ATOM      3  C   UNL     1      33.418 -12.838 -25.392  0.00  0.00    +0.133 C 
ATOM      4  C   UNL     1      33.500 -14.198 -25.565  0.00  0.00    +0.091 C 
ATOM      5  C   UNL     1      33.221 -14.396 -26.931  0.00  0.00    +0.134 C 
ATOM      6  H   UNL     1      32.985 -11.362 -26.781  0.00  0.00    +0.175 HD
ENDROOT
BRANCH   3   9
ATOM      7  O   UNL     1      33.820 -12.582 -23.096  0.00  0.00    -0.269 OA
ATOM      8  N   UNL     1      33.562 -10.644 -24.343  0.00  0.00    -0.303 N 
ATOM      9  C   UNL     1      33.611 -12.020 -24.168  0.00  0.00    +0.262 C 
ATOM     10  H   UNL     1      33.387 -10.288 -25.244  0.00  0.00    +0.150 HD
BRANCH   8  12
ATOM     11  N   UNL     1      31.799  -8.251 -23.727  0.00  0.00    +0.385 N 
ATOM     12  C   UNL     1      33.756  -9.714 -23.253  0.00  0.00    +0.051 C 
ATOM     13  C   UNL     1      34.701  -8.579 -23.659  0.00  0.00    +0.015 C 
ATOM     14  C   UNL     1      34.015  -7.595 -24.604  0.00  0.00    -0.022 C 
ATOM     15  C   UNL     1      32.416  -9.157 -22.755  0.00  0.00    -0.062 C 
ATOM     16  C   UNL     1      32.677  -7.122 -24.039  0.00  0.00    -0.082 C 
ATOM     17  H   UNL     1      30.926  -7.894 -23.339  0.00  0.00    -0.084 HD
ATOM     18  H   UNL     1      31.627  -8.772 -24.587  0.00  0.00    -0.084 HD
ENDBRANCH   8  12
ENDBRANCH   3   9
BRANCH   4  20
ATOM     19  O   UNL     1      35.074 -16.742 -25.764  0.00  0.00    -0.270 OA
ATOM     20  N   UNL     1      33.792 -15.140 -24.607  0.00  0.00    -0.278 N 
ATOM     21  C   UNL     1      34.540 -16.331 -24.739  0.00  0.00    +0.254 C 
ATOM     22  H   UNL     1      33.431 -14.959 -23.709  0.00  0.00    +0.155 HD
BRANCH  21  25
ATOM     23  F   UNL     1      35.025 -15.232 -22.186  0.00  0.00    -0.204 F 
ATOM     24  F   UNL     1      34.301 -19.143 -24.783  0.00  0.00    -0.204 F 
ATOM     25  C   UNL     1      34.660 -17.167 -23.514  0.00  0.00    +0.108 C 
ATOM     26  C   UNL     1      34.901 -16.564 -22.280  0.00  0.00    +0.147 C 
ATOM     27  C   UNL     1      34.532 -18.553 -23.602  0.00  0.00    +0.147 C 
ATOM     28  C   UNL     1      35.014 -17.348 -21.132  0.00  0.00    +0.030 C 
ATOM     29  C   UNL     1      34.645 -19.336 -22.453  0.00  0.00    +0.030 C 
ATOM     30  C   UNL     1      34.887 -18.734 -21.219  0.00  0.00    +0.005 C 
ENDBRANCH  21  25
ENDBRANCH   4  20
TORSDOF 4
ENDMDL
MODEL 4
REMARK VINA RESULT:      -9.2      3.156      7.846
REMARK  Name = 24864082
REMARK  4 active torsions:
REMARK  status: ('A' for Active; 'I' for Inactive)
REMARK    1  A    between atoms: C_3  and  C_9
REMARK    2  A    between atoms: C_4  and  N_20
REMARK    3  A    between atoms: N_8  and  C_12
REMARK    4  A    between atoms: C_21  and  C_25
REMARK                            x       y       z     vdW  Elec       q    Type
REMARK                         _______ _______ _______ _____ _____    ______ ____
ROOT
ATOM      1  N   UNL     1      36.402 -21.720 -18.399  0.00  0.00    -0.230 N 
ATOM      2  N   UNL     1      36.980 -22.276 -17.320  0.00  0.00    -0.178 NA
ATOM      3  C   UNL     1      35.053 -21.905 -18.459  0.00  0.00    +0.133 C 
ATOM      4  C   UNL     1      34.724 -22.635 -17.343  0.00  0.00    +0.091 C 
ATOM      5  C   UNL     1      35.950 -22.834 -16.679  0.00  0.00    +0.134 C 
ATOM      6  H   UNL     1      36.907 -21.223 -19.083  0.00  0.00    +0.175 HD
ENDROOT
BRANCH   3   9
ATOM      7  O   UNL     1      33.106 -21.933 -19.767  0.00  0.00    -0.269 OA
ATOM      8  N   UNL     1      34.670 -20.288 -20.241  0.00  0.00    -0.303 N 
ATOM      9  C   UNL     1      34.185 -21.390 -19.549  0.00  0.00    +0.262 C 
ATOM     10  H   UNL     1      35.550 -19.923 -19.992  0.00  0.00    +0.150 HD
BRANCH   8  12
ATOM     11  N   UNL     1      35.884 -18.707 -22.530  0.00  0.00    +0.385 N 
ATOM     12  C   UNL     1      33.932 -19.656 -21.311  0.00  0.00    +0.051 C 
ATOM     13  C   UNL     1      33.492 -18.242 -20.918  0.00  0.00    +0.015 C 
ATOM     14  C   UNL     1      34.671 -17.271 -20.925  0.00  0.00    -0.022 C 
ATOM     15  C   UNL     1      34.750 -19.632 -22.609  0.00  0.00    -0.062 C 
ATOM     16  C   UNL     1      35.443 -17.342 -22.241  0.00  0.00    -0.082 C 
ATOM     17  H   UNL     1      36.379 -18.713 -23.421  0.00  0.00    -0.084 HD
ATOM     18  H   UNL     1      36.496 -19.013 -21.773  0.00  0.00    -0.084 HD
ENDBRANCH   8  12
ENDBRANCH   3   9
BRANCH   4  20
ATOM     19  O   UNL     1      33.504 -22.930 -14.620  0.00  0.00    -0.270 OA
ATOM     20  N   UNL     1      33.472 -23.065 -16.972  0.00  0.00    -0.278 N 
ATOM     21  C   UNL     1      32.931 -23.191 -15.672  0.00  0.00    +0.254 C 
ATOM     22  H   UNL     1      32.874 -23.318 -17.711  0.00  0.00    +0.155 HD
BRANCH  21  25
ATOM     23  F   UNL     1      30.791 -22.071 -17.132  0.00  0.00    -0.204 F 
ATOM     24  F   UNL     1      32.223 -25.386 -14.046  0.00  0.00    -0.204 F 
ATOM     25  C   UNL     1      31.542 -23.716 -15.592  0.00  0.00    +0.108 C 
ATOM     26  C   UNL     1      30.526 -23.119 -16.338  0.00  0.00    +0.147 C 
ATOM     27  C   UNL     1      31.255 -24.804 -14.768  0.00  0.00    +0.147 C 
ATOM     28  C   UNL     1      29.223 -23.610 -16.261  0.00  0.00    +0.030 C 
ATOM     29  C   UNL     1      29.951 -25.296 -14.692  0.00  0.00    +0.030 C 
ATOM     30  C   UNL     1      28.936 -24.699 -15.438  0.00  0.00    +0.005 C 
ENDBRANCH  21  25
ENDBRANCH   4  20
TORSDOF 4
ENDMDL
MODEL 5
REMARK VINA RESULT:      -9.1      2.042      4.506
REMARK  Name = 24864082
REMARK  4 active torsions:
REMARK  status: ('A' for Active; 'I' for Inactive)
REMARK    1  A    between atoms: C_3  and  C_9
REMARK    2  A    between atoms: C_4  and  N_20
REMARK    3  A    between atoms: N_8  and  C_12
REMARK    4  A    between atoms: C_21  and  C_25
REMARK                            x       y       z     vdW  Elec       q    Type
REMARK                         _______ _______ _______ _____ _____    ______ ____
ROOT
ATOM      1  N   UNL     1      35.018 -24.191 -14.970  0.00  0.00    -0.230 N 
ATOM      2  N   UNL     1      36.357 -24.244 -15.074  0.00  0.00    -0.178 NA
ATOM      3  C   UNL     1      34.429 -23.348 -15.866  0.00  0.00    +0.133 C 
ATOM      4  C   UNL     1      35.453 -22.812 -16.607  0.00  0.00    +0.091 C 
ATOM      5  C   UNL     1      36.617 -23.400 -16.075  0.00  0.00    +0.134 C 
ATOM      6  H   UNL     1      34.509 -24.713 -14.308  0.00  0.00    +0.175 HD
ENDROOT
BRANCH   3   9
ATOM      7  O   UNL     1      32.457 -22.890 -17.050  0.00  0.00    -0.269 OA
ATOM      8  N   UNL     1      32.264 -23.191 -14.759  0.00  0.00    -0.303 N 
ATOM      9  C   UNL     1      32.965 -23.114 -15.955  0.00  0.00    +0.262 C 
ATOM     10  H   UNL     1      32.762 -23.375 -13.930  0.00  0.00    +0.150 HD
BRANCH   8  12
ATOM     11  N   UNL     1      30.322 -25.042 -13.338  0.00  0.00    +0.385 N 
ATOM     12  C   UNL     1      30.831 -23.011 -14.685  0.00  0.00    +0.051 C 
ATOM     13  C   UNL     1      30.133 -23.641 -15.895  0.00  0.00    +0.015 C 
ATOM     14  C   UNL     1      30.120 -25.165 -15.799  0.00  0.00    -0.022 C 
ATOM     15  C   UNL     1      30.269 -23.578 -13.375  0.00  0.00    -0.062 C 
ATOM     16  C   UNL     1      29.577 -25.633 -14.450  0.00  0.00    -0.082 C 
ATOM     17  H   UNL     1      29.919 -25.366 -12.459  0.00  0.00    -0.084 HD
ATOM     18  H   UNL     1      31.298 -25.329 -13.417  0.00  0.00    -0.084 HD
ENDBRANCH   8  12
ENDBRANCH   3   9
BRANCH   4  20
ATOM     19  O   UNL     1      34.610 -23.204 -19.458  0.00  0.00    -0.270 OA
ATOM     20  N   UNL     1      35.347 -21.906 -17.635  0.00  0.00    -0.278 N 
ATOM     21  C   UNL     1      34.944 -22.128 -18.971  0.00  0.00    +0.254 C 
ATOM     22  H   UNL     1      35.583 -20.977 -17.409  0.00  0.00    +0.155 HD
BRANCH  21  25
ATOM     23  F   UNL     1      32.593 -20.763 -19.725  0.00  0.00    -0.204 F 
ATOM     24  F   UNL     1      37.323 -21.059 -20.049  0.00  0.00    -0.204 F 
ATOM     25  C   UNL     1      34.957 -20.940 -19.865  0.00  0.00    +0.108 C 
ATOM     26  C   UNL     1      33.761 -20.308 -20.202  0.00  0.00    +0.147 C 
ATOM     27  C   UNL     1      36.166 -20.459 -20.366  0.00  0.00    +0.147 C 
ATOM     28  C   UNL     1      33.773 -19.193 -21.041  0.00  0.00    +0.030 C 
ATOM     29  C   UNL     1      36.178 -19.344 -21.205  0.00  0.00    +0.030 C 
ATOM     30  C   UNL     1      34.982 -18.712 -21.542  0.00  0.00    +0.005 C 
ENDBRANCH  21  25
ENDBRANCH   4  20
TORSDOF 4
ENDMDL
MODEL 6
REMARK VINA RESULT:      -9.1      2.040      4.216
REMARK  Name = 24864082
REMARK  4 active torsions:
REMARK  status: ('A' for Active; 'I' for Inactive)
REMARK    1  A    between atoms: C_3  and  C_9
REMARK    2  A    between atoms: C_4  and  N_20
REMARK    3  A    between atoms: N_8  and  C_12
REMARK    4  A    between atoms: C_21  and  C_25
REMARK                            x       y       z     vdW  Elec       q    Type
REMARK                         _______ _______ _______ _____ _____    ______ ____
ROOT
ATOM      1  N   UNL     1      35.016 -24.193 -14.967  0.00  0.00    -0.230 N 
ATOM      2  N   UNL     1      36.356 -24.247 -15.070  0.00  0.00    -0.178 NA
ATOM      3  C   UNL     1      34.428 -23.350 -15.863  0.00  0.00    +0.133 C 
ATOM      4  C   UNL     1      35.453 -22.813 -16.603  0.00  0.00    +0.091 C 
ATOM      5  C   UNL     1      36.616 -23.402 -16.070  0.00  0.00    +0.134 C 
ATOM      6  H   UNL     1      34.507 -24.715 -14.306  0.00  0.00    +0.175 HD
ENDROOT
BRANCH   3   9
ATOM      7  O   UNL     1      32.457 -22.893 -17.050  0.00  0.00    -0.269 OA
ATOM      8  N   UNL     1      32.263 -23.188 -14.758  0.00  0.00    -0.303 N 
ATOM      9  C   UNL     1      32.964 -23.115 -15.953  0.00  0.00    +0.262 C 
ATOM     10  H   UNL     1      32.761 -23.370 -13.928  0.00  0.00    +0.150 HD
BRANCH   8  12
ATOM     11  N   UNL     1      30.319 -25.040 -13.343  0.00  0.00    +0.385 N 
ATOM     12  C   UNL     1      30.830 -23.007 -14.685  0.00  0.00    +0.051 C 
ATOM     13  C   UNL     1      30.133 -23.634 -15.897  0.00  0.00    +0.015 C 
ATOM     14  C   UNL     1      30.119 -25.158 -15.804  0.00  0.00    -0.022 C 
ATOM     15  C   UNL     1      30.266 -23.576 -13.376  0.00  0.00    -0.062 C 
ATOM     16  C   UNL     1      29.574 -25.628 -14.457  0.00  0.00    -0.082 C 
ATOM     17  H   UNL     1      29.914 -25.366 -12.465  0.00  0.00    -0.084 HD
ATOM     18  H   UNL     1      31.294 -25.328 -13.421  0.00  0.00    -0.084 HD
ENDBRANCH   8  12
ENDBRANCH   3   9
BRANCH   4  20
ATOM     19  O   UNL     1      34.625 -23.206 -19.457  0.00  0.00    -0.270 OA
ATOM     20  N   UNL     1      35.349 -21.906 -17.630  0.00  0.00    -0.278 N 
ATOM     21  C   UNL     1      34.953 -22.129 -18.969  0.00  0.00    +0.254 C 
ATOM     22  H   UNL     1      35.580 -20.977 -17.403  0.00  0.00    +0.155 HD
BRANCH  21  25
ATOM     23  F   UNL     1      37.331 -21.051 -20.037  0.00  0.00    -0.204 F 
ATOM     24  F   UNL     1      32.600 -20.768 -19.728  0.00  0.00    -0.204 F 
ATOM     25  C   UNL     1      34.965 -20.940 -19.861  0.00  0.00    +0.108 C 
ATOM     26  C   UNL     1      36.174 -20.453 -20.357  0.00  0.00    +0.147 C 
ATOM     27  C   UNL     1      33.768 -20.310 -20.200  0.00  0.00    +0.147 C 
ATOM     28  C   UNL     1      36.187 -19.336 -21.193  0.00  0.00    +0.030 C 
ATOM     29  C   UNL     1      33.780 -19.193 -21.036  0.00  0.00    +0.030 C 
ATOM     30  C   UNL     1      34.989 -18.707 -21.532  0.00  0.00    +0.005 C 
ENDBRANCH  21  25
ENDBRANCH   4  20
TORSDOF 4
ENDMDL
MODEL 7
REMARK VINA RESULT:      -9.1      2.226      4.819
REMARK  Name = 24864082
REMARK  4 active torsions:
REMARK  status: ('A' for Active; 'I' for Inactive)
REMARK    1  A    between atoms: C_3  and  C_9
REMARK    2  A    between atoms: C_4  and  N_20
REMARK    3  A    between atoms: N_8  and  C_12
REMARK    4  A    between atoms: C_21  and  C_25
REMARK                            x       y       z     vdW  Elec       q    Type
REMARK                         _______ _______ _______ _____ _____    ______ ____
ROOT
ATOM      1  N   UNL     1      36.425 -25.956 -12.715  0.00  0.00    -0.230 N 
ATOM      2  N   UNL     1      37.478 -26.540 -13.312  0.00  0.00    -0.178 NA
ATOM      3  C   UNL     1      35.762 -25.069 -13.510  0.00  0.00    +0.133 C 
ATOM      4  C   UNL     1      36.428 -25.070 -14.711  0.00  0.00    +0.091 C 
ATOM      5  C   UNL     1      37.475 -25.994 -14.531  0.00  0.00    +0.134 C 
ATOM      6  H   UNL     1      36.156 -26.153 -11.788  0.00  0.00    +0.175 HD
ENDROOT
BRANCH   3   9
ATOM      7  O   UNL     1      34.644 -23.559 -12.105  0.00  0.00    -0.269 OA
ATOM      8  N   UNL     1      33.430 -24.456 -13.865  0.00  0.00    -0.303 N 
ATOM      9  C   UNL     1      34.567 -24.296 -13.084  0.00  0.00    +0.262 C 
ATOM     10  H   UNL     1      33.467 -25.073 -14.632  0.00  0.00    +0.150 HD
BRANCH   8  12
ATOM     11  N   UNL     1      30.638 -25.533 -14.371  0.00  0.00    +0.385 N 
ATOM     12  C   UNL     1      32.196 -23.754 -13.594  0.00  0.00    +0.051 C 
ATOM     13  C   UNL     1      31.788 -22.879 -14.784  0.00  0.00    +0.015 C 
ATOM     14  C   UNL     1      31.255 -23.724 -15.939  0.00  0.00    -0.022 C 
ATOM     15  C   UNL     1      31.072 -24.731 -13.225  0.00  0.00    -0.062 C 
ATOM     16  C   UNL     1      30.167 -24.686 -15.469  0.00  0.00    -0.082 C 
ATOM     17  H   UNL     1      29.878 -26.147 -14.078  0.00  0.00    -0.084 HD
ATOM     18  H   UNL     1      31.435 -26.075 -14.704  0.00  0.00    -0.084 HD
ENDBRANCH   8  12
ENDBRANCH   3   9
BRANCH   4  20
ATOM     19  O   UNL     1      36.126 -22.107 -15.048  0.00  0.00    -0.270 OA
ATOM     20  N   UNL     1      36.125 -24.329 -15.828  0.00  0.00    -0.278 N 
ATOM     21  C   UNL     1      35.991 -22.928 -15.949  0.00  0.00    +0.254 C 
ATOM     22  H   UNL     1      35.984 -24.845 -16.655  0.00  0.00    +0.155 HD
BRANCH  21  25
ATOM     23  F   UNL     1      37.609 -21.115 -17.383  0.00  0.00    -0.204 F 
ATOM     24  F   UNL     1      33.626 -23.700 -17.281  0.00  0.00    -0.204 F 
ATOM     25  C   UNL     1      35.627 -22.420 -17.299  0.00  0.00    +0.108 C 
ATOM     26  C   UNL     1      36.468 -21.524 -17.957  0.00  0.00    +0.147 C 
ATOM     27  C   UNL     1      34.443 -22.839 -17.905  0.00  0.00    +0.147 C 
ATOM     28  C   UNL     1      36.126 -21.047 -19.223  0.00  0.00    +0.030 C 
ATOM     29  C   UNL     1      34.101 -22.362 -19.170  0.00  0.00    +0.030 C 
ATOM     30  C   UNL     1      34.942 -21.466 -19.828  0.00  0.00    +0.005 C 
ENDBRANCH  21  25
ENDBRANCH   4  20
TORSDOF 4
ENDMDL
MODEL 8
REMARK VINA RESULT:      -9.0      3.270      7.241
REMARK  Name = 24864082
REMARK  4 active torsions:
REMARK  status: ('A' for Active; 'I' for Inactive)
REMARK    1  A    between atoms: C_3  and  C_9
REMARK    2  A    between atoms: C_4  and  N_20
REMARK    3  A    between atoms: N_8  and  C_12
REMARK    4  A    between atoms: C_21  and  C_25
REMARK                            x       y       z     vdW  Elec       q    Type
REMARK                         _______ _______ _______ _____ _____    ______ ____
ROOT
ATOM      1  N   UNL     1      32.925 -22.684 -18.339  0.00  0.00    -0.230 N 
ATOM      2  N   UNL     1      33.987 -22.237 -19.032  0.00  0.00    -0.178 NA
ATOM      3  C   UNL     1      33.222 -23.070 -17.065  0.00  0.00    +0.133 C 
ATOM      4  C   UNL     1      34.571 -22.861 -16.914  0.00  0.00    +0.091 C 
ATOM      5  C   UNL     1      34.988 -22.348 -18.157  0.00  0.00    +0.134 C 
ATOM      6  H   UNL     1      32.017 -22.729 -18.715  0.00  0.00    +0.175 HD
ENDROOT
BRANCH   3   9
ATOM      7  O   UNL     1      32.584 -23.875 -14.956  0.00  0.00    -0.269 OA
ATOM      8  N   UNL     1      30.927 -23.722 -16.571  0.00  0.00    -0.303 N 
ATOM      9  C   UNL     1      32.226 -23.599 -16.098  0.00  0.00    +0.262 C 
ATOM     10  H   UNL     1      30.739 -23.476 -17.506  0.00  0.00    +0.150 HD
BRANCH   8  12
ATOM     11  N   UNL     1      27.971 -23.399 -17.180  0.00  0.00    +0.385 N 
ATOM     12  C   UNL     1      29.841 -24.199 -15.745  0.00  0.00    +0.051 C 
ATOM     13  C   UNL     1      29.463 -23.164 -14.679  0.00  0.00    +0.015 C 
ATOM     14  C   UNL     1      28.709 -21.986 -15.291  0.00  0.00    -0.022 C 
ATOM     15  C   UNL     1      28.621 -24.575 -16.596  0.00  0.00    -0.062 C 
ATOM     16  C   UNL     1      27.536 -22.459 -16.146  0.00  0.00    -0.082 C 
ATOM     17  H   UNL     1      27.158 -23.702 -17.716  0.00  0.00    -0.084 HD
ATOM     18  H   UNL     1      28.645 -22.925 -17.781  0.00  0.00    -0.084 HD
ENDBRANCH   8  12
ENDBRANCH   3   9
BRANCH   4  20
ATOM     19  O   UNL     1      35.558 -25.450 -15.767  0.00  0.00    -0.270 OA
ATOM     20  N   UNL     1      35.328 -23.105 -15.793  0.00  0.00    -0.278 N 
ATOM     21  C   UNL     1      35.776 -24.344 -15.281  0.00  0.00    +0.254 C 
ATOM     22  H   UNL     1      35.594 -22.309 -15.278  0.00  0.00    +0.155 HD
BRANCH  21  25
ATOM     23  F   UNL     1      38.543 -24.887 -15.186  0.00  0.00    -0.204 F 
ATOM     24  F   UNL     1      34.621 -23.681 -12.793  0.00  0.00    -0.204 F 
ATOM     25  C   UNL     1      36.563 -24.285 -14.021  0.00  0.00    +0.108 C 
ATOM     26  C   UNL     1      37.929 -24.565 -14.038  0.00  0.00    +0.147 C 
ATOM     27  C   UNL     1      35.934 -23.951 -12.822  0.00  0.00    +0.147 C 
ATOM     28  C   UNL     1      38.668 -24.510 -12.856  0.00  0.00    +0.030 C 
ATOM     29  C   UNL     1      36.673 -23.896 -11.640  0.00  0.00    +0.030 C 
ATOM     30  C   UNL     1      38.039 -24.176 -11.657  0.00  0.00    +0.005 C 
ENDBRANCH  21  25
ENDBRANCH   4  20
TORSDOF 4
ENDMDL
MODEL 9
REMARK VINA RESULT:      -9.0      8.631     11.896
REMARK  Name = 24864082
REMARK  4 active torsions:
REMARK  status: ('A' for Active; 'I' for Inactive)
REMARK    1  A    between atoms: C_3  and  C_9
REMARK    2  A    between atoms: C_4  and  N_20
REMARK    3  A    between atoms: N_8  and  C_12
REMARK    4  A    between atoms: C_21  and  C_25
REMARK                            x       y       z     vdW  Elec       q    Type
REMARK                         _______ _______ _______ _____ _____    ______ ____
ROOT
ATOM      1  N   UNL     1      33.656 -15.931 -25.644  0.00  0.00    -0.230 N 
ATOM      2  N   UNL     1      33.068 -15.448 -26.752  0.00  0.00    -0.178 NA
ATOM      3  C   UNL     1      33.846 -14.998 -24.668  0.00  0.00    +0.133 C 
ATOM      4  C   UNL     1      33.348 -13.821 -25.172  0.00  0.00    +0.091 C 
ATOM      5  C   UNL     1      32.883 -14.159 -26.458  0.00  0.00    +0.134 C 
ATOM      6  H   UNL     1      33.924 -16.873 -25.546  0.00  0.00    +0.175 HD
ENDROOT
BRANCH   3   9
ATOM      7  O   UNL     1      34.722 -14.348 -22.592  0.00  0.00    -0.269 OA
ATOM      8  N   UNL     1      34.717 -16.617 -23.070  0.00  0.00    -0.303 N 
ATOM      9  C   UNL     1      34.474 -15.280 -23.352  0.00  0.00    +0.262 C 
ATOM     10  H   UNL     1      34.482 -17.293 -23.746  0.00  0.00    +0.150 HD
BRANCH   8  12
ATOM     11  N   UNL     1      35.262 -19.499 -22.288  0.00  0.00    +0.385 N 
ATOM     12  C   UNL     1      35.300 -17.054 -21.821  0.00  0.00    +0.051 C 
ATOM     13  C   UNL     1      34.224 -17.244 -20.747  0.00  0.00    +0.015 C 
ATOM     14  C   UNL     1      33.400 -18.505 -21.002  0.00  0.00    -0.022 C 
ATOM     15  C   UNL     1      36.115 -18.340 -22.010  0.00  0.00    -0.062 C 
ATOM     16  C   UNL     1      34.297 -19.723 -21.211  0.00  0.00    -0.082 C 
ATOM     17  H   UNL     1      35.850 -20.327 -22.384  0.00  0.00    -0.084 HD
ATOM     18  H   UNL     1      34.746 -19.319 -23.149  0.00  0.00    -0.084 HD
ENDBRANCH   8  12
ENDBRANCH   3   9
BRANCH   4  20
ATOM     19  O   UNL     1      34.556 -11.201 -25.986  0.00  0.00    -0.270 OA
ATOM     20  N   UNL     1      33.319 -12.597 -24.548  0.00  0.00    -0.278 N 
ATOM     21  C   UNL     1      33.902 -11.379 -24.963  0.00  0.00    +0.254 C 
ATOM     22  H   UNL     1      32.824 -12.566 -23.697  0.00  0.00    +0.155 HD
BRANCH  21  25
ATOM     23  F   UNL     1      35.482  -9.047 -25.121  0.00  0.00    -0.204 F 
ATOM     24  F   UNL     1      31.944 -11.338 -22.932  0.00  0.00    -0.204 F 
ATOM     25  C   UNL     1      33.717 -10.220 -24.050  0.00  0.00    +0.108 C 
ATOM     26  C   UNL     1      34.531  -9.095 -24.177  0.00  0.00    +0.147 C 
ATOM     27  C   UNL     1      32.731 -10.261 -23.064  0.00  0.00    +0.147 C 
ATOM     28  C   UNL     1      34.358  -8.009 -23.319  0.00  0.00    +0.030 C 
ATOM     29  C   UNL     1      32.558  -9.174 -22.207  0.00  0.00    +0.030 C 
ATOM     30  C   UNL     1      33.372  -8.049 -22.334  0.00  0.00    +0.005 C 
ENDBRANCH  21  25
ENDBRANCH   4  20
TORSDOF 4
ENDMDL
