MODEL 1
REMARK VINA RESULT:      -9.5      0.000      0.000
REMARK  Name = 9547984
REMARK  7 active torsions:
REMARK  status: ('A' for Active; 'I' for Inactive)
REMARK    1  A    between atoms: N_1  and  C_4
REMARK    2  A    between atoms: N_1  and  C_14
REMARK    3  A    between atoms: C_4  and  N_5
REMARK    4  A    between atoms: C_14  and  C_15
REMARK    5  A    between atoms: C_15  and  C_18
REMARK    6  A    between atoms: C_20  and  O_23
REMARK    7  A    between atoms: O_23  and  C_24
REMARK                            x       y       z     vdW  Elec       q    Type
REMARK                         _______ _______ _______ _____ _____    ______ ____
ROOT
ATOM      1  N   UNL     1      35.662 -17.118 -23.194  0.00  0.00    -0.315 N 
ATOM      2  H   UNL     1      36.295 -16.380 -23.037  0.00  0.00    +0.148 HD
ENDROOT
BRANCH   1   4
ATOM      3  S   UNL     1      34.290 -18.208 -25.142  0.00  0.00    -0.019 S 
ATOM      4  C   UNL     1      34.690 -16.903 -24.163  0.00  0.00    +0.136 C 
BRANCH   4   5
ATOM      5  N   UNL     1      34.187 -15.595 -24.224  0.00  0.00    -0.281 N 
ATOM      6  N   UNL     1      33.461 -15.228 -22.003  0.00  0.00    -0.229 NA
ATOM      7  C   UNL     1      33.565 -14.777 -23.273  0.00  0.00    +0.133 C 
ATOM      8  C   UNL     1      32.348 -13.155 -21.446  0.00  0.00    -0.003 C 
ATOM      9  C   UNL     1      33.093 -13.546 -23.700  0.00  0.00    +0.034 C 
ATOM     10  C   UNL     1      32.474 -12.726 -22.763  0.00  0.00    +0.000 C 
ATOM     11  C   UNL     1      32.854 -14.404 -21.120  0.00  0.00    +0.096 C 
ATOM     12  C   UNL     1      31.690 -12.302 -20.421  0.00  0.00    +0.033 C 
ATOM     13  H   UNL     1      34.291 -15.170 -25.106  0.00  0.00    +0.155 HD
ENDBRANCH   4   5
ENDBRANCH   1   4
BRANCH   1  14
ATOM     14  C   UNL     1      35.847 -18.312 -22.391  0.00  0.00    +0.095 C 
BRANCH  14  15
ATOM     15  C   UNL     1      34.641 -18.614 -21.504  0.00  0.00    +0.069 C 
BRANCH  15  18
ATOM     16  F   UNL     1      32.508 -20.202 -20.566  0.00  0.00    -0.200 F 
ATOM     17  N   UNL     1      36.126 -20.089 -20.291  0.00  0.00    -0.246 NA
ATOM     18  C   UNL     1      34.851 -19.815 -20.614  0.00  0.00    +0.091 C 
ATOM     19  C   UNL     1      33.752 -20.536 -20.200  0.00  0.00    +0.187 C 
ATOM     20  C   UNL     1      33.983 -21.634 -19.380  0.00  0.00    +0.169 C 
ATOM     21  C   UNL     1      35.285 -21.961 -19.015  0.00  0.00    +0.060 C 
ATOM     22  C   UNL     1      36.313 -21.164 -19.493  0.00  0.00    +0.102 C 
BRANCH  20  23
ATOM     23  O   UNL     1      32.941 -22.389 -18.937  0.00  0.00    -0.473 OA
BRANCH  23  24
ATOM     24  C   UNL     1      33.175 -23.213 -17.795  0.00  0.00    +0.206 C 
ATOM     25  C   UNL     1      32.041 -23.025 -16.811  0.00  0.00    +0.051 C 
ENDBRANCH  23  24
ENDBRANCH  20  23
ENDBRANCH  15  18
ENDBRANCH  14  15
ENDBRANCH   1  14
TORSDOF 7
ENDMDL
MODEL 2
REMARK VINA RESULT:      -9.4      3.186      4.636
REMARK  Name = 9547984
REMARK  7 active torsions:
REMARK  status: ('A' for Active; 'I' for Inactive)
REMARK    1  A    between atoms: N_1  and  C_4
REMARK    2  A    between atoms: N_1  and  C_14
REMARK    3  A    between atoms: C_4  and  N_5
REMARK    4  A    between atoms: C_14  and  C_15
REMARK    5  A    between atoms: C_15  and  C_18
REMARK    6  A    between atoms: C_20  and  O_23
REMARK    7  A    between atoms: O_23  and  C_24
REMARK                            x       y       z     vdW  Elec       q    Type
REMARK                         _______ _______ _______ _____ _____    ______ ____
ROOT
ATOM      1  N   UNL     1      32.685 -13.477 -23.357  0.00  0.00    -0.315 N 
ATOM      2  H   UNL     1      31.892 -12.941 -23.126  0.00  0.00    +0.148 HD
ENDROOT
BRANCH   1   4
ATOM      3  S   UNL     1      33.040 -14.257 -25.833  0.00  0.00    -0.019 S 
ATOM      4  C   UNL     1      33.300 -13.183 -24.567  0.00  0.00    +0.136 C 
BRANCH   4   5
ATOM      5  N   UNL     1      34.101 -12.031 -24.566  0.00  0.00    -0.281 N 
ATOM      6  N   UNL     1      32.704 -10.446 -23.502  0.00  0.00    -0.229 NA
ATOM      7  C   UNL     1      33.870 -10.721 -24.129  0.00  0.00    +0.133 C 
ATOM      8  C   UNL     1      33.454  -8.157 -23.290  0.00  0.00    -0.003 C 
ATOM      9  C   UNL     1      34.861  -9.783 -24.369  0.00  0.00    +0.034 C 
ATOM     10  C   UNL     1      34.641  -8.479 -23.939  0.00  0.00    +0.000 C 
ATOM     11  C   UNL     1      32.526  -9.169 -23.097  0.00  0.00    +0.096 C 
ATOM     12  C   UNL     1      33.189  -6.772 -22.818  0.00  0.00    +0.033 C 
ATOM     13  H   UNL     1      34.998 -12.170 -24.945  0.00  0.00    +0.155 HD
ENDBRANCH   4   5
ENDBRANCH   1   4
BRANCH   1  14
ATOM     14  C   UNL     1      33.084 -14.488 -22.396  0.00  0.00    +0.095 C 
BRANCH  14  15
ATOM     15  C   UNL     1      34.566 -14.843 -22.500  0.00  0.00    +0.069 C 
BRANCH  15  18
ATOM     16  F   UNL     1      34.909 -16.504 -20.247  0.00  0.00    -0.200 F 
ATOM     17  N   UNL     1      34.852 -16.821 -23.863  0.00  0.00    -0.246 NA
ATOM     18  C   UNL     1      34.809 -16.328 -22.614  0.00  0.00    +0.091 C 
ATOM     19  C   UNL     1      34.966 -17.066 -21.461  0.00  0.00    +0.187 C 
ATOM     20  C   UNL     1      35.190 -18.431 -21.603  0.00  0.00    +0.169 C 
ATOM     21  C   UNL     1      35.244 -18.992 -22.875  0.00  0.00    +0.060 C 
ATOM     22  C   UNL     1      35.071 -18.151 -23.963  0.00  0.00    +0.102 C 
BRANCH  20  23
ATOM     23  O   UNL     1      35.353 -19.216 -20.504  0.00  0.00    -0.473 OA
BRANCH  23  24
ATOM     24  C   UNL     1      34.650 -20.459 -20.484  0.00  0.00    +0.206 C 
ATOM     25  C   UNL     1      33.171 -20.186 -20.320  0.00  0.00    +0.051 C 
ENDBRANCH  23  24
ENDBRANCH  20  23
ENDBRANCH  15  18
ENDBRANCH  14  15
ENDBRANCH   1  14
TORSDOF 7
ENDMDL
MODEL 3
REMARK VINA RESULT:      -9.3      1.312      1.642
REMARK  Name = 9547984
REMARK  7 active torsions:
REMARK  status: ('A' for Active; 'I' for Inactive)
REMARK    1  A    between atoms: N_1  and  C_4
REMARK    2  A    between atoms: N_1  and  C_14
REMARK    3  A    between atoms: C_4  and  N_5
REMARK    4  A    between atoms: C_14  and  C_15
REMARK    5  A    between atoms: C_15  and  C_18
REMARK    6  A    between atoms: C_20  and  O_23
REMARK    7  A    between atoms: O_23  and  C_24
REMARK                            x       y       z     vdW  Elec       q    Type
REMARK                         _______ _______ _______ _____ _____    ______ ____
ROOT
ATOM      1  N   UNL     1      35.704 -17.432 -22.857  0.00  0.00    -0.315 N 
ATOM      2  H   UNL     1      35.823 -16.678 -22.235  0.00  0.00    +0.148 HD
ENDROOT
BRANCH   1   4
ATOM      3  S   UNL     1      34.416 -18.568 -24.836  0.00  0.00    -0.019 S 
ATOM      4  C   UNL     1      34.842 -17.221 -23.927  0.00  0.00    +0.136 C 
BRANCH   4   5
ATOM      5  N   UNL     1      34.465 -15.887 -24.135  0.00  0.00    -0.281 N 
ATOM      6  N   UNL     1      33.366 -15.350 -22.111  0.00  0.00    -0.229 NA
ATOM      7  C   UNL     1      33.742 -14.977 -23.355  0.00  0.00    +0.133 C 
ATOM      8  C   UNL     1      32.334 -13.177 -21.862  0.00  0.00    -0.003 C 
ATOM      9  C   UNL     1      33.456 -13.741 -23.913  0.00  0.00    +0.034 C 
ATOM     10  C   UNL     1      32.739 -12.830 -23.146  0.00  0.00    +0.000 C 
ATOM     11  C   UNL     1      32.671 -14.438 -21.395  0.00  0.00    +0.096 C 
ATOM     12  C   UNL     1      31.565 -12.225 -21.016  0.00  0.00    +0.033 C 
ATOM     13  H   UNL     1      34.766 -15.519 -24.997  0.00  0.00    +0.155 HD
ENDBRANCH   4   5
ENDBRANCH   1   4
BRANCH   1  14
ATOM     14  C   UNL     1      36.446 -18.641 -22.557  0.00  0.00    +0.095 C 
BRANCH  14  15
ATOM     15  C   UNL     1      36.463 -18.964 -21.064  0.00  0.00    +0.069 C 
BRANCH  15  18
ATOM     16  F   UNL     1      36.705 -21.356 -19.590  0.00  0.00    -0.200 F 
ATOM     17  N   UNL     1      34.066 -19.283 -20.976  0.00  0.00    -0.246 NA
ATOM     18  C   UNL     1      35.267 -19.773 -20.623  0.00  0.00    +0.091 C 
ATOM     19  C   UNL     1      35.475 -20.930 -19.907  0.00  0.00    +0.187 C 
ATOM     20  C   UNL     1      34.351 -21.650 -19.518  0.00  0.00    +0.169 C 
ATOM     21  C   UNL     1      33.084 -21.187 -19.858  0.00  0.00    +0.060 C 
ATOM     22  C   UNL     1      32.997 -20.008 -20.581  0.00  0.00    +0.102 C 
BRANCH  20  23
ATOM     23  O   UNL     1      34.488 -22.802 -18.807  0.00  0.00    -0.473 OA
BRANCH  23  24
ATOM     24  C   UNL     1      33.496 -23.076 -17.818  0.00  0.00    +0.206 C 
ATOM     25  C   UNL     1      34.175 -23.261 -16.478  0.00  0.00    +0.051 C 
ENDBRANCH  23  24
ENDBRANCH  20  23
ENDBRANCH  15  18
ENDBRANCH  14  15
ENDBRANCH   1  14
TORSDOF 7
ENDMDL
MODEL 4
REMARK VINA RESULT:      -9.1      3.626      8.490
REMARK  Name = 9547984
REMARK  7 active torsions:
REMARK  status: ('A' for Active; 'I' for Inactive)
REMARK    1  A    between atoms: N_1  and  C_4
REMARK    2  A    between atoms: N_1  and  C_14
REMARK    3  A    between atoms: C_4  and  N_5
REMARK    4  A    between atoms: C_14  and  C_15
REMARK    5  A    between atoms: C_15  and  C_18
REMARK    6  A    between atoms: C_20  and  O_23
REMARK    7  A    between atoms: O_23  and  C_24
REMARK                            x       y       z     vdW  Elec       q    Type
REMARK                         _______ _______ _______ _____ _____    ______ ____
ROOT
ATOM      1  N   UNL     1      34.948 -15.360 -22.843  0.00  0.00    -0.315 N 
ATOM      2  H   UNL     1      35.588 -14.651 -23.083  0.00  0.00    +0.148 HD
ENDROOT
BRANCH   1   4
ATOM      3  S   UNL     1      34.545 -16.791 -25.000  0.00  0.00    -0.019 S 
ATOM      4  C   UNL     1      35.143 -16.598 -23.442  0.00  0.00    +0.136 C 
BRANCH   4   5
ATOM      5  N   UNL     1      35.790 -17.553 -22.643  0.00  0.00    -0.281 N 
ATOM      6  N   UNL     1      33.980 -18.828 -21.812  0.00  0.00    -0.229 NA
ATOM      7  C   UNL     1      35.310 -18.584 -21.828  0.00  0.00    +0.133 C 
ATOM      8  C   UNL     1      34.408 -20.602 -20.227  0.00  0.00    -0.003 C 
ATOM      9  C   UNL     1      36.237 -19.295 -21.083  0.00  0.00    +0.034 C 
ATOM     10  C   UNL     1      35.770 -20.322 -20.270  0.00  0.00    +0.000 C 
ATOM     11  C   UNL     1      33.563 -19.833 -21.011  0.00  0.00    +0.096 C 
ATOM     12  C   UNL     1      33.877 -21.694 -19.367  0.00  0.00    +0.033 C 
ATOM     13  H   UNL     1      36.772 -17.484 -22.659  0.00  0.00    +0.155 HD
ENDBRANCH   4   5
ENDBRANCH   1   4
BRANCH   1  14
ATOM     14  C   UNL     1      33.905 -14.998 -21.903  0.00  0.00    +0.095 C 
BRANCH  14  15
ATOM     15  C   UNL     1      32.667 -14.427 -22.592  0.00  0.00    +0.069 C 
BRANCH  15  18
ATOM     16  F   UNL     1      31.226 -12.407 -21.252  0.00  0.00    -0.200 F 
ATOM     17  N   UNL     1      33.668 -12.673 -23.925  0.00  0.00    -0.246 NA
ATOM     18  C   UNL     1      32.807 -12.963 -22.935  0.00  0.00    +0.091 C 
ATOM     19  C   UNL     1      32.064 -12.042 -22.230  0.00  0.00    +0.187 C 
ATOM     20  C   UNL     1      32.217 -10.703 -22.574  0.00  0.00    +0.169 C 
ATOM     21  C   UNL     1      33.095 -10.349 -23.593  0.00  0.00    +0.060 C 
ATOM     22  C   UNL     1      33.791 -11.363 -24.232  0.00  0.00    +0.102 C 
BRANCH  20  23
ATOM     23  O   UNL     1      31.513  -9.743 -21.916  0.00  0.00    -0.473 OA
BRANCH  23  24
ATOM     24  C   UNL     1      32.198  -9.023 -20.891  0.00  0.00    +0.206 C 
ATOM     25  C   UNL     1      31.800  -9.585 -19.544  0.00  0.00    +0.051 C 
ENDBRANCH  23  24
ENDBRANCH  20  23
ENDBRANCH  15  18
ENDBRANCH  14  15
ENDBRANCH   1  14
TORSDOF 7
ENDMDL
MODEL 5
REMARK VINA RESULT:      -9.0      5.997      9.782
REMARK  Name = 9547984
REMARK  7 active torsions:
REMARK  status: ('A' for Active; 'I' for Inactive)
REMARK    1  A    between atoms: N_1  and  C_4
REMARK    2  A    between atoms: N_1  and  C_14
REMARK    3  A    between atoms: C_4  and  N_5
REMARK    4  A    between atoms: C_14  and  C_15
REMARK    5  A    between atoms: C_15  and  C_18
REMARK    6  A    between atoms: C_20  and  O_23
REMARK    7  A    between atoms: O_23  and  C_24
REMARK                            x       y       z     vdW  Elec       q    Type
REMARK                         _______ _______ _______ _____ _____    ______ ____
ROOT
ATOM      1  N   UNL     1      35.263 -23.321 -14.031  0.00  0.00    -0.315 N 
ATOM      2  H   UNL     1      34.920 -22.399 -14.074  0.00  0.00    +0.148 HD
ENDROOT
BRANCH   1   4
ATOM      3  S   UNL     1      35.680 -24.243 -11.615  0.00  0.00    -0.019 S 
ATOM      4  C   UNL     1      34.758 -24.122 -13.014  0.00  0.00    +0.136 C 
BRANCH   4   5
ATOM      5  N   UNL     1      33.546 -24.764 -13.305  0.00  0.00    -0.281 N 
ATOM      6  N   UNL     1      32.301 -23.046 -14.350  0.00  0.00    -0.229 NA
ATOM      7  C   UNL     1      32.353 -24.313 -13.882  0.00  0.00    +0.133 C 
ATOM      8  C   UNL     1      30.011 -23.468 -15.000  0.00  0.00    -0.003 C 
ATOM      9  C   UNL     1      31.292 -25.203 -13.936  0.00  0.00    +0.034 C 
ATOM     10  C   UNL     1      30.102 -24.765 -14.508  0.00  0.00    +0.000 C 
ATOM     11  C   UNL     1      31.129 -22.655 -14.899  0.00  0.00    +0.096 C 
ATOM     12  C   UNL     1      28.752 -22.969 -15.617  0.00  0.00    +0.033 C 
ATOM     13  H   UNL     1      33.531 -25.716 -13.055  0.00  0.00    +0.155 HD
ENDBRANCH   4   5
ENDBRANCH   1   4
BRANCH   1  14
ATOM     14  C   UNL     1      36.238 -23.697 -15.037  0.00  0.00    +0.095 C 
BRANCH  14  15
ATOM     15  C   UNL     1      36.562 -22.552 -15.996  0.00  0.00    +0.069 C 
BRANCH  15  18
ATOM     16  F   UNL     1      37.180 -21.155 -18.365  0.00  0.00    -0.200 F 
ATOM     17  N   UNL     1      34.445 -23.125 -17.017  0.00  0.00    -0.246 NA
ATOM     18  C   UNL     1      35.614 -22.479 -17.167  0.00  0.00    +0.091 C 
ATOM     19  C   UNL     1      35.994 -21.773 -18.287  0.00  0.00    +0.187 C 
ATOM     20  C   UNL     1      35.095 -21.725 -19.347  0.00  0.00    +0.169 C 
ATOM     21  C   UNL     1      33.871 -22.377 -19.242  0.00  0.00    +0.060 C 
ATOM     22  C   UNL     1      33.596 -23.057 -18.066  0.00  0.00    +0.102 C 
BRANCH  20  23
ATOM     23  O   UNL     1      35.411 -21.046 -20.482  0.00  0.00    -0.473 OA
BRANCH  23  24
ATOM     24  C   UNL     1      34.762 -19.792 -20.690  0.00  0.00    +0.206 C 
ATOM     25  C   UNL     1      35.781 -18.785 -21.180  0.00  0.00    +0.051 C 
ENDBRANCH  23  24
ENDBRANCH  20  23
ENDBRANCH  15  18
ENDBRANCH  14  15
ENDBRANCH   1  14
TORSDOF 7
ENDMDL
MODEL 6
REMARK VINA RESULT:      -9.0      4.792      8.609
REMARK  Name = 9547984
REMARK  7 active torsions:
REMARK  status: ('A' for Active; 'I' for Inactive)
REMARK    1  A    between atoms: N_1  and  C_4
REMARK    2  A    between atoms: N_1  and  C_14
REMARK    3  A    between atoms: C_4  and  N_5
REMARK    4  A    between atoms: C_14  and  C_15
REMARK    5  A    between atoms: C_15  and  C_18
REMARK    6  A    between atoms: C_20  and  O_23
REMARK    7  A    between atoms: O_23  and  C_24
REMARK                            x       y       z     vdW  Elec       q    Type
REMARK                         _______ _______ _______ _____ _____    ______ ____
ROOT
ATOM      1  N   UNL     1      35.757 -22.479 -16.800  0.00  0.00    -0.315 N 
ATOM      2  H   UNL     1      34.966 -22.705 -17.341  0.00  0.00    +0.148 HD
ENDROOT
BRANCH   1   4
ATOM      3  S   UNL     1      37.313 -23.726 -15.100  0.00  0.00    -0.019 S 
ATOM      4  C   UNL     1      35.834 -23.062 -15.541  0.00  0.00    +0.136 C 
BRANCH   4   5
ATOM      5  N   UNL     1      34.640 -23.055 -14.806  0.00  0.00    -0.281 N 
ATOM      6  N   UNL     1      32.999 -23.171 -16.505  0.00  0.00    -0.229 NA
ATOM      7  C   UNL     1      33.293 -23.059 -15.190  0.00  0.00    +0.133 C 
ATOM      8  C   UNL     1      30.659 -23.063 -15.904  0.00  0.00    -0.003 C 
ATOM      9  C   UNL     1      32.342 -22.947 -14.189  0.00  0.00    +0.034 C 
ATOM     10  C   UNL     1      31.002 -22.950 -14.561  0.00  0.00    +0.000 C 
ATOM     11  C   UNL     1      31.686 -23.170 -16.829  0.00  0.00    +0.096 C 
ATOM     12  C   UNL     1      29.235 -23.069 -16.334  0.00  0.00    +0.033 C 
ATOM     13  H   UNL     1      34.773 -23.045 -13.831  0.00  0.00    +0.155 HD
ENDBRANCH   4   5
ENDBRANCH   1   4
BRANCH   1  14
ATOM     14  C   UNL     1      36.716 -21.573 -17.404  0.00  0.00    +0.095 C 
BRANCH  14  15
ATOM     15  C   UNL     1      36.752 -21.688 -18.926  0.00  0.00    +0.069 C 
BRANCH  15  18
ATOM     16  F   UNL     1      36.898 -19.583 -20.797  0.00  0.00    -0.200 F 
ATOM     17  N   UNL     1      34.352 -21.647 -19.235  0.00  0.00    -0.246 NA
ATOM     18  C   UNL     1      35.529 -21.103 -19.590  0.00  0.00    +0.091 C 
ATOM     19  C   UNL     1      35.690 -20.075 -20.492  0.00  0.00    +0.187 C 
ATOM     20  C   UNL     1      34.542 -19.559 -21.083  0.00  0.00    +0.169 C 
ATOM     21  C   UNL     1      33.299 -20.087 -20.751  0.00  0.00    +0.060 C 
ATOM     22  C   UNL     1      33.258 -21.121 -19.830  0.00  0.00    +0.102 C 
BRANCH  20  23
ATOM     23  O   UNL     1      34.633 -18.543 -21.984  0.00  0.00    -0.473 OA
BRANCH  23  24
ATOM     24  C   UNL     1      34.857 -18.902 -23.347  0.00  0.00    +0.206 C 
ATOM     25  C   UNL     1      34.881 -17.646 -24.190  0.00  0.00    +0.051 C 
ENDBRANCH  23  24
ENDBRANCH  20  23
ENDBRANCH  15  18
ENDBRANCH  14  15
ENDBRANCH   1  14
TORSDOF 7
ENDMDL
MODEL 7
REMARK VINA RESULT:      -9.0      4.318      9.272
REMARK  Name = 9547984
REMARK  7 active torsions:
REMARK  status: ('A' for Active; 'I' for Inactive)
REMARK    1  A    between atoms: N_1  and  C_4
REMARK    2  A    between atoms: N_1  and  C_14
REMARK    3  A    between atoms: C_4  and  N_5
REMARK    4  A    between atoms: C_14  and  C_15
REMARK    5  A    between atoms: C_15  and  C_18
REMARK    6  A    between atoms: C_20  and  O_23
REMARK    7  A    between atoms: O_23  and  C_24
REMARK                            x       y       z     vdW  Elec       q    Type
REMARK                         _______ _______ _______ _____ _____    ______ ____
ROOT
ATOM      1  N   UNL     1      34.842 -15.468 -23.053  0.00  0.00    -0.315 N 
ATOM      2  H   UNL     1      35.558 -15.034 -22.536  0.00  0.00    +0.148 HD
ENDROOT
BRANCH   1   4
ATOM      3  S   UNL     1      34.527 -17.073 -25.100  0.00  0.00    -0.019 S 
ATOM      4  C   UNL     1      35.127 -16.726 -23.570  0.00  0.00    +0.136 C 
BRANCH   4   5
ATOM      5  N   UNL     1      35.858 -17.569 -22.720  0.00  0.00    -0.281 N 
ATOM      6  N   UNL     1      34.180 -18.996 -21.857  0.00  0.00    -0.229 NA
ATOM      7  C   UNL     1      35.476 -18.610 -21.865  0.00  0.00    +0.133 C 
ATOM      8  C   UNL     1      34.768 -20.643 -20.188  0.00  0.00    -0.003 C 
ATOM      9  C   UNL     1      36.461 -19.183 -21.076  0.00  0.00    +0.034 C 
ATOM     10  C   UNL     1      36.092 -20.218 -20.224  0.00  0.00    +0.000 C 
ATOM     11  C   UNL     1      33.859 -20.005 -21.017  0.00  0.00    +0.096 C 
ATOM     12  C   UNL     1      34.342 -21.747 -19.287  0.00  0.00    +0.033 C 
ATOM     13  H   UNL     1      36.826 -17.394 -22.724  0.00  0.00    +0.155 HD
ENDBRANCH   4   5
ENDBRANCH   1   4
BRANCH   1  14
ATOM     14  C   UNL     1      33.603 -14.726 -23.192  0.00  0.00    +0.095 C 
BRANCH  14  15
ATOM     15  C   UNL     1      33.790 -13.407 -23.940  0.00  0.00    +0.069 C 
BRANCH  15  18
ATOM     16  F   UNL     1      34.186 -10.720 -24.697  0.00  0.00    -0.200 F 
ATOM     17  N   UNL     1      32.120 -12.607 -22.383  0.00  0.00    -0.246 NA
ATOM     18  C   UNL     1      33.018 -12.266 -23.323  0.00  0.00    +0.091 C 
ATOM     19  C   UNL     1      33.275 -10.982 -23.751  0.00  0.00    +0.187 C 
ATOM     20  C   UNL     1      32.546  -9.956 -23.161  0.00  0.00    +0.169 C 
ATOM     21  C   UNL     1      31.604 -10.254 -22.182  0.00  0.00    +0.060 C 
ATOM     22  C   UNL     1      31.430 -11.584 -21.832  0.00  0.00    +0.102 C 
BRANCH  20  23
ATOM     23  O   UNL     1      32.751  -8.665 -23.539  0.00  0.00    -0.473 OA
BRANCH  23  24
ATOM     24  C   UNL     1      33.626  -7.882 -22.728  0.00  0.00    +0.206 C 
ATOM     25  C   UNL     1      34.831  -7.479 -23.550  0.00  0.00    +0.051 C 
ENDBRANCH  23  24
ENDBRANCH  20  23
ENDBRANCH  15  18
ENDBRANCH  14  15
ENDBRANCH   1  14
TORSDOF 7
ENDMDL
MODEL 8
REMARK VINA RESULT:      -8.9      5.016     10.017
REMARK  Name = 9547984
REMARK  7 active torsions:
REMARK  status: ('A' for Active; 'I' for Inactive)
REMARK    1  A    between atoms: N_1  and  C_4
REMARK    2  A    between atoms: N_1  and  C_14
REMARK    3  A    between atoms: C_4  and  N_5
REMARK    4  A    between atoms: C_14  and  C_15
REMARK    5  A    between atoms: C_15  and  C_18
REMARK    6  A    between atoms: C_20  and  O_23
REMARK    7  A    between atoms: O_23  and  C_24
REMARK                            x       y       z     vdW  Elec       q    Type
REMARK                         _______ _______ _______ _____ _____    ______ ____
ROOT
ATOM      1  N   UNL     1      34.090 -23.038 -16.119  0.00  0.00    -0.315 N 
ATOM      2  H   UNL     1      34.781 -22.342 -16.212  0.00  0.00    +0.148 HD
ENDROOT
BRANCH   1   4
ATOM      3  S   UNL     1      32.097 -23.721 -14.563  0.00  0.00    -0.019 S 
ATOM      4  C   UNL     1      33.719 -23.371 -14.822  0.00  0.00    +0.136 C 
BRANCH   4   5
ATOM      5  N   UNL     1      34.754 -23.335 -13.877  0.00  0.00    -0.281 N 
ATOM      6  N   UNL     1      36.458 -24.580 -14.945  0.00  0.00    -0.229 NA
ATOM      7  C   UNL     1      36.031 -23.910 -13.851  0.00  0.00    +0.133 C 
ATOM      8  C   UNL     1      38.524 -25.018 -13.766  0.00  0.00    -0.003 C 
ATOM      9  C   UNL     1      36.779 -23.754 -12.696  0.00  0.00    +0.034 C 
ATOM     10  C   UNL     1      38.049 -24.321 -12.661  0.00  0.00    +0.000 C 
ATOM     11  C   UNL     1      37.697 -25.117 -14.874  0.00  0.00    +0.096 C 
ATOM     12  C   UNL     1      39.876 -25.637 -13.760  0.00  0.00    +0.033 C 
ATOM     13  H   UNL     1      34.543 -22.804 -13.076  0.00  0.00    +0.155 HD
ENDBRANCH   4   5
ENDBRANCH   1   4
BRANCH   1  14
ATOM     14  C   UNL     1      33.571 -23.602 -17.350  0.00  0.00    +0.095 C 
BRANCH  14  15
ATOM     15  C   UNL     1      33.102 -22.532 -18.334  0.00  0.00    +0.069 C 
BRANCH  15  18
ATOM     16  F   UNL     1      32.701 -20.543 -20.292  0.00  0.00    -0.200 F 
ATOM     17  N   UNL     1      35.478 -22.161 -18.603  0.00  0.00    -0.246 NA
ATOM     18  C   UNL     1      34.244 -21.804 -19.000  0.00  0.00    +0.091 C 
ATOM     19  C   UNL     1      33.959 -20.847 -19.948  0.00  0.00    +0.187 C 
ATOM     20  C   UNL     1      35.036 -20.198 -20.543  0.00  0.00    +0.169 C 
ATOM     21  C   UNL     1      36.334 -20.530 -20.168  0.00  0.00    +0.060 C 
ATOM     22  C   UNL     1      36.499 -21.509 -19.202  0.00  0.00    +0.102 C 
BRANCH  20  23
ATOM     23  O   UNL     1      34.822 -19.241 -21.486  0.00  0.00    -0.473 OA
BRANCH  23  24
ATOM     24  C   UNL     1      35.686 -18.105 -21.465  0.00  0.00    +0.206 C 
ATOM     25  C   UNL     1      34.880 -16.880 -21.091  0.00  0.00    +0.051 C 
ENDBRANCH  23  24
ENDBRANCH  20  23
ENDBRANCH  15  18
ENDBRANCH  14  15
ENDBRANCH   1  14
TORSDOF 7
ENDMDL
MODEL 9
REMARK VINA RESULT:      -8.8      4.268      9.254
REMARK  Name = 9547984
REMARK  7 active torsions:
REMARK  status: ('A' for Active; 'I' for Inactive)
REMARK    1  A    between atoms: N_1  and  C_4
REMARK    2  A    between atoms: N_1  and  C_14
REMARK    3  A    between atoms: C_4  and  N_5
REMARK    4  A    between atoms: C_14  and  C_15
REMARK    5  A    between atoms: C_15  and  C_18
REMARK    6  A    between atoms: C_20  and  O_23
REMARK    7  A    between atoms: O_23  and  C_24
REMARK                            x       y       z     vdW  Elec       q    Type
REMARK                         _______ _______ _______ _____ _____    ______ ____
ROOT
ATOM      1  N   UNL     1      34.992 -15.664 -22.887  0.00  0.00    -0.315 N 
ATOM      2  H   UNL     1      35.954 -15.545 -22.715  0.00  0.00    +0.148 HD
ENDROOT
BRANCH   1   4
ATOM      3  S   UNL     1      34.782 -16.943 -25.164  0.00  0.00    -0.019 S 
ATOM      4  C   UNL     1      34.615 -16.855 -23.495  0.00  0.00    +0.136 C 
BRANCH   4   5
ATOM      5  N   UNL     1      34.101 -17.831 -22.629  0.00  0.00    -0.281 N 
ATOM      6  N   UNL     1      36.054 -18.654 -21.578  0.00  0.00    -0.229 NA
ATOM      7  C   UNL     1      34.714 -18.729 -21.747  0.00  0.00    +0.133 C 
ATOM      8  C   UNL     1      35.876 -20.495 -20.021  0.00  0.00    -0.003 C 
ATOM      9  C   UNL     1      33.901 -19.645 -21.099  0.00  0.00    +0.034 C 
ATOM     10  C   UNL     1      34.501 -20.542 -20.221  0.00  0.00    +0.000 C 
ATOM     11  C   UNL     1      36.601 -19.541 -20.717  0.00  0.00    +0.096 C 
ATOM     12  C   UNL     1      36.548 -21.440 -19.089  0.00  0.00    +0.033 C 
ATOM     13  H   UNL     1      33.119 -17.898 -22.643  0.00  0.00    +0.155 HD
ENDBRANCH   4   5
ENDBRANCH   1   4
BRANCH   1  14
ATOM     14  C   UNL     1      34.123 -14.578 -22.478  0.00  0.00    +0.095 C 
BRANCH  14  15
ATOM     15  C   UNL     1      33.887 -13.562 -23.594  0.00  0.00    +0.069 C 
BRANCH  15  18
ATOM     16  F   UNL     1      34.344 -10.951 -24.554  0.00  0.00    -0.200 F 
ATOM     17  N   UNL     1      32.095 -12.638 -22.258  0.00  0.00    -0.246 NA
ATOM     18  C   UNL     1      33.067 -12.376 -23.148  0.00  0.00    +0.091 C 
ATOM     19  C   UNL     1      33.358 -11.134 -23.667  0.00  0.00    +0.187 C 
ATOM     20  C   UNL     1      32.583 -10.064 -23.232  0.00  0.00    +0.169 C 
ATOM     21  C   UNL     1      31.564 -10.280 -22.311  0.00  0.00    +0.060 C 
ATOM     22  C   UNL     1      31.362 -11.575 -21.859  0.00  0.00    +0.102 C 
BRANCH  20  23
ATOM     23  O   UNL     1      32.819  -8.811 -23.707  0.00  0.00    -0.473 OA
BRANCH  23  24
ATOM     24  C   UNL     1      33.530  -7.916 -22.852  0.00  0.00    +0.206 C 
ATOM     25  C   UNL     1      34.858  -7.575 -23.492  0.00  0.00    +0.051 C 
ENDBRANCH  23  24
ENDBRANCH  20  23
ENDBRANCH  15  18
ENDBRANCH  14  15
ENDBRANCH   1  14
TORSDOF 7
ENDMDL
