MODEL 1
REMARK VINA RESULT:     -10.1      0.000      0.000
REMARK  Name = 54736485
REMARK  5 active torsions:
REMARK  status: ('A' for Active; 'I' for Inactive)
REMARK    1  A    between atoms: C_3  and  C_16
REMARK    2  A    between atoms: C_4  and  O_12
REMARK    3  A    between atoms: C_10  and  O_14
REMARK    4  A    between atoms: C_16  and  C_17
REMARK    5  A    between atoms: C_16  and  C_23
REMARK                            x       y       z     vdW  Elec       q    Type
REMARK                         _______ _______ _______ _____ _____    ______ ____
ROOT
ATOM      1  O   UNL     1      36.888 -20.306 -20.092  0.00  0.00    -0.421 OA
ATOM      2  O   UNL     1      37.788 -18.841 -21.580  0.00  0.00    -0.245 OA
ATOM      3  C   UNL     1      35.427 -19.127 -21.684  0.00  0.00    +0.091 A 
ATOM      4  C   UNL     1      34.351 -19.751 -21.167  0.00  0.00    +0.139 A 
ATOM      5  C   UNL     1      34.492 -20.706 -20.066  0.00  0.00    +0.068 A 
ATOM      6  C   UNL     1      36.788 -19.396 -21.135  0.00  0.00    +0.345 A 
ATOM      7  C   UNL     1      35.763 -20.957 -19.559  0.00  0.00    +0.155 A 
ATOM      8  C   UNL     1      33.411 -21.389 -19.489  0.00  0.00    +0.009 C 
ATOM      9  C   UNL     1      35.985 -21.853 -18.513  0.00  0.00    +0.075 C 
ATOM     10  C   UNL     1      34.902 -22.523 -17.952  0.00  0.00    +0.142 C 
ATOM     11  C   UNL     1      33.617 -22.291 -18.439  0.00  0.00    +0.037 C 
ENDROOT
BRANCH   4  12
ATOM     12  O   UNL     1      33.055 -19.565 -21.600  0.00  0.00    -0.506 OA
ATOM     13  H   UNL     1      32.854 -19.623 -22.512  0.00  0.00    +0.292 HD
ENDBRANCH   4  12
BRANCH  10  14
ATOM     14  O   UNL     1      35.095 -23.400 -16.931  0.00  0.00    -0.471 OA
ATOM     15  C   UNL     1      34.016 -23.577 -16.013  0.00  0.00    +0.252 C 
ENDBRANCH  10  14
BRANCH   3  16
ATOM     16  C   UNL     1      35.404 -18.137 -22.817  0.00  0.00    +0.054 C 
BRANCH  16  17
ATOM     17  C   UNL     1      34.973 -16.766 -22.330  0.00  0.00    -0.018 C 
ATOM     18  C   UNL     1      34.824 -16.525 -20.965  0.00  0.00    -0.004 C 
ATOM     19  C   UNL     1      34.725 -15.747 -23.250  0.00  0.00    -0.004 C 
ATOM     20  C   UNL     1      34.428 -15.265 -20.518  0.00  0.00    -0.000 C 
ATOM     21  C   UNL     1      34.328 -14.486 -22.803  0.00  0.00    -0.000 C 
ATOM     22  C   UNL     1      34.179 -14.245 -21.437  0.00  0.00    -0.000 C 
ENDBRANCH  16  17
BRANCH  16  23
ATOM     23  C   UNL     1      34.543 -18.683 -23.974  0.00  0.00    +0.009 C 
ATOM     24  C   UNL     1      35.168 -19.890 -24.664  0.00  0.00    +0.001 C 
ENDBRANCH  16  23
ENDBRANCH   3  16
TORSDOF 5
ENDMDL
MODEL 2
REMARK VINA RESULT:      -9.3      2.354      7.071
REMARK  Name = 54736485
REMARK  5 active torsions:
REMARK  status: ('A' for Active; 'I' for Inactive)
REMARK    1  A    between atoms: C_3  and  C_16
REMARK    2  A    between atoms: C_4  and  O_12
REMARK    3  A    between atoms: C_10  and  O_14
REMARK    4  A    between atoms: C_16  and  C_17
REMARK    5  A    between atoms: C_16  and  C_23
REMARK                            x       y       z     vdW  Elec       q    Type
REMARK                         _______ _______ _______ _____ _____    ______ ____
ROOT
ATOM      1  O   UNL     1      34.383 -17.147 -24.409  0.00  0.00    -0.421 OA
ATOM      2  O   UNL     1      35.034 -19.326 -24.434  0.00  0.00    -0.245 OA
ATOM      3  C   UNL     1      35.237 -18.193 -22.350  0.00  0.00    +0.091 A 
ATOM      4  C   UNL     1      35.057 -17.038 -21.682  0.00  0.00    +0.139 A 
ATOM      5  C   UNL     1      34.525 -15.853 -22.358  0.00  0.00    +0.068 A 
ATOM      6  C   UNL     1      34.887 -18.287 -23.798  0.00  0.00    +0.345 A 
ATOM      7  C   UNL     1      34.202 -15.943 -23.708  0.00  0.00    +0.155 A 
ATOM      8  C   UNL     1      34.320 -14.622 -21.717  0.00  0.00    +0.009 C 
ATOM      9  C   UNL     1      33.691 -14.862 -24.427  0.00  0.00    +0.075 C 
ATOM     10  C   UNL     1      33.494 -13.648 -23.777  0.00  0.00    +0.142 C 
ATOM     11  C   UNL     1      33.808 -13.528 -22.423  0.00  0.00    +0.037 C 
ENDROOT
BRANCH   4  12
ATOM     12  O   UNL     1      35.344 -16.854 -20.346  0.00  0.00    -0.506 OA
ATOM     13  H   UNL     1      35.440 -15.988 -20.003  0.00  0.00    +0.292 HD
ENDBRANCH   4  12
BRANCH  10  14
ATOM     14  O   UNL     1      32.996 -12.581 -24.457  0.00  0.00    -0.471 OA
ATOM     15  C   UNL     1      33.913 -11.541 -24.796  0.00  0.00    +0.252 C 
ENDBRANCH  10  14
BRANCH   3  16
ATOM     16  C   UNL     1      35.784 -19.467 -21.765  0.00  0.00    +0.054 C 
BRANCH  16  17
ATOM     17  C   UNL     1      34.759 -20.134 -20.866  0.00  0.00    -0.018 C 
ATOM     18  C   UNL     1      35.145 -21.170 -20.016  0.00  0.00    -0.004 C 
ATOM     19  C   UNL     1      33.430 -19.712 -20.892  0.00  0.00    -0.004 C 
ATOM     20  C   UNL     1      34.204 -21.783 -19.190  0.00  0.00    -0.000 C 
ATOM     21  C   UNL     1      32.488 -20.325 -20.066  0.00  0.00    -0.000 C 
ATOM     22  C   UNL     1      32.874 -21.361 -19.215  0.00  0.00    -0.000 C 
ENDBRANCH  16  17
BRANCH  16  23
ATOM     23  C   UNL     1      37.131 -19.189 -21.068  0.00  0.00    +0.009 C 
ATOM     24  C   UNL     1      38.208 -18.697 -22.029  0.00  0.00    +0.001 C 
ENDBRANCH  16  23
ENDBRANCH   3  16
TORSDOF 5
ENDMDL
MODEL 3
REMARK VINA RESULT:      -9.2      5.808      8.885
REMARK  Name = 54736485
REMARK  5 active torsions:
REMARK  status: ('A' for Active; 'I' for Inactive)
REMARK    1  A    between atoms: C_3  and  C_16
REMARK    2  A    between atoms: C_4  and  O_12
REMARK    3  A    between atoms: C_10  and  O_14
REMARK    4  A    between atoms: C_16  and  C_17
REMARK    5  A    between atoms: C_16  and  C_23
REMARK                            x       y       z     vdW  Elec       q    Type
REMARK                         _______ _______ _______ _____ _____    ______ ____
ROOT
ATOM      1  O   UNL     1      32.621 -23.097 -17.418  0.00  0.00    -0.421 OA
ATOM      2  O   UNL     1      34.689 -23.089 -18.364  0.00  0.00    -0.245 OA
ATOM      3  C   UNL     1      34.620 -23.267 -15.991  0.00  0.00    +0.091 A 
ATOM      4  C   UNL     1      33.839 -23.331 -14.896  0.00  0.00    +0.139 A 
ATOM      5  C   UNL     1      32.380 -23.276 -15.008  0.00  0.00    +0.068 A 
ATOM      6  C   UNL     1      34.006 -23.145 -17.346  0.00  0.00    +0.345 A 
ATOM      7  C   UNL     1      31.811 -23.160 -16.272  0.00  0.00    +0.155 A 
ATOM      8  C   UNL     1      31.515 -23.335 -13.905  0.00  0.00    +0.009 C 
ATOM      9  C   UNL     1      30.431 -23.100 -16.466  0.00  0.00    +0.075 C 
ATOM     10  C   UNL     1      29.587 -23.159 -15.362  0.00  0.00    +0.142 C 
ATOM     11  C   UNL     1      30.129 -23.276 -14.082  0.00  0.00    +0.037 C 
ENDROOT
BRANCH   4  12
ATOM     12  O   UNL     1      34.309 -23.450 -13.605  0.00  0.00    -0.506 OA
ATOM     13  H   UNL     1      34.827 -24.191 -13.362  0.00  0.00    +0.292 HD
ENDBRANCH   4  12
BRANCH  10  14
ATOM     14  O   UNL     1      28.239 -23.103 -15.528  0.00  0.00    -0.471 OA
ATOM     15  C   UNL     1      27.756 -22.479 -16.717  0.00  0.00    +0.252 C 
ENDBRANCH  10  14
BRANCH   3  16
ATOM     16  C   UNL     1      36.124 -23.304 -15.998  0.00  0.00    +0.054 C 
BRANCH  16  17
ATOM     17  C   UNL     1      36.644 -24.363 -15.043  0.00  0.00    -0.018 C 
ATOM     18  C   UNL     1      37.422 -23.993 -13.947  0.00  0.00    -0.004 C 
ATOM     19  C   UNL     1      36.344 -25.707 -15.264  0.00  0.00    -0.004 C 
ATOM     20  C   UNL     1      37.901 -24.966 -13.070  0.00  0.00    -0.000 C 
ATOM     21  C   UNL     1      36.822 -26.681 -14.387  0.00  0.00    -0.000 C 
ATOM     22  C   UNL     1      37.601 -26.311 -13.290  0.00  0.00    -0.000 C 
ENDBRANCH  16  17
BRANCH  16  23
ATOM     23  C   UNL     1      36.685 -21.893 -15.723  0.00  0.00    +0.009 C 
ATOM     24  C   UNL     1      37.312 -21.252 -16.956  0.00  0.00    +0.001 C 
ENDBRANCH  16  23
ENDBRANCH   3  16
TORSDOF 5
ENDMDL
MODEL 4
REMARK VINA RESULT:      -8.7      2.535      7.185
REMARK  Name = 54736485
REMARK  5 active torsions:
REMARK  status: ('A' for Active; 'I' for Inactive)
REMARK    1  A    between atoms: C_3  and  C_16
REMARK    2  A    between atoms: C_4  and  O_12
REMARK    3  A    between atoms: C_10  and  O_14
REMARK    4  A    between atoms: C_16  and  C_17
REMARK    5  A    between atoms: C_16  and  C_23
REMARK                            x       y       z     vdW  Elec       q    Type
REMARK                         _______ _______ _______ _____ _____    ______ ____
ROOT
ATOM      1  O   UNL     1      34.705 -15.681 -21.886  0.00  0.00    -0.421 OA
ATOM      2  O   UNL     1      35.514 -17.050 -20.260  0.00  0.00    -0.245 OA
ATOM      3  C   UNL     1      35.234 -18.028 -22.412  0.00  0.00    +0.091 A 
ATOM      4  C   UNL     1      34.854 -17.833 -23.690  0.00  0.00    +0.139 A 
ATOM      5  C   UNL     1      34.367 -16.527 -24.138  0.00  0.00    +0.068 A 
ATOM      6  C   UNL     1      35.171 -16.907 -21.429  0.00  0.00    +0.345 A 
ATOM      7  C   UNL     1      34.306 -15.485 -23.219  0.00  0.00    +0.155 A 
ATOM      8  C   UNL     1      33.954 -16.264 -25.453  0.00  0.00    +0.009 C 
ATOM      9  C   UNL     1      33.853 -14.211 -23.564  0.00  0.00    +0.075 C 
ATOM     10  C   UNL     1      33.447 -13.967 -24.871  0.00  0.00    +0.142 C 
ATOM     11  C   UNL     1      33.497 -14.992 -25.815  0.00  0.00    +0.037 C 
ENDROOT
BRANCH   4  12
ATOM     12  O   UNL     1      34.882 -18.801 -24.671  0.00  0.00    -0.506 OA
ATOM     13  H   UNL     1      35.008 -18.557 -25.566  0.00  0.00    +0.292 HD
ENDBRANCH   4  12
BRANCH  10  14
ATOM     14  O   UNL     1      33.002 -12.733 -25.230  0.00  0.00    -0.471 OA
ATOM     15  C   UNL     1      33.882 -11.633 -24.999  0.00  0.00    +0.252 C 
ENDBRANCH  10  14
BRANCH   3  16
ATOM     16  C   UNL     1      35.740 -19.323 -21.837  0.00  0.00    +0.054 C 
BRANCH  16  17
ATOM     17  C   UNL     1      34.685 -19.978 -20.965  0.00  0.00    -0.018 C 
ATOM     18  C   UNL     1      33.350 -19.592 -21.077  0.00  0.00    -0.004 C 
ATOM     19  C   UNL     1      35.051 -20.966 -20.051  0.00  0.00    -0.004 C 
ATOM     20  C   UNL     1      32.379 -20.193 -20.275  0.00  0.00    -0.000 C 
ATOM     21  C   UNL     1      34.082 -21.567 -19.249  0.00  0.00    -0.000 C 
ATOM     22  C   UNL     1      32.746 -21.181 -19.361  0.00  0.00    -0.000 C 
ENDBRANCH  16  17
BRANCH  16  23
ATOM     23  C   UNL     1      37.083 -19.089 -21.115  0.00  0.00    +0.009 C 
ATOM     24  C   UNL     1      38.213 -18.715 -22.067  0.00  0.00    +0.001 C 
ENDBRANCH  16  23
ENDBRANCH   3  16
TORSDOF 5
ENDMDL
MODEL 5
REMARK VINA RESULT:      -8.5      0.641      2.300
REMARK  Name = 54736485
REMARK  5 active torsions:
REMARK  status: ('A' for Active; 'I' for Inactive)
REMARK    1  A    between atoms: C_3  and  C_16
REMARK    2  A    between atoms: C_4  and  O_12
REMARK    3  A    between atoms: C_10  and  O_14
REMARK    4  A    between atoms: C_16  and  C_17
REMARK    5  A    between atoms: C_16  and  C_23
REMARK                            x       y       z     vdW  Elec       q    Type
REMARK                         _______ _______ _______ _____ _____    ______ ____
ROOT
ATOM      1  O   UNL     1      33.383 -20.677 -20.388  0.00  0.00    -0.421 OA
ATOM      2  O   UNL     1      32.733 -19.361 -22.126  0.00  0.00    -0.245 OA
ATOM      3  C   UNL     1      35.052 -19.322 -21.589  0.00  0.00    +0.091 A 
ATOM      4  C   UNL     1      36.023 -19.797 -20.785  0.00  0.00    +0.139 A 
ATOM      5  C   UNL     1      35.717 -20.752 -19.718  0.00  0.00    +0.068 A 
ATOM      6  C   UNL     1      33.640 -19.770 -21.408  0.00  0.00    +0.345 A 
ATOM      7  C   UNL     1      34.400 -21.165 -19.550  0.00  0.00    +0.155 A 
ATOM      8  C   UNL     1      36.683 -21.277 -18.848  0.00  0.00    +0.009 C 
ATOM      9  C   UNL     1      34.023 -22.070 -18.558  0.00  0.00    +0.075 C 
ATOM     10  C   UNL     1      34.993 -22.582 -17.703  0.00  0.00    +0.142 C 
ATOM     11  C   UNL     1      36.322 -22.187 -17.848  0.00  0.00    +0.037 C 
ENDROOT
BRANCH   4  12
ATOM     12  O   UNL     1      37.354 -19.449 -20.877  0.00  0.00    -0.506 OA
ATOM     13  H   UNL     1      37.710 -19.172 -21.697  0.00  0.00    +0.292 HD
ENDBRANCH   4  12
BRANCH  10  14
ATOM     14  O   UNL     1      34.648 -23.467 -16.729  0.00  0.00    -0.471 OA
ATOM     15  C   UNL     1      33.303 -23.419 -16.255  0.00  0.00    +0.252 C 
ENDBRANCH  10  14
BRANCH   3  16
ATOM     16  C   UNL     1      35.246 -18.335 -22.707  0.00  0.00    +0.054 C 
BRANCH  16  17
ATOM     17  C   UNL     1      34.907 -16.927 -22.252  0.00  0.00    -0.018 C 
ATOM     18  C   UNL     1      34.690 -15.922 -23.194  0.00  0.00    -0.004 C 
ATOM     19  C   UNL     1      34.814 -16.638 -20.890  0.00  0.00    -0.004 C 
ATOM     20  C   UNL     1      34.379 -14.628 -22.776  0.00  0.00    -0.000 C 
ATOM     21  C   UNL     1      34.503 -15.345 -20.471  0.00  0.00    -0.000 C 
ATOM     22  C   UNL     1      34.285 -14.340 -21.414  0.00  0.00    -0.000 C 
ENDBRANCH  16  17
BRANCH  16  23
ATOM     23  C   UNL     1      34.458 -18.789 -23.953  0.00  0.00    +0.009 C 
ATOM     24  C   UNL     1      35.166 -19.890 -24.735  0.00  0.00    +0.001 C 
ENDBRANCH  16  23
ENDBRANCH   3  16
TORSDOF 5
ENDMDL
MODEL 6
REMARK VINA RESULT:      -8.2      7.176      9.818
REMARK  Name = 54736485
REMARK  5 active torsions:
REMARK  status: ('A' for Active; 'I' for Inactive)
REMARK    1  A    between atoms: C_3  and  C_16
REMARK    2  A    between atoms: C_4  and  O_12
REMARK    3  A    between atoms: C_10  and  O_14
REMARK    4  A    between atoms: C_16  and  C_17
REMARK    5  A    between atoms: C_16  and  C_23
REMARK                            x       y       z     vdW  Elec       q    Type
REMARK                         _______ _______ _______ _____ _____    ______ ____
ROOT
ATOM      1  O   UNL     1      33.372 -22.952 -16.172  0.00  0.00    -0.421 OA
ATOM      2  O   UNL     1      35.567 -22.359 -16.124  0.00  0.00    -0.245 OA
ATOM      3  C   UNL     1      34.782 -23.631 -14.271  0.00  0.00    +0.091 A 
ATOM      4  C   UNL     1      33.729 -24.255 -13.707  0.00  0.00    +0.139 A 
ATOM      5  C   UNL     1      32.418 -24.255 -14.358  0.00  0.00    +0.068 A 
ATOM      6  C   UNL     1      34.628 -22.932 -15.581  0.00  0.00    +0.345 A 
ATOM      7  C   UNL     1      32.277 -23.600 -15.576  0.00  0.00    +0.155 A 
ATOM      8  C   UNL     1      31.285 -24.882 -13.818  0.00  0.00    +0.009 C 
ATOM      9  C   UNL     1      31.063 -23.552 -16.262  0.00  0.00    +0.075 C 
ATOM     10  C   UNL     1      29.949 -24.179 -15.713  0.00  0.00    +0.142 C 
ATOM     11  C   UNL     1      30.060 -24.844 -14.492  0.00  0.00    +0.037 C 
ENDROOT
BRANCH   4  12
ATOM     12  O   UNL     1      33.772 -24.931 -12.506  0.00  0.00    -0.506 OA
ATOM     13  H   UNL     1      33.553 -24.487 -11.711  0.00  0.00    +0.292 HD
ENDBRANCH   4  12
BRANCH  10  14
ATOM     14  O   UNL     1      28.755 -24.145 -16.364  0.00  0.00    -0.471 OA
ATOM     15  C   UNL     1      28.323 -22.880 -16.863  0.00  0.00    +0.252 C 
ENDBRANCH  10  14
BRANCH   3  16
ATOM     16  C   UNL     1      36.168 -23.557 -13.693  0.00  0.00    +0.054 C 
BRANCH  16  17
ATOM     17  C   UNL     1      37.014 -24.728 -14.158  0.00  0.00    -0.018 C 
ATOM     18  C   UNL     1      36.401 -25.870 -14.673  0.00  0.00    -0.004 C 
ATOM     19  C   UNL     1      38.405 -24.662 -14.071  0.00  0.00    -0.004 C 
ATOM     20  C   UNL     1      37.177 -26.947 -15.100  0.00  0.00    -0.000 C 
ATOM     21  C   UNL     1      39.182 -25.738 -14.498  0.00  0.00    -0.000 C 
ATOM     22  C   UNL     1      38.568 -26.881 -15.013  0.00  0.00    -0.000 C 
ENDBRANCH  16  17
BRANCH  16  23
ATOM     23  C   UNL     1      36.091 -23.420 -12.158  0.00  0.00    +0.009 C 
ATOM     24  C   UNL     1      37.326 -22.759 -11.557  0.00  0.00    +0.001 C 
ENDBRANCH  16  23
ENDBRANCH   3  16
TORSDOF 5
ENDMDL
MODEL 7
REMARK VINA RESULT:      -8.1      7.065      9.555
REMARK  Name = 54736485
REMARK  5 active torsions:
REMARK  status: ('A' for Active; 'I' for Inactive)
REMARK    1  A    between atoms: C_3  and  C_16
REMARK    2  A    between atoms: C_4  and  O_12
REMARK    3  A    between atoms: C_10  and  O_14
REMARK    4  A    between atoms: C_16  and  C_17
REMARK    5  A    between atoms: C_16  and  C_23
REMARK                            x       y       z     vdW  Elec       q    Type
REMARK                         _______ _______ _______ _____ _____    ______ ____
ROOT
ATOM      1  O   UNL     1      33.238 -23.148 -16.594  0.00  0.00    -0.421 OA
ATOM      2  O   UNL     1      35.442 -23.697 -16.476  0.00  0.00    -0.245 OA
ATOM      3  C   UNL     1      34.041 -24.604 -14.779  0.00  0.00    +0.091 A 
ATOM      4  C   UNL     1      32.789 -24.694 -14.289  0.00  0.00    +0.139 A 
ATOM      5  C   UNL     1      31.676 -23.997 -14.938  0.00  0.00    +0.068 A 
ATOM      6  C   UNL     1      34.314 -23.794 -16.002  0.00  0.00    +0.345 A 
ATOM      7  C   UNL     1      31.935 -23.241 -16.076  0.00  0.00    +0.155 A 
ATOM      8  C   UNL     1      30.354 -24.049 -14.473  0.00  0.00    +0.009 C 
ATOM      9  C   UNL     1      30.932 -22.546 -16.753  0.00  0.00    +0.075 C 
ATOM     10  C   UNL     1      29.626 -22.608 -16.280  0.00  0.00    +0.142 C 
ATOM     11  C   UNL     1      29.337 -23.359 -15.141  0.00  0.00    +0.037 C 
ENDROOT
BRANCH   4  12
ATOM     12  O   UNL     1      32.436 -25.420 -13.171  0.00  0.00    -0.506 OA
ATOM     13  H   UNL     1      32.912 -25.309 -12.372  0.00  0.00    +0.292 HD
ENDBRANCH   4  12
BRANCH  10  14
ATOM     14  O   UNL     1      28.633 -21.939 -16.924  0.00  0.00    -0.471 OA
ATOM     15  C   UNL     1      27.290 -22.265 -16.565  0.00  0.00    +0.252 C 
ENDBRANCH  10  14
BRANCH   3  16
ATOM     16  C   UNL     1      35.259 -25.265 -14.193  0.00  0.00    +0.054 C 
BRANCH  16  17
ATOM     17  C   UNL     1      35.853 -24.420 -13.082  0.00  0.00    -0.018 C 
ATOM     18  C   UNL     1      35.419 -24.590 -11.767  0.00  0.00    -0.004 C 
ATOM     19  C   UNL     1      36.833 -23.471 -13.375  0.00  0.00    -0.004 C 
ATOM     20  C   UNL     1      35.964 -23.813 -10.745  0.00  0.00    -0.000 C 
ATOM     21  C   UNL     1      37.379 -22.694 -12.353  0.00  0.00    -0.000 C 
ATOM     22  C   UNL     1      36.944 -22.864 -11.039  0.00  0.00    -0.000 C 
ENDBRANCH  16  17
BRANCH  16  23
ATOM     23  C   UNL     1      36.262 -25.607 -15.314  0.00  0.00    +0.009 C 
ATOM     24  C   UNL     1      37.134 -26.813 -14.986  0.00  0.00    +0.001 C 
ENDBRANCH  16  23
ENDBRANCH   3  16
TORSDOF 5
ENDMDL
MODEL 8
REMARK VINA RESULT:      -8.1      2.747      7.130
REMARK  Name = 54736485
REMARK  5 active torsions:
REMARK  status: ('A' for Active; 'I' for Inactive)
REMARK    1  A    between atoms: C_3  and  C_16
REMARK    2  A    between atoms: C_4  and  O_12
REMARK    3  A    between atoms: C_10  and  O_14
REMARK    4  A    between atoms: C_16  and  C_17
REMARK    5  A    between atoms: C_16  and  C_23
REMARK                            x       y       z     vdW  Elec       q    Type
REMARK                         _______ _______ _______ _____ _____    ______ ____
ROOT
ATOM      1  O   UNL     1      33.538 -15.558 -23.955  0.00  0.00    -0.421 OA
ATOM      2  O   UNL     1      34.564 -17.421 -24.761  0.00  0.00    -0.245 OA
ATOM      3  C   UNL     1      34.654 -17.111 -22.403  0.00  0.00    +0.091 A 
ATOM      4  C   UNL     1      34.302 -16.332 -21.362  0.00  0.00    +0.139 A 
ATOM      5  C   UNL     1      33.538 -15.100 -21.569  0.00  0.00    +0.068 A 
ATOM      6  C   UNL     1      34.263 -16.731 -23.792  0.00  0.00    +0.345 A 
ATOM      7  C   UNL     1      33.178 -14.748 -22.865  0.00  0.00    +0.155 A 
ATOM      8  C   UNL     1      33.146 -14.247 -20.526  0.00  0.00    +0.009 C 
ATOM      9  C   UNL     1      32.451 -13.591 -23.149  0.00  0.00    +0.075 C 
ATOM     10  C   UNL     1      32.070 -12.756 -22.104  0.00  0.00    +0.142 C 
ATOM     11  C   UNL     1      32.417 -13.083 -20.794  0.00  0.00    +0.037 C 
ENDROOT
BRANCH   4  12
ATOM     12  O   UNL     1      34.610 -16.599 -20.045  0.00  0.00    -0.506 OA
ATOM     13  H   UNL     1      35.040 -15.951 -19.524  0.00  0.00    +0.292 HD
ENDBRANCH   4  12
BRANCH  10  14
ATOM     14  O   UNL     1      31.361 -11.623 -22.358  0.00  0.00    -0.471 OA
ATOM     15  C   UNL     1      31.021 -10.805 -21.238  0.00  0.00    +0.252 C 
ENDBRANCH  10  14
BRANCH   3  16
ATOM     16  C   UNL     1      35.444 -18.388 -22.313  0.00  0.00    +0.054 C 
BRANCH  16  17
ATOM     17  C   UNL     1      34.764 -19.382 -21.389  0.00  0.00    -0.018 C 
ATOM     18  C   UNL     1      33.373 -19.481 -21.372  0.00  0.00    -0.004 C 
ATOM     19  C   UNL     1      35.531 -20.195 -20.555  0.00  0.00    -0.004 C 
ATOM     20  C   UNL     1      32.748 -20.393 -20.523  0.00  0.00    -0.000 C 
ATOM     21  C   UNL     1      34.907 -21.108 -19.705  0.00  0.00    -0.000 C 
ATOM     22  C   UNL     1      33.515 -21.207 -19.689  0.00  0.00    -0.000 C 
ENDBRANCH  16  17
BRANCH  16  23
ATOM     23  C   UNL     1      36.903 -18.077 -21.923  0.00  0.00    +0.009 C 
ATOM     24  C   UNL     1      37.712 -19.329 -21.600  0.00  0.00    +0.001 C 
ENDBRANCH  16  23
ENDBRANCH   3  16
TORSDOF 5
ENDMDL
MODEL 9
REMARK VINA RESULT:      -7.8      6.687     11.237
REMARK  Name = 54736485
REMARK  5 active torsions:
REMARK  status: ('A' for Active; 'I' for Inactive)
REMARK    1  A    between atoms: C_3  and  C_16
REMARK    2  A    between atoms: C_4  and  O_12
REMARK    3  A    between atoms: C_10  and  O_14
REMARK    4  A    between atoms: C_16  and  C_17
REMARK    5  A    between atoms: C_16  and  C_23
REMARK                            x       y       z     vdW  Elec       q    Type
REMARK                         _______ _______ _______ _____ _____    ______ ____
ROOT
ATOM      1  O   UNL     1      31.539 -10.056 -22.523  0.00  0.00    -0.421 OA
ATOM      2  O   UNL     1      31.417 -12.319 -22.336  0.00  0.00    -0.245 OA
ATOM      3  C   UNL     1      33.406 -11.451 -23.315  0.00  0.00    +0.091 A 
ATOM      4  C   UNL     1      34.080 -10.347 -23.688  0.00  0.00    +0.139 A 
ATOM      5  C   UNL     1      33.505  -9.014 -23.497  0.00  0.00    +0.068 A 
ATOM      6  C   UNL     1      32.055 -11.333 -22.691  0.00  0.00    +0.345 A 
ATOM      7  C   UNL     1      32.245  -8.907 -22.918  0.00  0.00    +0.155 A 
ATOM      8  C   UNL     1      34.157  -7.828 -23.868  0.00  0.00    +0.009 C 
ATOM      9  C   UNL     1      31.625  -7.676 -22.701  0.00  0.00    +0.075 C 
ATOM     10  C   UNL     1      32.285  -6.510 -23.075  0.00  0.00    +0.142 C 
ATOM     11  C   UNL     1      33.550  -6.586 -23.658  0.00  0.00    +0.037 C 
ENDROOT
BRANCH   4  12
ATOM     12  O   UNL     1      35.332 -10.352 -24.266  0.00  0.00    -0.506 OA
ATOM     13  H   UNL     1      36.097 -10.388 -23.726  0.00  0.00    +0.292 HD
ENDBRANCH   4  12
BRANCH  10  14
ATOM     14  O   UNL     1      31.700  -5.299 -22.873  0.00  0.00    -0.471 OA
ATOM     15  C   UNL     1      30.557  -5.264 -22.018  0.00  0.00    +0.252 C 
ENDBRANCH  10  14
BRANCH   3  16
ATOM     16  C   UNL     1      33.890 -12.867 -23.470  0.00  0.00    +0.054 C 
BRANCH  16  17
ATOM     17  C   UNL     1      33.545 -13.411 -24.845  0.00  0.00    -0.018 C 
ATOM     18  C   UNL     1      33.224 -14.758 -25.002  0.00  0.00    -0.004 C 
ATOM     19  C   UNL     1      33.548 -12.561 -25.951  0.00  0.00    -0.004 C 
ATOM     20  C   UNL     1      32.907 -15.258 -26.265  0.00  0.00    -0.000 C 
ATOM     21  C   UNL     1      33.231 -13.060 -27.214  0.00  0.00    -0.000 C 
ATOM     22  C   UNL     1      32.911 -14.409 -27.371  0.00  0.00    -0.000 C 
ENDBRANCH  16  17
BRANCH  16  23
ATOM     23  C   UNL     1      33.361 -13.735 -22.310  0.00  0.00    +0.009 C 
ATOM     24  C   UNL     1      34.454 -14.552 -21.631  0.00  0.00    +0.001 C 
ENDBRANCH  16  23
ENDBRANCH   3  16
TORSDOF 5
ENDMDL
