MODEL 1
REMARK VINA RESULT:      -9.7      0.000      0.000
REMARK  Name = 11434515
REMARK  11 active torsions:
REMARK  status: ('A' for Active; 'I' for Inactive)
REMARK    1  A    between atoms: N_1  and  C_25
REMARK    2  A    between atoms: C_6  and  O_9
REMARK    3  A    between atoms: O_9  and  C_11
REMARK    4  A    between atoms: C_11  and  C_12
REMARK    5  A    between atoms: C_12  and  C_14
REMARK    6  A    between atoms: C_12  and  C_19
REMARK    7  A    between atoms: C_12  and  O_23
REMARK    8  A    between atoms: C_25  and  C_26
REMARK    9  A    between atoms: C_26  and  C_27
REMARK   10  A    between atoms: C_27  and  O_28
REMARK   11  A    between atoms: O_28  and  C_29
REMARK                            x       y       z     vdW  Elec       q    Type
REMARK                         _______ _______ _______ _____ _____    ______ ____
ROOT
ATOM      1  N   UNL     1      33.542 -15.289 -22.601  0.00  0.00    +0.392 N 
ATOM      2  C   UNL     1      32.750 -13.828 -20.630  0.00  0.00    +0.034 C 
ATOM      3  C   UNL     1      32.560 -14.222 -23.116  0.00  0.00    -0.028 C 
ATOM      4  C   UNL     1      32.835 -16.167 -21.556  0.00  0.00    -0.073 C 
ATOM      5  C   UNL     1      34.750 -14.599 -21.954  0.00  0.00    -0.073 C 
ATOM      6  C   UNL     1      32.115 -13.343 -21.942  0.00  0.00    +0.149 C 
ATOM      7  C   UNL     1      32.337 -15.286 -20.409  0.00  0.00    -0.019 C 
ATOM      8  C   UNL     1      34.279 -13.779 -20.755  0.00  0.00    -0.019 C 
ENDROOT
BRANCH   6   9
ATOM      9  O   UNL     1      32.497 -11.995 -22.204  0.00  0.00    -0.452 OA
BRANCH   9  11
ATOM     10  O   UNL     1      30.503 -11.228 -21.348  0.00  0.00    -0.247 OA
ATOM     11  C   UNL     1      31.527 -11.048 -21.999  0.00  0.00    +0.350 C 
BRANCH  11  12
ATOM     12  C   UNL     1      31.883  -9.749 -22.722  0.00  0.00    +0.227 C 
BRANCH  12  14
ATOM     13  S   UNL     1      34.358  -8.841 -23.680  0.00  0.00    -0.088 S 
ATOM     14  C   UNL     1      33.096  -9.997 -23.628  0.00  0.00    +0.046 C 
ATOM     15  C   UNL     1      33.340 -11.068 -24.458  0.00  0.00    +0.006 C 
ATOM     16  C   UNL     1      34.581 -10.940 -25.146  0.00  0.00    +0.007 C 
ATOM     17  C   UNL     1      35.238  -9.775 -24.814  0.00  0.00    +0.035 C 
ENDBRANCH  12  14
BRANCH  12  19
ATOM     18  S   UNL     1      31.557  -7.005 -22.249  0.00  0.00    -0.088 S 
ATOM     19  C   UNL     1      32.065  -8.568 -21.765  0.00  0.00    +0.046 C 
ATOM     20  C   UNL     1      32.606  -8.566 -20.499  0.00  0.00    +0.006 C 
ATOM     21  C   UNL     1      32.604  -7.265 -19.917  0.00  0.00    +0.007 C 
ATOM     22  C   UNL     1      32.061  -6.323 -20.762  0.00  0.00    +0.035 C 
ENDBRANCH  12  19
BRANCH  12  23
ATOM     23  O   UNL     1      30.762  -9.442 -23.558  0.00  0.00    -0.369 OA
ATOM     24  H   UNL     1      30.112 -10.159 -23.503  0.00  0.00    +0.212 HD
ENDBRANCH  12  23
ENDBRANCH  11  12
ENDBRANCH   9  11
ENDBRANCH   6   9
BRANCH   1  25
ATOM     25  C   UNL     1      34.008 -16.154 -23.762  0.00  0.00    -0.069 C 
BRANCH  25  26
ATOM     26  C   UNL     1      35.295 -16.859 -23.371  0.00  0.00    +0.025 C 
BRANCH  26  27
ATOM     27  C   UNL     1      35.065 -18.344 -23.135  0.00  0.00    +0.203 C 
BRANCH  27  28
ATOM     28  O   UNL     1      35.688 -18.719 -21.914  0.00  0.00    -0.476 OA
BRANCH  28  29
ATOM     29  C   UNL     1      35.007 -19.603 -21.118  0.00  0.00    +0.139 C 
ATOM     30  C   UNL     1      33.614 -19.555 -21.054  0.00  0.00    +0.037 C 
ATOM     31  C   UNL     1      35.707 -20.550 -20.370  0.00  0.00    +0.037 C 
ATOM     32  C   UNL     1      32.922 -20.453 -20.243  0.00  0.00    +0.003 C 
ATOM     33  C   UNL     1      35.014 -21.448 -19.559  0.00  0.00    +0.003 C 
ATOM     34  C   UNL     1      33.621 -21.400 -19.496  0.00  0.00    +0.000 C 
ENDBRANCH  28  29
ENDBRANCH  27  28
ENDBRANCH  26  27
ENDBRANCH  25  26
ENDBRANCH   1  25
TORSDOF 11
ENDMDL
MODEL 2
REMARK VINA RESULT:      -9.6      2.909      4.834
REMARK  Name = 11434515
REMARK  11 active torsions:
REMARK  status: ('A' for Active; 'I' for Inactive)
REMARK    1  A    between atoms: N_1  and  C_25
REMARK    2  A    between atoms: C_6  and  O_9
REMARK    3  A    between atoms: O_9  and  C_11
REMARK    4  A    between atoms: C_11  and  C_12
REMARK    5  A    between atoms: C_12  and  C_14
REMARK    6  A    between atoms: C_12  and  C_19
REMARK    7  A    between atoms: C_12  and  O_23
REMARK    8  A    between atoms: C_25  and  C_26
REMARK    9  A    between atoms: C_26  and  C_27
REMARK   10  A    between atoms: C_27  and  O_28
REMARK   11  A    between atoms: O_28  and  C_29
REMARK                            x       y       z     vdW  Elec       q    Type
REMARK                         _______ _______ _______ _____ _____    ______ ____
ROOT
ATOM      1  N   UNL     1      34.333 -19.135 -21.471  0.00  0.00    +0.392 N 
ATOM      2  C   UNL     1      35.843 -17.454 -22.712  0.00  0.00    +0.034 C 
ATOM      3  C   UNL     1      33.984 -17.704 -21.023  0.00  0.00    -0.028 C 
ATOM      4  C   UNL     1      35.807 -19.424 -21.145  0.00  0.00    -0.073 C 
ATOM      5  C   UNL     1      34.110 -19.264 -22.983  0.00  0.00    -0.073 C 
ATOM      6  C   UNL     1      34.869 -16.712 -21.785  0.00  0.00    +0.149 C 
ATOM      7  C   UNL     1      36.692 -18.399 -21.857  0.00  0.00    -0.019 C 
ATOM      8  C   UNL     1      35.047 -18.304 -23.714  0.00  0.00    -0.019 C 
ENDROOT
BRANCH   6   9
ATOM      9  O   UNL     1      34.035 -15.839 -22.544  0.00  0.00    -0.452 OA
BRANCH   9  11
ATOM     10  O   UNL     1      35.051 -14.002 -21.603  0.00  0.00    -0.247 OA
ATOM     11  C   UNL     1      34.135 -14.506 -22.243  0.00  0.00    +0.350 C 
BRANCH  11  12
ATOM     12  C   UNL     1      32.927 -13.742 -22.786  0.00  0.00    +0.227 C 
BRANCH  12  14
ATOM     13  S   UNL     1      32.971 -13.894 -25.586  0.00  0.00    -0.088 S 
ATOM     14  C   UNL     1      33.308 -13.082 -24.116  0.00  0.00    +0.046 C 
ATOM     15  C   UNL     1      33.918 -11.865 -24.326  0.00  0.00    +0.006 C 
ATOM     16  C   UNL     1      34.110 -11.594 -25.711  0.00  0.00    +0.007 C 
ATOM     17  C   UNL     1      33.640 -12.615 -26.508  0.00  0.00    +0.035 C 
ENDBRANCH  12  14
BRANCH  12  19
ATOM     18  S   UNL     1      31.607 -11.315 -22.311  0.00  0.00    -0.088 S 
ATOM     19  C   UNL     1      32.335 -12.766 -21.766  0.00  0.00    +0.046 C 
ATOM     20  C   UNL     1      32.294 -12.880 -20.394  0.00  0.00    +0.006 C 
ATOM     21  C   UNL     1      31.656 -11.762 -19.782  0.00  0.00    +0.007 C 
ATOM     22  C   UNL     1      31.235 -10.836 -20.710  0.00  0.00    +0.035 C 
ENDBRANCH  12  19
BRANCH  12  23
ATOM     23  O   UNL     1      31.923 -14.728 -23.052  0.00  0.00    -0.369 OA
ATOM     24  H   UNL     1      32.271 -15.382 -23.678  0.00  0.00    +0.212 HD
ENDBRANCH  12  23
ENDBRANCH  11  12
ENDBRANCH   9  11
ENDBRANCH   6   9
BRANCH   1  25
ATOM     25  C   UNL     1      33.445 -20.128 -20.737  0.00  0.00    -0.069 C 
BRANCH  25  26
ATOM     26  C   UNL     1      34.313 -21.036 -19.883  0.00  0.00    +0.025 C 
BRANCH  26  27
ATOM     27  C   UNL     1      33.489 -22.130 -19.221  0.00  0.00    +0.203 C 
BRANCH  27  28
ATOM     28  O   UNL     1      34.319 -22.851 -18.321  0.00  0.00    -0.476 OA
BRANCH  28  29
ATOM     29  C   UNL     1      33.800 -23.121 -17.081  0.00  0.00    +0.139 C 
ATOM     30  C   UNL     1      34.655 -23.363 -16.005  0.00  0.00    +0.037 C 
ATOM     31  C   UNL     1      32.418 -23.156 -16.895  0.00  0.00    +0.037 C 
ATOM     32  C   UNL     1      34.127 -23.639 -14.744  0.00  0.00    +0.003 C 
ATOM     33  C   UNL     1      31.892 -23.432 -15.633  0.00  0.00    +0.003 C 
ATOM     34  C   UNL     1      32.746 -23.673 -14.558  0.00  0.00    +0.000 C 
ENDBRANCH  28  29
ENDBRANCH  27  28
ENDBRANCH  26  27
ENDBRANCH  25  26
ENDBRANCH   1  25
TORSDOF 11
ENDMDL
MODEL 3
REMARK VINA RESULT:      -8.6      1.434      2.103
REMARK  Name = 11434515
REMARK  11 active torsions:
REMARK  status: ('A' for Active; 'I' for Inactive)
REMARK    1  A    between atoms: N_1  and  C_25
REMARK    2  A    between atoms: C_6  and  O_9
REMARK    3  A    between atoms: O_9  and  C_11
REMARK    4  A    between atoms: C_11  and  C_12
REMARK    5  A    between atoms: C_12  and  C_14
REMARK    6  A    between atoms: C_12  and  C_19
REMARK    7  A    between atoms: C_12  and  O_23
REMARK    8  A    between atoms: C_25  and  C_26
REMARK    9  A    between atoms: C_26  and  C_27
REMARK   10  A    between atoms: C_27  and  O_28
REMARK   11  A    between atoms: O_28  and  C_29
REMARK                            x       y       z     vdW  Elec       q    Type
REMARK                         _______ _______ _______ _____ _____    ______ ____
ROOT
ATOM      1  N   UNL     1      34.193 -15.498 -22.410  0.00  0.00    +0.392 N 
ATOM      2  C   UNL     1      32.596 -14.225 -20.837  0.00  0.00    +0.034 C 
ATOM      3  C   UNL     1      33.535 -14.338 -23.177  0.00  0.00    -0.028 C 
ATOM      4  C   UNL     1      33.102 -16.451 -21.896  0.00  0.00    -0.073 C 
ATOM      5  C   UNL     1      34.982 -14.938 -21.220  0.00  0.00    -0.073 C 
ATOM      6  C   UNL     1      32.607 -13.572 -22.228  0.00  0.00    +0.149 C 
ATOM      7  C   UNL     1      32.139 -15.677 -20.994  0.00  0.00    -0.019 C 
ATOM      8  C   UNL     1      34.021 -14.232 -20.265  0.00  0.00    -0.019 C 
ENDROOT
BRANCH   6   9
ATOM      9  O   UNL     1      33.055 -12.222 -22.134  0.00  0.00    -0.452 OA
BRANCH   9  11
ATOM     10  O   UNL     1      32.979 -11.631 -24.356  0.00  0.00    -0.247 OA
ATOM     11  C   UNL     1      32.714 -11.405 -23.181  0.00  0.00    +0.350 C 
BRANCH  11  12
ATOM     12  C   UNL     1      31.990 -10.158 -22.673  0.00  0.00    +0.227 C 
BRANCH  12  14
ATOM     13  S   UNL     1      31.796  -7.547 -23.680  0.00  0.00    -0.088 S 
ATOM     14  C   UNL     1      32.712  -8.911 -23.197  0.00  0.00    +0.046 C 
ATOM     15  C   UNL     1      34.066  -8.706 -23.351  0.00  0.00    +0.006 C 
ATOM     16  C   UNL     1      34.355  -7.411 -23.871  0.00  0.00    +0.007 C 
ATOM     17  C   UNL     1      33.211  -6.676 -24.095  0.00  0.00    +0.035 C 
ENDBRANCH  12  14
BRANCH  12  19
ATOM     18  S   UNL     1      32.386  -8.848 -20.227  0.00  0.00    -0.088 S 
ATOM     19  C   UNL     1      31.797 -10.161 -21.155  0.00  0.00    +0.046 C 
ATOM     20  C   UNL     1      31.185 -11.114 -20.370  0.00  0.00    +0.006 C 
ATOM     21  C   UNL     1      31.200 -10.762 -18.990  0.00  0.00    +0.007 C 
ATOM     22  C   UNL     1      31.824  -9.552 -18.772  0.00  0.00    +0.035 C 
ENDBRANCH  12  19
BRANCH  12  23
ATOM     23  O   UNL     1      30.685 -10.192 -23.261  0.00  0.00    -0.369 OA
ATOM     24  H   UNL     1      30.399  -9.289 -23.467  0.00  0.00    +0.212 HD
ENDBRANCH  12  23
ENDBRANCH  11  12
ENDBRANCH   9  11
ENDBRANCH   6   9
BRANCH   1  25
ATOM     25  C   UNL     1      35.134 -16.252 -23.337  0.00  0.00    -0.069 C 
BRANCH  25  26
ATOM     26  C   UNL     1      34.605 -17.660 -23.545  0.00  0.00    +0.025 C 
BRANCH  26  27
ATOM     27  C   UNL     1      35.636 -18.706 -23.146  0.00  0.00    +0.203 C 
BRANCH  27  28
ATOM     28  O   UNL     1      35.859 -18.622 -21.746  0.00  0.00    -0.476 OA
BRANCH  28  29
ATOM     29  C   UNL     1      35.310 -19.610 -20.971  0.00  0.00    +0.139 C 
ATOM     30  C   UNL     1      36.138 -20.489 -20.271  0.00  0.00    +0.037 C 
ATOM     31  C   UNL     1      33.924 -19.738 -20.881  0.00  0.00    +0.037 C 
ATOM     32  C   UNL     1      35.580 -21.495 -19.483  0.00  0.00    +0.003 C 
ATOM     33  C   UNL     1      33.367 -20.745 -20.093  0.00  0.00    +0.003 C 
ATOM     34  C   UNL     1      34.195 -21.623 -19.394  0.00  0.00    +0.000 C 
ENDBRANCH  28  29
ENDBRANCH  27  28
ENDBRANCH  26  27
ENDBRANCH  25  26
ENDBRANCH   1  25
TORSDOF 11
ENDMDL
MODEL 4
REMARK VINA RESULT:      -8.6      3.289      9.748
REMARK  Name = 11434515
REMARK  11 active torsions:
REMARK  status: ('A' for Active; 'I' for Inactive)
REMARK    1  A    between atoms: N_1  and  C_25
REMARK    2  A    between atoms: C_6  and  O_9
REMARK    3  A    between atoms: O_9  and  C_11
REMARK    4  A    between atoms: C_11  and  C_12
REMARK    5  A    between atoms: C_12  and  C_14
REMARK    6  A    between atoms: C_12  and  C_19
REMARK    7  A    between atoms: C_12  and  O_23
REMARK    8  A    between atoms: C_25  and  C_26
REMARK    9  A    between atoms: C_26  and  C_27
REMARK   10  A    between atoms: C_27  and  O_28
REMARK   11  A    between atoms: O_28  and  C_29
REMARK                            x       y       z     vdW  Elec       q    Type
REMARK                         _______ _______ _______ _____ _____    ______ ____
ROOT
ATOM      1  N   UNL     1      32.168  -9.721 -21.954  0.00  0.00    +0.392 N 
ATOM      2  C   UNL     1      31.198 -11.818 -20.811  0.00  0.00    +0.034 C 
ATOM      3  C   UNL     1      33.040 -10.941 -22.298  0.00  0.00    -0.028 C 
ATOM      4  C   UNL     1      32.152  -9.520 -20.430  0.00  0.00    -0.073 C 
ATOM      5  C   UNL     1      30.737  -9.962 -22.451  0.00  0.00    -0.073 C 
ATOM      6  C   UNL     1      32.441 -12.187 -21.635  0.00  0.00    +0.149 C 
ATOM      7  C   UNL     1      31.610 -10.784 -19.760  0.00  0.00    -0.019 C 
ATOM      8  C   UNL     1      30.150 -11.173 -21.730  0.00  0.00    -0.019 C 
ENDROOT
BRANCH   6   9
ATOM      9  O   UNL     1      32.098 -13.129 -22.648  0.00  0.00    -0.452 OA
BRANCH   9  11
ATOM     10  O   UNL     1      32.174 -15.234 -21.723  0.00  0.00    -0.247 OA
ATOM     11  C   UNL     1      32.616 -14.389 -22.493  0.00  0.00    +0.350 C 
BRANCH  11  12
ATOM     12  C   UNL     1      33.841 -14.579 -23.387  0.00  0.00    +0.227 C 
BRANCH  12  14
ATOM     13  S   UNL     1      34.027 -12.498 -25.258  0.00  0.00    -0.088 S 
ATOM     14  C   UNL     1      33.518 -14.066 -24.796  0.00  0.00    +0.046 C 
ATOM     15  C   UNL     1      32.839 -14.709 -25.807  0.00  0.00    +0.006 C 
ATOM     16  C   UNL     1      32.736 -13.904 -26.978  0.00  0.00    +0.007 C 
ATOM     17  C   UNL     1      33.340 -12.677 -26.817  0.00  0.00    +0.035 C 
ENDBRANCH  12  14
BRANCH  12  19
ATOM     18  S   UNL     1      34.947 -16.679 -21.895  0.00  0.00    -0.088 S 
ATOM     19  C   UNL     1      34.373 -16.015 -23.366  0.00  0.00    +0.046 C 
ATOM     20  C   UNL     1      34.468 -16.910 -24.408  0.00  0.00    +0.006 C 
ATOM     21  C   UNL     1      35.019 -18.157 -23.996  0.00  0.00    +0.007 C 
ATOM     22  C   UNL     1      35.324 -18.167 -22.652  0.00  0.00    +0.035 C 
ENDBRANCH  12  19
BRANCH  12  23
ATOM     23  O   UNL     1      34.866 -13.745 -22.836  0.00  0.00    -0.369 OA
ATOM     24  H   UNL     1      35.296 -14.205 -22.100  0.00  0.00    +0.212 HD
ENDBRANCH  12  23
ENDBRANCH  11  12
ENDBRANCH   9  11
ENDBRANCH   6   9
BRANCH   1  25
ATOM     25  C   UNL     1      32.740  -8.481 -22.626  0.00  0.00    -0.069 C 
BRANCH  25  26
ATOM     26  C   UNL     1      32.664  -7.312 -21.659  0.00  0.00    +0.025 C 
BRANCH  26  27
ATOM     27  C   UNL     1      31.705  -6.241 -22.158  0.00  0.00    +0.203 C 
BRANCH  27  28
ATOM     28  O   UNL     1      31.351  -6.529 -23.504  0.00  0.00    -0.476 OA
BRANCH  28  29
ATOM     29  C   UNL     1      31.728  -5.615 -24.452  0.00  0.00    +0.139 C 
ATOM     30  C   UNL     1      32.847  -5.858 -25.249  0.00  0.00    +0.037 C 
ATOM     31  C   UNL     1      30.994  -4.440 -24.620  0.00  0.00    +0.037 C 
ATOM     32  C   UNL     1      33.231  -4.927 -26.214  0.00  0.00    +0.003 C 
ATOM     33  C   UNL     1      31.379  -3.510 -25.585  0.00  0.00    +0.003 C 
ATOM     34  C   UNL     1      32.497  -3.753 -26.382  0.00  0.00    +0.000 C 
ENDBRANCH  28  29
ENDBRANCH  27  28
ENDBRANCH  26  27
ENDBRANCH  25  26
ENDBRANCH   1  25
TORSDOF 11
ENDMDL
MODEL 5
REMARK VINA RESULT:      -8.5      1.992      3.356
REMARK  Name = 11434515
REMARK  11 active torsions:
REMARK  status: ('A' for Active; 'I' for Inactive)
REMARK    1  A    between atoms: N_1  and  C_25
REMARK    2  A    between atoms: C_6  and  O_9
REMARK    3  A    between atoms: O_9  and  C_11
REMARK    4  A    between atoms: C_11  and  C_12
REMARK    5  A    between atoms: C_12  and  C_14
REMARK    6  A    between atoms: C_12  and  C_19
REMARK    7  A    between atoms: C_12  and  O_23
REMARK    8  A    between atoms: C_25  and  C_26
REMARK    9  A    between atoms: C_26  and  C_27
REMARK   10  A    between atoms: C_27  and  O_28
REMARK   11  A    between atoms: O_28  and  C_29
REMARK                            x       y       z     vdW  Elec       q    Type
REMARK                         _______ _______ _______ _____ _____    ______ ____
ROOT
ATOM      1  N   UNL     1      33.986 -14.297 -22.685  0.00  0.00    +0.392 N 
ATOM      2  C   UNL     1      32.966 -13.231 -24.800  0.00  0.00    +0.034 C 
ATOM      3  C   UNL     1      34.510 -12.858 -22.838  0.00  0.00    -0.028 C 
ATOM      4  C   UNL     1      34.384 -15.117 -23.923  0.00  0.00    -0.073 C 
ATOM      5  C   UNL     1      32.457 -14.271 -22.562  0.00  0.00    -0.073 C 
ATOM      6  C   UNL     1      33.879 -12.224 -24.082  0.00  0.00    +0.149 C 
ATOM      7  C   UNL     1      33.806 -14.455 -25.175  0.00  0.00    -0.019 C 
ATOM      8  C   UNL     1      31.858 -13.688 -23.840  0.00  0.00    -0.019 C 
ENDROOT
BRANCH   6   9
ATOM      9  O   UNL     1      33.132 -11.077 -23.687  0.00  0.00    -0.452 OA
BRANCH   9  11
ATOM     10  O   UNL     1      34.932  -9.706 -24.105  0.00  0.00    -0.247 OA
ATOM     11  C   UNL     1      33.841  -9.908 -23.584  0.00  0.00    +0.350 C 
BRANCH  11  12
ATOM     12  C   UNL     1      33.097  -8.906 -22.700  0.00  0.00    +0.227 C 
BRANCH  12  14
ATOM     13  S   UNL     1      32.187  -9.227 -20.067  0.00  0.00    -0.088 S 
ATOM     14  C   UNL     1      32.200  -9.672 -21.720  0.00  0.00    +0.046 C 
ATOM     15  C   UNL     1      31.354 -10.727 -21.979  0.00  0.00    +0.006 C 
ATOM     16  C   UNL     1      30.684 -11.176 -20.804  0.00  0.00    +0.007 C 
ATOM     17  C   UNL     1      31.045 -10.446 -19.692  0.00  0.00    +0.035 C 
ENDBRANCH  12  14
BRANCH  12  19
ATOM     18  S   UNL     1      33.228  -6.546 -24.206  0.00  0.00    -0.088 S 
ATOM     19  C   UNL     1      32.352  -7.841 -23.509  0.00  0.00    +0.046 C 
ATOM     20  C   UNL     1      31.004  -7.758 -23.780  0.00  0.00    +0.006 C 
ATOM     21  C   UNL     1      30.685  -6.616 -24.570  0.00  0.00    +0.007 C 
ATOM     22  C   UNL     1      31.803  -5.870 -24.873  0.00  0.00    +0.035 C 
ENDBRANCH  12  19
BRANCH  12  23
ATOM     23  O   UNL     1      34.103  -8.227 -21.941  0.00  0.00    -0.369 OA
ATOM     24  H   UNL     1      33.746  -7.389 -21.608  0.00  0.00    +0.212 HD
ENDBRANCH  12  23
ENDBRANCH  11  12
ENDBRANCH   9  11
ENDBRANCH   6   9
BRANCH   1  25
ATOM     25  C   UNL     1      34.589 -14.929 -21.440  0.00  0.00    -0.069 C 
BRANCH  25  26
ATOM     26  C   UNL     1      34.071 -16.350 -21.304  0.00  0.00    +0.025 C 
BRANCH  26  27
ATOM     27  C   UNL     1      35.197 -17.323 -20.985  0.00  0.00    +0.203 C 
BRANCH  27  28
ATOM     28  O   UNL     1      34.952 -18.549 -21.660  0.00  0.00    -0.476 OA
BRANCH  28  29
ATOM     29  C   UNL     1      34.775 -19.661 -20.878  0.00  0.00    +0.139 C 
ATOM     30  C   UNL     1      35.881 -20.398 -20.454  0.00  0.00    +0.037 C 
ATOM     31  C   UNL     1      33.489 -20.057 -20.509  0.00  0.00    +0.037 C 
ATOM     32  C   UNL     1      35.701 -21.530 -19.659  0.00  0.00    +0.003 C 
ATOM     33  C   UNL     1      33.311 -21.190 -19.714  0.00  0.00    +0.003 C 
ATOM     34  C   UNL     1      34.416 -21.926 -19.290  0.00  0.00    +0.000 C 
ENDBRANCH  28  29
ENDBRANCH  27  28
ENDBRANCH  26  27
ENDBRANCH  25  26
ENDBRANCH   1  25
TORSDOF 11
ENDMDL
MODEL 6
REMARK VINA RESULT:      -8.5      6.739     12.844
REMARK  Name = 11434515
REMARK  11 active torsions:
REMARK  status: ('A' for Active; 'I' for Inactive)
REMARK    1  A    between atoms: N_1  and  C_25
REMARK    2  A    between atoms: C_6  and  O_9
REMARK    3  A    between atoms: O_9  and  C_11
REMARK    4  A    between atoms: C_11  and  C_12
REMARK    5  A    between atoms: C_12  and  C_14
REMARK    6  A    between atoms: C_12  and  C_19
REMARK    7  A    between atoms: C_12  and  O_23
REMARK    8  A    between atoms: C_25  and  C_26
REMARK    9  A    between atoms: C_26  and  C_27
REMARK   10  A    between atoms: C_27  and  O_28
REMARK   11  A    between atoms: O_28  and  C_29
REMARK                            x       y       z     vdW  Elec       q    Type
REMARK                         _______ _______ _______ _____ _____    ______ ____
ROOT
ATOM      1  N   UNL     1      35.267 -21.706 -19.895  0.00  0.00    +0.392 N 
ATOM      2  C   UNL     1      33.382 -22.632 -18.398  0.00  0.00    +0.034 C 
ATOM      3  C   UNL     1      35.717 -21.674 -18.424  0.00  0.00    -0.028 C 
ATOM      4  C   UNL     1      34.004 -20.845 -20.058  0.00  0.00    -0.073 C 
ATOM      5  C   UNL     1      34.952 -23.152 -20.299  0.00  0.00    -0.073 C 
ATOM      6  C   UNL     1      34.602 -22.249 -17.546  0.00  0.00    +0.149 C 
ATOM      7  C   UNL     1      32.905 -21.380 -19.139  0.00  0.00    -0.019 C 
ATOM      8  C   UNL     1      33.799 -23.675 -19.445  0.00  0.00    -0.019 C 
ENDROOT
BRANCH   6   9
ATOM      9  O   UNL     1      35.100 -23.394 -16.858  0.00  0.00    -0.452 OA
BRANCH   9  11
ATOM     10  O   UNL     1      36.210 -22.315 -15.156  0.00  0.00    -0.247 OA
ATOM     11  C   UNL     1      35.456 -23.197 -15.549  0.00  0.00    +0.350 C 
BRANCH  11  12
ATOM     12  C   UNL     1      34.808 -24.254 -14.653  0.00  0.00    +0.227 C 
BRANCH  12  14
ATOM     13  S   UNL     1      32.264 -25.105 -13.834  0.00  0.00    -0.088 S 
ATOM     14  C   UNL     1      33.321 -23.923 -14.481  0.00  0.00    +0.046 C 
ATOM     15  C   UNL     1      32.664 -22.752 -14.786  0.00  0.00    +0.006 C 
ATOM     16  C   UNL     1      31.273 -22.825 -14.484  0.00  0.00    +0.007 C 
ATOM     17  C   UNL     1      30.921 -24.049 -13.960  0.00  0.00    +0.035 C 
ENDBRANCH  12  14
BRANCH  12  19
ATOM     18  S   UNL     1      36.949 -25.431 -13.277  0.00  0.00    -0.088 S 
ATOM     19  C   UNL     1      35.551 -24.443 -13.327  0.00  0.00    +0.046 C 
ATOM     20  C   UNL     1      35.252 -23.910 -12.094  0.00  0.00    +0.006 C 
ATOM     21  C   UNL     1      36.182 -24.317 -11.093  0.00  0.00    +0.007 C 
ATOM     22  C   UNL     1      37.157 -25.147 -11.603  0.00  0.00    +0.035 C 
ENDBRANCH  12  19
BRANCH  12  23
ATOM     23  O   UNL     1      34.906 -25.491 -15.367  0.00  0.00    -0.369 OA
ATOM     24  H   UNL     1      34.312 -25.470 -16.134  0.00  0.00    +0.212 HD
ENDBRANCH  12  23
ENDBRANCH  11  12
ENDBRANCH   9  11
ENDBRANCH   6   9
BRANCH   1  25
ATOM     25  C   UNL     1      36.376 -21.158 -20.780  0.00  0.00    -0.069 C 
BRANCH  25  26
ATOM     26  C   UNL     1      36.783 -19.785 -20.274  0.00  0.00    +0.025 C 
BRANCH  26  27
ATOM     27  C   UNL     1      36.409 -18.695 -21.267  0.00  0.00    +0.203 C 
BRANCH  27  28
ATOM     28  O   UNL     1      35.432 -17.849 -20.675  0.00  0.00    -0.476 OA
BRANCH  28  29
ATOM     29  C   UNL     1      35.046 -16.750 -21.397  0.00  0.00    +0.139 C 
ATOM     30  C   UNL     1      35.170 -16.749 -22.787  0.00  0.00    +0.037 C 
ATOM     31  C   UNL     1      34.531 -15.630 -20.743  0.00  0.00    +0.037 C 
ATOM     32  C   UNL     1      34.777 -15.631 -23.522  0.00  0.00    +0.003 C 
ATOM     33  C   UNL     1      34.139 -14.512 -21.479  0.00  0.00    +0.003 C 
ATOM     34  C   UNL     1      34.262 -14.512 -22.868  0.00  0.00    +0.000 C 
ENDBRANCH  28  29
ENDBRANCH  27  28
ENDBRANCH  26  27
ENDBRANCH  25  26
ENDBRANCH   1  25
TORSDOF 11
ENDMDL
MODEL 7
REMARK VINA RESULT:      -8.3      3.448      9.677
REMARK  Name = 11434515
REMARK  11 active torsions:
REMARK  status: ('A' for Active; 'I' for Inactive)
REMARK    1  A    between atoms: N_1  and  C_25
REMARK    2  A    between atoms: C_6  and  O_9
REMARK    3  A    between atoms: O_9  and  C_11
REMARK    4  A    between atoms: C_11  and  C_12
REMARK    5  A    between atoms: C_12  and  C_14
REMARK    6  A    between atoms: C_12  and  C_19
REMARK    7  A    between atoms: C_12  and  O_23
REMARK    8  A    between atoms: C_25  and  C_26
REMARK    9  A    between atoms: C_26  and  C_27
REMARK   10  A    between atoms: C_27  and  O_28
REMARK   11  A    between atoms: O_28  and  C_29
REMARK                            x       y       z     vdW  Elec       q    Type
REMARK                         _______ _______ _______ _____ _____    ______ ____
ROOT
ATOM      1  N   UNL     1      33.431 -12.741 -23.349  0.00  0.00    +0.392 N 
ATOM      2  C   UNL     1      32.745 -14.607 -21.707  0.00  0.00    +0.034 C 
ATOM      3  C   UNL     1      34.685 -13.298 -22.652  0.00  0.00    -0.028 C 
ATOM      4  C   UNL     1      32.472 -12.173 -22.291  0.00  0.00    -0.073 C 
ATOM      5  C   UNL     1      32.732 -13.870 -24.117  0.00  0.00    -0.073 C 
ATOM      6  C   UNL     1      34.270 -14.423 -21.698  0.00  0.00    +0.149 C 
ATOM      7  C   UNL     1      32.101 -13.279 -21.301  0.00  0.00    -0.019 C 
ATOM      8  C   UNL     1      32.281 -14.946 -23.131  0.00  0.00    -0.019 C 
ENDROOT
BRANCH   6   9
ATOM      9  O   UNL     1      34.914 -15.630 -22.100  0.00  0.00    -0.452 OA
BRANCH   9  11
ATOM     10  O   UNL     1      35.013 -16.365 -19.922  0.00  0.00    -0.247 OA
ATOM     11  C   UNL     1      35.053 -16.585 -21.127  0.00  0.00    +0.350 C 
BRANCH  11  12
ATOM     12  C   UNL     1      35.301 -17.957 -21.755  0.00  0.00    +0.227 C 
BRANCH  12  14
ATOM     13  S   UNL     1      34.518 -19.304 -24.087  0.00  0.00    -0.088 S 
ATOM     14  C   UNL     1      34.993 -17.885 -23.255  0.00  0.00    +0.046 C 
ATOM     15  C   UNL     1      35.045 -16.790 -24.088  0.00  0.00    +0.006 C 
ATOM     16  C   UNL     1      34.688 -17.119 -25.428  0.00  0.00    +0.007 C 
ATOM     17  C   UNL     1      34.377 -18.455 -25.567  0.00  0.00    +0.035 C 
ENDBRANCH  12  14
BRANCH  12  19
ATOM     18  S   UNL     1      35.446 -20.385 -20.360  0.00  0.00    -0.088 S 
ATOM     19  C   UNL     1      34.558 -19.084 -21.031  0.00  0.00    +0.046 C 
ATOM     20  C   UNL     1      33.204 -19.221 -20.822  0.00  0.00    +0.006 C 
ATOM     21  C   UNL     1      32.890 -20.410 -20.102  0.00  0.00    +0.007 C 
ATOM     22  C   UNL     1      34.019 -21.136 -19.788  0.00  0.00    +0.035 C 
ENDBRANCH  12  19
BRANCH  12  23
ATOM     23  O   UNL     1      36.701 -18.214 -21.602  0.00  0.00    -0.369 OA
ATOM     24  H   UNL     1      37.203 -17.628 -22.189  0.00  0.00    +0.212 HD
ENDBRANCH  12  23
ENDBRANCH  11  12
ENDBRANCH   9  11
ENDBRANCH   6   9
BRANCH   1  25
ATOM     25  C   UNL     1      33.833 -11.639 -24.317  0.00  0.00    -0.069 C 
BRANCH  25  26
ATOM     26  C   UNL     1      33.667 -10.292 -23.634  0.00  0.00    +0.025 C 
BRANCH  26  27
ATOM     27  C   UNL     1      34.668  -9.275 -24.160  0.00  0.00    +0.203 C 
BRANCH  27  28
ATOM     28  O   UNL     1      34.743  -8.188 -23.249  0.00  0.00    -0.476 OA
BRANCH  28  29
ATOM     29  C   UNL     1      33.734  -7.262 -23.304  0.00  0.00    +0.139 C 
ATOM     30  C   UNL     1      32.973  -6.991 -22.166  0.00  0.00    +0.037 C 
ATOM     31  C   UNL     1      33.468  -6.591 -24.498  0.00  0.00    +0.037 C 
ATOM     32  C   UNL     1      31.946  -6.050 -22.223  0.00  0.00    +0.003 C 
ATOM     33  C   UNL     1      32.440  -5.649 -24.553  0.00  0.00    +0.003 C 
ATOM     34  C   UNL     1      31.679  -5.379 -23.415  0.00  0.00    +0.000 C 
ENDBRANCH  28  29
ENDBRANCH  27  28
ENDBRANCH  26  27
ENDBRANCH  25  26
ENDBRANCH   1  25
TORSDOF 11
ENDMDL
MODEL 8
REMARK VINA RESULT:      -8.1      8.512     14.400
REMARK  Name = 11434515
REMARK  11 active torsions:
REMARK  status: ('A' for Active; 'I' for Inactive)
REMARK    1  A    between atoms: N_1  and  C_25
REMARK    2  A    between atoms: C_6  and  O_9
REMARK    3  A    between atoms: O_9  and  C_11
REMARK    4  A    between atoms: C_11  and  C_12
REMARK    5  A    between atoms: C_12  and  C_14
REMARK    6  A    between atoms: C_12  and  C_19
REMARK    7  A    between atoms: C_12  and  O_23
REMARK    8  A    between atoms: C_25  and  C_26
REMARK    9  A    between atoms: C_26  and  C_27
REMARK   10  A    between atoms: C_27  and  O_28
REMARK   11  A    between atoms: O_28  and  C_29
REMARK                            x       y       z     vdW  Elec       q    Type
REMARK                         _______ _______ _______ _____ _____    ______ ____
ROOT
ATOM      1  N   UNL     1      32.059 -23.309 -15.783  0.00  0.00    +0.392 N 
ATOM      2  C   UNL     1      32.515 -24.260 -13.430  0.00  0.00    +0.034 C 
ATOM      3  C   UNL     1      33.578 -23.405 -15.554  0.00  0.00    -0.028 C 
ATOM      4  C   UNL     1      31.444 -22.383 -14.721  0.00  0.00    -0.073 C 
ATOM      5  C   UNL     1      31.437 -24.706 -15.663  0.00  0.00    -0.073 C 
ATOM      6  C   UNL     1      33.839 -23.995 -14.164  0.00  0.00    +0.149 C 
ATOM      7  C   UNL     1      31.752 -22.937 -13.329  0.00  0.00    -0.019 C 
ATOM      8  C   UNL     1      31.664 -25.240 -14.250  0.00  0.00    -0.019 C 
ENDROOT
BRANCH   6   9
ATOM      9  O   UNL     1      34.573 -25.209 -14.308  0.00  0.00    -0.452 OA
BRANCH   9  11
ATOM     10  O   UNL     1      36.189 -24.682 -15.858  0.00  0.00    -0.247 OA
ATOM     11  C   UNL     1      35.866 -25.077 -14.744  0.00  0.00    +0.350 C 
BRANCH  11  12
ATOM     12  C   UNL     1      36.846 -25.526 -13.659  0.00  0.00    +0.227 C 
BRANCH  12  14
ATOM     13  S   UNL     1      37.365 -23.235 -12.127  0.00  0.00    -0.088 S 
ATOM     14  C   UNL     1      36.571 -24.731 -12.377  0.00  0.00    +0.046 C 
ATOM     15  C   UNL     1      35.736 -25.055 -11.331  0.00  0.00    +0.006 C 
ATOM     16  C   UNL     1      35.747 -24.061 -10.310  0.00  0.00    +0.007 C 
ATOM     17  C   UNL     1      36.591 -23.015 -10.616  0.00  0.00    +0.035 C 
ENDBRANCH  12  14
BRANCH  12  19
ATOM     18  S   UNL     1      38.756 -24.369 -15.353  0.00  0.00    -0.088 S 
ATOM     19  C   UNL     1      38.305 -25.465 -14.117  0.00  0.00    +0.046 C 
ATOM     20  C   UNL     1      39.378 -26.199 -13.661  0.00  0.00    +0.006 C 
ATOM     21  C   UNL     1      40.586 -25.858 -14.335  0.00  0.00    +0.007 C 
ATOM     22  C   UNL     1      40.390 -24.875 -15.281  0.00  0.00    +0.035 C 
ENDBRANCH  12  19
BRANCH  12  23
ATOM     23  O   UNL     1      36.545 -26.901 -13.400  0.00  0.00    -0.369 OA
ATOM     24  H   UNL     1      36.299 -27.340 -14.229  0.00  0.00    +0.212 HD
ENDBRANCH  12  23
ENDBRANCH  11  12
ENDBRANCH   9  11
ENDBRANCH   6   9
BRANCH   1  25
ATOM     25  C   UNL     1      31.788 -22.746 -17.169  0.00  0.00    -0.069 C 
BRANCH  25  26
ATOM     26  C   UNL     1      33.048 -22.861 -18.009  0.00  0.00    +0.025 C 
BRANCH  26  27
ATOM     27  C   UNL     1      33.140 -21.737 -19.030  0.00  0.00    +0.203 C 
BRANCH  27  28
ATOM     28  O   UNL     1      34.421 -21.775 -19.644  0.00  0.00    -0.476 OA
BRANCH  28  29
ATOM     29  C   UNL     1      34.856 -20.621 -20.241  0.00  0.00    +0.139 C 
ATOM     30  C   UNL     1      33.933 -19.726 -20.784  0.00  0.00    +0.037 C 
ATOM     31  C   UNL     1      36.221 -20.341 -20.308  0.00  0.00    +0.037 C 
ATOM     32  C   UNL     1      34.376 -18.552 -21.393  0.00  0.00    +0.003 C 
ATOM     33  C   UNL     1      36.662 -19.167 -20.918  0.00  0.00    +0.003 C 
ATOM     34  C   UNL     1      35.740 -18.272 -21.460  0.00  0.00    +0.000 C 
ENDBRANCH  28  29
ENDBRANCH  27  28
ENDBRANCH  26  27
ENDBRANCH  25  26
ENDBRANCH   1  25
TORSDOF 11
ENDMDL
MODEL 9
REMARK VINA RESULT:      -7.9      5.145     11.021
REMARK  Name = 11434515
REMARK  11 active torsions:
REMARK  status: ('A' for Active; 'I' for Inactive)
REMARK    1  A    between atoms: N_1  and  C_25
REMARK    2  A    between atoms: C_6  and  O_9
REMARK    3  A    between atoms: O_9  and  C_11
REMARK    4  A    between atoms: C_11  and  C_12
REMARK    5  A    between atoms: C_12  and  C_14
REMARK    6  A    between atoms: C_12  and  C_19
REMARK    7  A    between atoms: C_12  and  O_23
REMARK    8  A    between atoms: C_25  and  C_26
REMARK    9  A    between atoms: C_26  and  C_27
REMARK   10  A    between atoms: C_27  and  O_28
REMARK   11  A    between atoms: O_28  and  C_29
REMARK                            x       y       z     vdW  Elec       q    Type
REMARK                         _______ _______ _______ _____ _____    ______ ____
ROOT
ATOM      1  N   UNL     1      34.202 -17.711 -21.435  0.00  0.00    +0.392 N 
ATOM      2  C   UNL     1      35.350 -19.976 -21.882  0.00  0.00    +0.034 C 
ATOM      3  C   UNL     1      33.370 -18.841 -20.804  0.00  0.00    -0.028 C 
ATOM      4  C   UNL     1      34.312 -17.946 -22.950  0.00  0.00    -0.073 C 
ATOM      5  C   UNL     1      35.606 -17.707 -20.817  0.00  0.00    -0.073 C 
ATOM      6  C   UNL     1      34.072 -20.179 -21.053  0.00  0.00    +0.149 C 
ATOM      7  C   UNL     1      34.960 -19.308 -23.204  0.00  0.00    -0.019 C 
ATOM      8  C   UNL     1      36.300 -19.031 -21.132  0.00  0.00    -0.019 C 
ENDROOT
BRANCH   6   9
ATOM      9  O   UNL     1      34.391 -20.774 -19.797  0.00  0.00    -0.452 OA
BRANCH   9  11
ATOM     10  O   UNL     1      32.183 -21.002 -19.193  0.00  0.00    -0.247 OA
ATOM     11  C   UNL     1      33.349 -21.374 -19.138  0.00  0.00    +0.350 C 
BRANCH  11  12
ATOM     12  C   UNL     1      33.852 -22.550 -18.300  0.00  0.00    +0.227 C 
BRANCH  12  14
ATOM     13  S   UNL     1      33.202 -23.925 -15.944  0.00  0.00    -0.088 S 
ATOM     14  C   UNL     1      32.782 -22.922 -17.266  0.00  0.00    +0.046 C 
ATOM     15  C   UNL     1      31.455 -22.553 -17.236  0.00  0.00    +0.006 C 
ATOM     16  C   UNL     1      30.773 -23.101 -16.111  0.00  0.00    +0.007 C 
ATOM     17  C   UNL     1      31.606 -23.867 -15.325  0.00  0.00    +0.035 C 
ENDBRANCH  12  14
BRANCH  12  19
ATOM     18  S   UNL     1      35.529 -22.740 -16.062  0.00  0.00    -0.088 S 
ATOM     19  C   UNL     1      35.232 -22.295 -17.688  0.00  0.00    +0.046 C 
ATOM     20  C   UNL     1      36.340 -21.730 -18.280  0.00  0.00    +0.006 C 
ATOM     21  C   UNL     1      37.448 -21.660 -17.386  0.00  0.00    +0.007 C 
ATOM     22  C   UNL     1      37.143 -22.176 -16.145  0.00  0.00    +0.035 C 
ENDBRANCH  12  19
BRANCH  12  23
ATOM     23  O   UNL     1      33.992 -23.650 -19.206  0.00  0.00    -0.369 OA
ATOM     24  H   UNL     1      34.922 -23.737 -19.468  0.00  0.00    +0.212 HD
ENDBRANCH  12  23
ENDBRANCH  11  12
ENDBRANCH   9  11
ENDBRANCH   6   9
BRANCH   1  25
ATOM     25  C   UNL     1      33.526 -16.373 -21.175  0.00  0.00    -0.069 C 
BRANCH  25  26
ATOM     26  C   UNL     1      34.477 -15.252 -21.554  0.00  0.00    +0.025 C 
BRANCH  26  27
ATOM     27  C   UNL     1      33.735 -14.083 -22.184  0.00  0.00    +0.203 C 
BRANCH  27  28
ATOM     28  O   UNL     1      33.020 -14.549 -23.320  0.00  0.00    -0.476 OA
BRANCH  28  29
ATOM     29  C   UNL     1      33.215 -13.873 -24.496  0.00  0.00    +0.139 C 
ATOM     30  C   UNL     1      32.983 -14.511 -25.715  0.00  0.00    +0.037 C 
ATOM     31  C   UNL     1      33.647 -12.547 -24.474  0.00  0.00    +0.037 C 
ATOM     32  C   UNL     1      33.183 -13.823 -26.911  0.00  0.00    +0.003 C 
ATOM     33  C   UNL     1      33.847 -11.860 -25.672  0.00  0.00    +0.003 C 
ATOM     34  C   UNL     1      33.615 -12.498 -26.890  0.00  0.00    +0.000 C 
ENDBRANCH  28  29
ENDBRANCH  27  28
ENDBRANCH  26  27
ENDBRANCH  25  26
ENDBRANCH   1  25
TORSDOF 11
ENDMDL
