MODEL 1
REMARK VINA RESULT:     -10.6      0.000      0.000
REMARK  Name = 62300
REMARK  6 active torsions:
REMARK  status: ('A' for Active; 'I' for Inactive)
REMARK    1  A    between atoms: N_1  and  C_20
REMARK    2  A    between atoms: C_2  and  N_9
REMARK    3  A    between atoms: N_9  and  C_12
REMARK    4  A    between atoms: C_10  and  C_18
REMARK    5  A    between atoms: C_20  and  C_21
REMARK    6  A    between atoms: C_21  and  C_22
REMARK                            x       y       z     vdW  Elec       q    Type
REMARK                         _______ _______ _______ _____ _____    ______ ____
ROOT
ATOM      1  N   UNL     1      34.900 -16.066 -21.739  0.00  0.00    +0.387 N 
ATOM      2  C   UNL     1      33.069 -13.958 -22.612  0.00  0.00    +0.076 C 
ATOM      3  C   UNL     1      33.451 -14.153 -21.144  0.00  0.00    -0.003 C 
ATOM      4  C   UNL     1      34.165 -14.514 -23.520  0.00  0.00    -0.003 C 
ATOM      5  C   UNL     1      33.819 -15.608 -20.855  0.00  0.00    -0.076 C 
ATOM      6  C   UNL     1      34.512 -15.958 -23.152  0.00  0.00    -0.076 C 
ATOM      7  H   UNL     1      35.708 -15.463 -21.587  0.00  0.00    -0.080 HD
ENDROOT
BRANCH   2   9
ATOM      8  O   UNL     1      31.152 -12.180 -21.261  0.00  0.00    -0.275 OA
ATOM      9  N   UNL     1      32.818 -12.569 -22.903  0.00  0.00    -0.260 N 
ATOM     10  C   UNL     1      31.862 -11.784 -22.188  0.00  0.00    +0.229 C 
BRANCH   9  12
ATOM     11  F   UNL     1      35.678 -10.165 -26.973  0.00  0.00    -0.204 F 
ATOM     12  C   UNL     1      33.575 -11.933 -23.979  0.00  0.00    +0.054 C 
ATOM     13  C   UNL     1      34.368 -10.874 -23.653  0.00  0.00    +0.017 C 
ATOM     14  C   UNL     1      33.434 -12.443 -25.235  0.00  0.00    +0.017 C 
ATOM     15  C   UNL     1      35.091 -10.267 -24.681  0.00  0.00    +0.031 C 
ATOM     16  C   UNL     1      34.157 -11.836 -26.263  0.00  0.00    +0.031 C 
ATOM     17  C   UNL     1      34.985 -10.749 -25.986  0.00  0.00    +0.140 C 
ENDBRANCH   9  12
BRANCH  10  18
ATOM     18  C   UNL     1      31.711 -10.348 -22.681  0.00  0.00    +0.086 C 
ATOM     19  C   UNL     1      31.864  -9.323 -21.567  0.00  0.00    +0.010 C 
ENDBRANCH  10  18
ENDBRANCH   2   9
BRANCH   1  20
ATOM     20  C   UNL     1      35.276 -17.443 -21.416  0.00  0.00    -0.073 C 
BRANCH  20  21
ATOM     21  C   UNL     1      34.084 -18.388 -21.573  0.00  0.00    +0.004 C 
BRANCH  21  22
ATOM     22  C   UNL     1      34.273 -19.653 -20.775  0.00  0.00    -0.024 C 
ATOM     23  C   UNL     1      35.555 -20.124 -20.538  0.00  0.00    -0.004 C 
ATOM     24  C   UNL     1      33.161 -20.326 -20.292  0.00  0.00    -0.004 C 
ATOM     25  C   UNL     1      35.731 -21.294 -19.799  0.00  0.00    -0.000 C 
ATOM     26  C   UNL     1      33.336 -21.497 -19.554  0.00  0.00    -0.000 C 
ATOM     27  C   UNL     1      34.621 -21.981 -19.307  0.00  0.00    -0.000 C 
ENDBRANCH  21  22
ENDBRANCH  20  21
ENDBRANCH   1  20
TORSDOF 6
ENDMDL
MODEL 2
REMARK VINA RESULT:     -10.5      2.284      3.677
REMARK  Name = 62300
REMARK  6 active torsions:
REMARK  status: ('A' for Active; 'I' for Inactive)
REMARK    1  A    between atoms: N_1  and  C_20
REMARK    2  A    between atoms: C_2  and  N_9
REMARK    3  A    between atoms: N_9  and  C_12
REMARK    4  A    between atoms: C_10  and  C_18
REMARK    5  A    between atoms: C_20  and  C_21
REMARK    6  A    between atoms: C_21  and  C_22
REMARK                            x       y       z     vdW  Elec       q    Type
REMARK                         _______ _______ _______ _____ _____    ______ ____
ROOT
ATOM      1  N   UNL     1      34.969 -17.924 -21.686  0.00  0.00    +0.387 N 
ATOM      2  C   UNL     1      34.658 -15.580 -23.408  0.00  0.00    +0.076 C 
ATOM      3  C   UNL     1      34.782 -16.997 -23.971  0.00  0.00    -0.003 C 
ATOM      4  C   UNL     1      34.107 -15.625 -21.984  0.00  0.00    -0.003 C 
ATOM      5  C   UNL     1      35.572 -17.901 -23.025  0.00  0.00    -0.076 C 
ATOM      6  C   UNL     1      34.919 -16.577 -21.103  0.00  0.00    -0.076 C 
ATOM      7  H   UNL     1      34.012 -18.264 -21.778  0.00  0.00    -0.080 HD
ENDROOT
BRANCH   2   9
ATOM      8  O   UNL     1      33.776 -16.175 -26.152  0.00  0.00    -0.275 OA
ATOM      9  N   UNL     1      33.830 -14.757 -24.253  0.00  0.00    -0.260 N 
ATOM     10  C   UNL     1      33.453 -15.133 -25.578  0.00  0.00    +0.229 C 
BRANCH   9  12
ATOM     11  F   UNL     1      32.031  -9.921 -22.277  0.00  0.00    -0.204 F 
ATOM     12  C   UNL     1      33.354 -13.478 -23.731  0.00  0.00    +0.054 C 
ATOM     13  C   UNL     1      33.972 -12.346 -24.172  0.00  0.00    +0.017 C 
ATOM     14  C   UNL     1      32.325 -13.505 -22.837  0.00  0.00    +0.017 C 
ATOM     15  C   UNL     1      33.517 -11.124 -23.674  0.00  0.00    +0.031 C 
ATOM     16  C   UNL     1      31.871 -12.284 -22.339  0.00  0.00    +0.031 C 
ATOM     17  C   UNL     1      32.466 -11.093 -22.757  0.00  0.00    +0.140 C 
ENDBRANCH   9  12
BRANCH  10  18
ATOM     18  C   UNL     1      32.613 -14.100 -26.325  0.00  0.00    +0.086 C 
ATOM     19  C   UNL     1      33.389 -13.394 -27.426  0.00  0.00    +0.010 C 
ENDBRANCH  10  18
ENDBRANCH   2   9
BRANCH   1  20
ATOM     20  C   UNL     1      35.707 -18.834 -20.808  0.00  0.00    -0.073 C 
BRANCH  20  21
ATOM     21  C   UNL     1      35.365 -20.291 -21.119  0.00  0.00    +0.004 C 
BRANCH  21  22
ATOM     22  C   UNL     1      35.205 -21.103 -19.858  0.00  0.00    -0.024 C 
ATOM     23  C   UNL     1      33.978 -21.681 -19.571  0.00  0.00    -0.004 C 
ATOM     24  C   UNL     1      36.288 -21.258 -19.006  0.00  0.00    -0.004 C 
ATOM     25  C   UNL     1      33.829 -22.431 -18.405  0.00  0.00    -0.000 C 
ATOM     26  C   UNL     1      36.140 -22.008 -17.839  0.00  0.00    -0.000 C 
ATOM     27  C   UNL     1      34.910 -22.595 -17.539  0.00  0.00    -0.000 C 
ENDBRANCH  21  22
ENDBRANCH  20  21
ENDBRANCH   1  20
TORSDOF 6
ENDMDL
MODEL 3
REMARK VINA RESULT:     -10.4      2.948      4.968
REMARK  Name = 62300
REMARK  6 active torsions:
REMARK  status: ('A' for Active; 'I' for Inactive)
REMARK    1  A    between atoms: N_1  and  C_20
REMARK    2  A    between atoms: C_2  and  N_9
REMARK    3  A    between atoms: N_9  and  C_12
REMARK    4  A    between atoms: C_10  and  C_18
REMARK    5  A    between atoms: C_20  and  C_21
REMARK    6  A    between atoms: C_21  and  C_22
REMARK                            x       y       z     vdW  Elec       q    Type
REMARK                         _______ _______ _______ _____ _____    ______ ____
ROOT
ATOM      1  N   UNL     1      32.993 -13.225 -22.276  0.00  0.00    +0.387 N 
ATOM      2  C   UNL     1      32.771 -10.499 -23.314  0.00  0.00    +0.076 C 
ATOM      3  C   UNL     1      32.339 -10.871 -21.895  0.00  0.00    -0.003 C 
ATOM      4  C   UNL     1      33.829 -11.480 -23.817  0.00  0.00    -0.003 C 
ATOM      5  C   UNL     1      31.919 -12.339 -21.810  0.00  0.00    -0.076 C 
ATOM      6  C   UNL     1      33.361 -12.928 -23.667  0.00  0.00    -0.076 C 
ATOM      7  H   UNL     1      33.813 -13.060 -21.692  0.00  0.00    -0.080 HD
ENDROOT
BRANCH   2   9
ATOM      8  O   UNL     1      35.374  -9.589 -24.344  0.00  0.00    -0.275 OA
ATOM      9  N   UNL     1      33.259  -9.144 -23.370  0.00  0.00    -0.260 N 
ATOM     10  C   UNL     1      34.543  -8.799 -23.890  0.00  0.00    +0.229 C 
BRANCH   9  12
ATOM     11  F   UNL     1      30.013  -5.093 -21.478  0.00  0.00    -0.204 F 
ATOM     12  C   UNL     1      32.400  -8.073 -22.870  0.00  0.00    +0.054 C 
ATOM     13  C   UNL     1      31.383  -7.651 -23.673  0.00  0.00    +0.017 C 
ATOM     14  C   UNL     1      32.677  -7.568 -21.634  0.00  0.00    +0.017 C 
ATOM     15  C   UNL     1      30.563  -6.629 -23.195  0.00  0.00    +0.031 C 
ATOM     16  C   UNL     1      31.857  -6.545 -21.156  0.00  0.00    +0.031 C 
ATOM     17  C   UNL     1      30.800  -6.075 -21.936  0.00  0.00    +0.140 C 
ENDBRANCH   9  12
BRANCH  10  18
ATOM     18  C   UNL     1      34.890  -7.315 -23.815  0.00  0.00    +0.086 C 
ATOM     19  C   UNL     1      34.617  -6.579 -25.118  0.00  0.00    +0.010 C 
ENDBRANCH  10  18
ENDBRANCH   2   9
BRANCH   1  20
ATOM     20  C   UNL     1      32.596 -14.627 -22.140  0.00  0.00    -0.073 C 
BRANCH  20  21
ATOM     21  C   UNL     1      33.605 -15.403 -21.293  0.00  0.00    +0.004 C 
BRANCH  21  22
ATOM     22  C   UNL     1      34.161 -16.587 -22.043  0.00  0.00    -0.024 C 
ATOM     23  C   UNL     1      34.588 -16.426 -23.352  0.00  0.00    -0.004 C 
ATOM     24  C   UNL     1      34.235 -17.819 -21.411  0.00  0.00    -0.004 C 
ATOM     25  C   UNL     1      35.102 -17.521 -24.045  0.00  0.00    -0.000 C 
ATOM     26  C   UNL     1      34.749 -18.915 -22.104  0.00  0.00    -0.000 C 
ATOM     27  C   UNL     1      35.183 -18.766 -23.422  0.00  0.00    -0.000 C 
ENDBRANCH  21  22
ENDBRANCH  20  21
ENDBRANCH   1  20
TORSDOF 6
ENDMDL
MODEL 4
REMARK VINA RESULT:     -10.4      4.107      6.214
REMARK  Name = 62300
REMARK  6 active torsions:
REMARK  status: ('A' for Active; 'I' for Inactive)
REMARK    1  A    between atoms: N_1  and  C_20
REMARK    2  A    between atoms: C_2  and  N_9
REMARK    3  A    between atoms: N_9  and  C_12
REMARK    4  A    between atoms: C_10  and  C_18
REMARK    5  A    between atoms: C_20  and  C_21
REMARK    6  A    between atoms: C_21  and  C_22
REMARK                            x       y       z     vdW  Elec       q    Type
REMARK                         _______ _______ _______ _____ _____    ______ ____
ROOT
ATOM      1  N   UNL     1      34.904 -20.895 -19.302  0.00  0.00    +0.387 N 
ATOM      2  C   UNL     1      34.667 -19.330 -21.762  0.00  0.00    +0.076 C 
ATOM      3  C   UNL     1      33.472 -19.599 -20.847  0.00  0.00    -0.003 C 
ATOM      4  C   UNL     1      35.969 -19.406 -20.966  0.00  0.00    -0.003 C 
ATOM      5  C   UNL     1      33.652 -20.903 -20.070  0.00  0.00    -0.076 C 
ATOM      6  C   UNL     1      36.066 -20.716 -20.183  0.00  0.00    -0.076 C 
ATOM      7  H   UNL     1      34.873 -20.104 -18.658  0.00  0.00    -0.080 HD
ENDROOT
BRANCH   2   9
ATOM      8  O   UNL     1      35.380 -18.685 -24.544  0.00  0.00    -0.275 OA
ATOM      9  N   UNL     1      34.540 -18.053 -22.419  0.00  0.00    -0.260 N 
ATOM     10  C   UNL     1      34.915 -17.836 -23.780  0.00  0.00    +0.229 C 
BRANCH   9  12
ATOM     11  F   UNL     1      32.514 -13.796 -19.538  0.00  0.00    -0.204 F 
ATOM     12  C   UNL     1      34.005 -16.927 -21.657  0.00  0.00    +0.054 C 
ATOM     13  C   UNL     1      34.888 -15.994 -21.202  0.00  0.00    +0.017 C 
ATOM     14  C   UNL     1      32.657 -16.888 -21.453  0.00  0.00    +0.017 C 
ATOM     15  C   UNL     1      34.377 -14.919 -20.475  0.00  0.00    +0.031 C 
ATOM     16  C   UNL     1      32.146 -15.812 -20.726  0.00  0.00    +0.031 C 
ATOM     17  C   UNL     1      33.005 -14.828 -20.237  0.00  0.00    +0.140 C 
ENDBRANCH   9  12
BRANCH  10  18
ATOM     18  C   UNL     1      34.747 -16.402 -24.273  0.00  0.00    +0.086 C 
ATOM     19  C   UNL     1      33.819 -16.295 -25.473  0.00  0.00    +0.010 C 
ENDBRANCH  10  18
ENDBRANCH   2   9
BRANCH   1  20
ATOM     20  C   UNL     1      35.036 -22.127 -18.524  0.00  0.00    -0.073 C 
BRANCH  20  21
ATOM     21  C   UNL     1      33.722 -22.907 -18.507  0.00  0.00    +0.004 C 
BRANCH  21  22
ATOM     22  C   UNL     1      33.200 -23.082 -17.103  0.00  0.00    -0.024 C 
ATOM     23  C   UNL     1      34.090 -23.351 -16.074  0.00  0.00    -0.004 C 
ATOM     24  C   UNL     1      31.839 -22.970 -16.864  0.00  0.00    -0.004 C 
ATOM     25  C   UNL     1      33.608 -23.512 -14.775  0.00  0.00    -0.000 C 
ATOM     26  C   UNL     1      31.356 -23.132 -15.565  0.00  0.00    -0.000 C 
ATOM     27  C   UNL     1      32.241 -23.402 -14.520  0.00  0.00    -0.000 C 
ENDBRANCH  21  22
ENDBRANCH  20  21
ENDBRANCH   1  20
TORSDOF 6
ENDMDL
MODEL 5
REMARK VINA RESULT:     -10.4      3.721      9.024
REMARK  Name = 62300
REMARK  6 active torsions:
REMARK  status: ('A' for Active; 'I' for Inactive)
REMARK    1  A    between atoms: N_1  and  C_20
REMARK    2  A    between atoms: C_2  and  N_9
REMARK    3  A    between atoms: N_9  and  C_12
REMARK    4  A    between atoms: C_10  and  C_18
REMARK    5  A    between atoms: C_20  and  C_21
REMARK    6  A    between atoms: C_21  and  C_22
REMARK                            x       y       z     vdW  Elec       q    Type
REMARK                         _______ _______ _______ _____ _____    ______ ____
ROOT
ATOM      1  N   UNL     1      32.593 -13.875 -21.184  0.00  0.00    +0.387 N 
ATOM      2  C   UNL     1      34.291 -16.247 -21.399  0.00  0.00    +0.076 C 
ATOM      3  C   UNL     1      32.826 -16.328 -20.968  0.00  0.00    -0.003 C 
ATOM      4  C   UNL     1      34.523 -14.998 -22.248  0.00  0.00    -0.003 C 
ATOM      5  C   UNL     1      32.372 -15.028 -20.301  0.00  0.00    -0.076 C 
ATOM      6  C   UNL     1      34.011 -13.742 -21.540  0.00  0.00    -0.076 C 
ATOM      7  H   UNL     1      32.066 -14.032 -22.044  0.00  0.00    -0.080 HD
ENDROOT
BRANCH   2   9
ATOM      8  O   UNL     1      34.544 -16.565 -24.314  0.00  0.00    -0.275 OA
ATOM      9  N   UNL     1      34.688 -17.434 -22.113  0.00  0.00    -0.260 N 
ATOM     10  C   UNL     1      34.782 -17.492 -23.537  0.00  0.00    +0.229 C 
BRANCH   9  12
ATOM     11  F   UNL     1      35.894 -21.979 -19.211  0.00  0.00    -0.204 F 
ATOM     12  C   UNL     1      35.007 -18.636 -21.345  0.00  0.00    +0.054 C 
ATOM     13  C   UNL     1      36.315 -18.855 -21.029  0.00  0.00    +0.017 C 
ATOM     14  C   UNL     1      33.975 -19.456 -20.999  0.00  0.00    +0.017 C 
ATOM     15  C   UNL     1      36.620 -20.002 -20.296  0.00  0.00    +0.031 C 
ATOM     16  C   UNL     1      34.280 -20.603 -20.266  0.00  0.00    +0.031 C 
ATOM     17  C   UNL     1      35.602 -20.877 -19.914  0.00  0.00    +0.140 C 
ENDBRANCH   9  12
BRANCH  10  18
ATOM     18  C   UNL     1      35.172 -18.856 -24.101  0.00  0.00    +0.086 C 
ATOM     19  C   UNL     1      34.169 -19.383 -25.116  0.00  0.00    +0.010 C 
ENDBRANCH  10  18
ENDBRANCH   2   9
BRANCH   1  20
ATOM     20  C   UNL     1      32.106 -12.647 -20.554  0.00  0.00    -0.073 C 
BRANCH  20  21
ATOM     21  C   UNL     1      31.374 -11.765 -21.566  0.00  0.00    +0.004 C 
BRANCH  21  22
ATOM     22  C   UNL     1      31.755 -10.314 -21.411  0.00  0.00    -0.024 C 
ATOM     23  C   UNL     1      31.826  -9.760 -20.142  0.00  0.00    -0.004 C 
ATOM     24  C   UNL     1      32.026  -9.558 -22.541  0.00  0.00    -0.004 C 
ATOM     25  C   UNL     1      32.178  -8.419 -19.999  0.00  0.00    -0.000 C 
ATOM     26  C   UNL     1      32.378  -8.215 -22.398  0.00  0.00    -0.000 C 
ATOM     27  C   UNL     1      32.454  -7.646 -21.127  0.00  0.00    -0.000 C 
ENDBRANCH  21  22
ENDBRANCH  20  21
ENDBRANCH   1  20
TORSDOF 6
ENDMDL
MODEL 6
REMARK VINA RESULT:     -10.3      4.083      6.533
REMARK  Name = 62300
REMARK  6 active torsions:
REMARK  status: ('A' for Active; 'I' for Inactive)
REMARK    1  A    between atoms: N_1  and  C_20
REMARK    2  A    between atoms: C_2  and  N_9
REMARK    3  A    between atoms: N_9  and  C_12
REMARK    4  A    between atoms: C_10  and  C_18
REMARK    5  A    between atoms: C_20  and  C_21
REMARK    6  A    between atoms: C_21  and  C_22
REMARK                            x       y       z     vdW  Elec       q    Type
REMARK                         _______ _______ _______ _____ _____    ______ ____
ROOT
ATOM      1  N   UNL     1      34.147 -22.046 -19.727  0.00  0.00    +0.387 N 
ATOM      2  C   UNL     1      34.243 -19.241 -20.550  0.00  0.00    +0.076 C 
ATOM      3  C   UNL     1      35.478 -20.143 -20.578  0.00  0.00    -0.003 C 
ATOM      4  C   UNL     1      32.973 -20.082 -20.665  0.00  0.00    -0.003 C 
ATOM      5  C   UNL     1      35.373 -21.258 -19.537  0.00  0.00    -0.076 C 
ATOM      6  C   UNL     1      32.951 -21.201 -19.622  0.00  0.00    -0.076 C 
ATOM      7  H   UNL     1      34.171 -22.443 -20.666  0.00  0.00    -0.080 HD
ENDROOT
BRANCH   2   9
ATOM      8  O   UNL     1      35.093 -19.651 -23.338  0.00  0.00    -0.275 OA
ATOM      9  N   UNL     1      34.300 -18.251 -21.596  0.00  0.00    -0.260 N 
ATOM     10  C   UNL     1      34.728 -18.547 -22.926  0.00  0.00    +0.229 C 
BRANCH   9  12
ATOM     11  F   UNL     1      32.795 -13.069 -20.409  0.00  0.00    -0.204 F 
ATOM     12  C   UNL     1      33.903 -16.880 -21.282  0.00  0.00    +0.054 C 
ATOM     13  C   UNL     1      34.892 -15.965 -21.084  0.00  0.00    +0.017 C 
ATOM     14  C   UNL     1      32.568 -16.612 -21.209  0.00  0.00    +0.017 C 
ATOM     15  C   UNL     1      34.513 -14.656 -20.785  0.00  0.00    +0.031 C 
ATOM     16  C   UNL     1      32.188 -15.303 -20.910  0.00  0.00    +0.031 C 
ATOM     17  C   UNL     1      33.160 -14.325 -20.697  0.00  0.00    +0.140 C 
ENDBRANCH   9  12
BRANCH  10  18
ATOM     18  C   UNL     1      34.763 -17.350 -23.872  0.00  0.00    +0.086 C 
ATOM     19  C   UNL     1      34.197 -17.670 -25.248  0.00  0.00    +0.010 C 
ENDBRANCH  10  18
ENDBRANCH   2   9
BRANCH   1  20
ATOM     20  C   UNL     1      34.087 -23.140 -18.757  0.00  0.00    -0.073 C 
BRANCH  20  21
ATOM     21  C   UNL     1      32.988 -22.896 -17.723  0.00  0.00    +0.004 C 
BRANCH  21  22
ATOM     22  C   UNL     1      33.435 -23.289 -16.337  0.00  0.00    -0.024 C 
ATOM     23  C   UNL     1      34.790 -23.328 -16.044  0.00  0.00    -0.004 C 
ATOM     24  C   UNL     1      32.485 -23.606 -15.379  0.00  0.00    -0.004 C 
ATOM     25  C   UNL     1      35.204 -23.691 -14.763  0.00  0.00    -0.000 C 
ATOM     26  C   UNL     1      32.898 -23.970 -14.098  0.00  0.00    -0.000 C 
ATOM     27  C   UNL     1      34.258 -24.012 -13.789  0.00  0.00    -0.000 C 
ENDBRANCH  21  22
ENDBRANCH  20  21
ENDBRANCH   1  20
TORSDOF 6
ENDMDL
MODEL 7
REMARK VINA RESULT:     -10.1      7.461     13.281
REMARK  Name = 62300
REMARK  6 active torsions:
REMARK  status: ('A' for Active; 'I' for Inactive)
REMARK    1  A    between atoms: N_1  and  C_20
REMARK    2  A    between atoms: C_2  and  N_9
REMARK    3  A    between atoms: N_9  and  C_12
REMARK    4  A    between atoms: C_10  and  C_18
REMARK    5  A    between atoms: C_20  and  C_21
REMARK    6  A    between atoms: C_21  and  C_22
REMARK                            x       y       z     vdW  Elec       q    Type
REMARK                         _______ _______ _______ _____ _____    ______ ____
ROOT
ATOM      1  N   UNL     1      34.905 -22.843 -17.875  0.00  0.00    +0.387 N 
ATOM      2  C   UNL     1      35.254 -23.185 -14.991  0.00  0.00    +0.076 C 
ATOM      3  C   UNL     1      34.169 -23.924 -15.776  0.00  0.00    -0.003 C 
ATOM      4  C   UNL     1      36.413 -22.814 -15.915  0.00  0.00    -0.003 C 
ATOM      5  C   UNL     1      33.749 -23.135 -17.017  0.00  0.00    -0.076 C 
ATOM      6  C   UNL     1      35.919 -22.064 -17.153  0.00  0.00    -0.076 C 
ATOM      7  H   UNL     1      35.326 -23.731 -18.149  0.00  0.00    -0.080 HD
ENDROOT
BRANCH   2   9
ATOM      8  O   UNL     1      33.890 -23.595 -12.416  0.00  0.00    -0.275 OA
ATOM      9  N   UNL     1      35.717 -23.975 -13.878  0.00  0.00    -0.260 N 
ATOM     10  C   UNL     1      34.981 -24.115 -12.662  0.00  0.00    +0.229 C 
BRANCH   9  12
ATOM     11  F   UNL     1      40.569 -26.580 -14.327  0.00  0.00    -0.204 F 
ATOM     12  C   UNL     1      37.000 -24.664 -13.997  0.00  0.00    +0.054 C 
ATOM     13  C   UNL     1      37.040 -25.800 -14.749  0.00  0.00    +0.017 C 
ATOM     14  C   UNL     1      38.069 -24.123 -13.346  0.00  0.00    +0.017 C 
ATOM     15  C   UNL     1      38.265 -26.458 -14.863  0.00  0.00    +0.031 C 
ATOM     16  C   UNL     1      39.294 -24.781 -13.460  0.00  0.00    +0.031 C 
ATOM     17  C   UNL     1      39.393 -25.948 -14.218  0.00  0.00    +0.140 C 
ENDBRANCH   9  12
BRANCH  10  18
ATOM     18  C   UNL     1      35.666 -24.954 -11.588  0.00  0.00    +0.086 C 
ATOM     19  C   UNL     1      35.742 -24.245 -10.244  0.00  0.00    +0.010 C 
ENDBRANCH  10  18
ENDBRANCH   2   9
BRANCH   1  20
ATOM     20  C   UNL     1      34.480 -22.134 -19.083  0.00  0.00    -0.073 C 
BRANCH  20  21
ATOM     21  C   UNL     1      35.673 -21.491 -19.789  0.00  0.00    +0.004 C 
BRANCH  21  22
ATOM     22  C   UNL     1      35.284 -20.204 -20.473  0.00  0.00    -0.024 C 
ATOM     23  C   UNL     1      33.942 -19.920 -20.675  0.00  0.00    -0.004 C 
ATOM     24  C   UNL     1      36.273 -19.328 -20.889  0.00  0.00    -0.004 C 
ATOM     25  C   UNL     1      33.581 -18.730 -21.306  0.00  0.00    -0.000 C 
ATOM     26  C   UNL     1      35.913 -18.137 -21.522  0.00  0.00    -0.000 C 
ATOM     27  C   UNL     1      34.566 -17.839 -21.730  0.00  0.00    -0.000 C 
ENDBRANCH  21  22
ENDBRANCH  20  21
ENDBRANCH   1  20
TORSDOF 6
ENDMDL
MODEL 8
REMARK VINA RESULT:     -10.1      6.564     12.404
REMARK  Name = 62300
REMARK  6 active torsions:
REMARK  status: ('A' for Active; 'I' for Inactive)
REMARK    1  A    between atoms: N_1  and  C_20
REMARK    2  A    between atoms: C_2  and  N_9
REMARK    3  A    between atoms: N_9  and  C_12
REMARK    4  A    between atoms: C_10  and  C_18
REMARK    5  A    between atoms: C_20  and  C_21
REMARK    6  A    between atoms: C_21  and  C_22
REMARK                            x       y       z     vdW  Elec       q    Type
REMARK                         _______ _______ _______ _____ _____    ______ ____
ROOT
ATOM      1  N   UNL     1      35.181 -21.136 -19.100  0.00  0.00    +0.387 N 
ATOM      2  C   UNL     1      34.951 -23.251 -17.091  0.00  0.00    +0.076 C 
ATOM      3  C   UNL     1      36.024 -22.163 -17.013  0.00  0.00    -0.003 C 
ATOM      4  C   UNL     1      33.749 -22.749 -17.890  0.00  0.00    -0.003 C 
ATOM      5  C   UNL     1      36.376 -21.632 -18.403  0.00  0.00    -0.076 C 
ATOM      6  C   UNL     1      34.176 -22.197 -19.250  0.00  0.00    -0.076 C 
ATOM      7  H   UNL     1      34.773 -20.393 -18.533  0.00  0.00    -0.080 HD
ENDROOT
BRANCH   2   9
ATOM      8  O   UNL     1      32.244 -23.154 -15.938  0.00  0.00    -0.275 OA
ATOM      9  N   UNL     1      34.550 -23.679 -15.774  0.00  0.00    -0.260 N 
ATOM     10  C   UNL     1      33.206 -23.593 -15.302  0.00  0.00    +0.229 C 
BRANCH   9  12
ATOM     11  F   UNL     1      38.397 -25.750 -12.391  0.00  0.00    -0.204 F 
ATOM     12  C   UNL     1      35.568 -24.227 -14.880  0.00  0.00    +0.054 C 
ATOM     13  C   UNL     1      35.943 -25.524 -15.068  0.00  0.00    +0.017 C 
ATOM     14  C   UNL     1      36.071 -23.403 -13.917  0.00  0.00    +0.017 C 
ATOM     15  C   UNL     1      36.914 -26.047 -14.215  0.00  0.00    +0.031 C 
ATOM     16  C   UNL     1      37.043 -23.926 -13.064  0.00  0.00    +0.031 C 
ATOM     17  C   UNL     1      37.465 -25.248 -13.212  0.00  0.00    +0.140 C 
ENDBRANCH   9  12
BRANCH  10  18
ATOM     18  C   UNL     1      32.998 -24.055 -13.862  0.00  0.00    +0.086 C 
ATOM     19  C   UNL     1      31.838 -25.027 -13.717  0.00  0.00    +0.010 C 
ENDBRANCH  10  18
ENDBRANCH   2   9
BRANCH   1  20
ATOM     20  C   UNL     1      35.543 -20.584 -20.406  0.00  0.00    -0.073 C 
BRANCH  20  21
ATOM     21  C   UNL     1      34.301 -20.113 -21.164  0.00  0.00    +0.004 C 
BRANCH  21  22
ATOM     22  C   UNL     1      34.585 -18.872 -21.971  0.00  0.00    -0.024 C 
ATOM     23  C   UNL     1      34.707 -18.969 -23.349  0.00  0.00    -0.004 C 
ATOM     24  C   UNL     1      34.719 -17.654 -21.323  0.00  0.00    -0.004 C 
ATOM     25  C   UNL     1      34.969 -17.821 -24.097  0.00  0.00    -0.000 C 
ATOM     26  C   UNL     1      34.982 -16.505 -22.071  0.00  0.00    -0.000 C 
ATOM     27  C   UNL     1      35.107 -16.589 -23.458  0.00  0.00    -0.000 C 
ENDBRANCH  21  22
ENDBRANCH  20  21
ENDBRANCH   1  20
TORSDOF 6
ENDMDL
MODEL 9
REMARK VINA RESULT:     -10.1      2.755      4.460
REMARK  Name = 62300
REMARK  6 active torsions:
REMARK  status: ('A' for Active; 'I' for Inactive)
REMARK    1  A    between atoms: N_1  and  C_20
REMARK    2  A    between atoms: C_2  and  N_9
REMARK    3  A    between atoms: N_9  and  C_12
REMARK    4  A    between atoms: C_10  and  C_18
REMARK    5  A    between atoms: C_20  and  C_21
REMARK    6  A    between atoms: C_21  and  C_22
REMARK                            x       y       z     vdW  Elec       q    Type
REMARK                         _______ _______ _______ _____ _____    ______ ____
ROOT
ATOM      1  N   UNL     1      33.568 -13.000 -23.317  0.00  0.00    +0.387 N 
ATOM      2  C   UNL     1      32.282 -10.375 -23.192  0.00  0.00    +0.076 C 
ATOM      3  C   UNL     1      31.987 -11.479 -22.175  0.00  0.00    -0.003 C 
ATOM      4  C   UNL     1      33.669 -10.576 -23.801  0.00  0.00    -0.003 C 
ATOM      5  C   UNL     1      32.206 -12.865 -22.782  0.00  0.00    -0.076 C 
ATOM      6  C   UNL     1      33.833 -11.993 -24.353  0.00  0.00    -0.076 C 
ATOM      7  H   UNL     1      34.224 -12.844 -22.552  0.00  0.00    -0.080 HD
ENDROOT
BRANCH   2   9
ATOM      8  O   UNL     1      31.919  -9.765 -20.335  0.00  0.00    -0.275 OA
ATOM      9  N   UNL     1      32.170  -9.071 -22.588  0.00  0.00    -0.260 N 
ATOM     10  C   UNL     1      31.994  -8.874 -21.185  0.00  0.00    +0.229 C 
BRANCH   9  12
ATOM     11  F   UNL     1      32.423  -4.622 -25.855  0.00  0.00    -0.204 F 
ATOM     12  C   UNL     1      32.237  -7.894 -23.453  0.00  0.00    +0.054 C 
ATOM     13  C   UNL     1      33.472  -7.401 -23.754  0.00  0.00    +0.017 C 
ATOM     14  C   UNL     1      31.060  -7.371 -23.898  0.00  0.00    +0.017 C 
ATOM     15  C   UNL     1      33.536  -6.278 -24.579  0.00  0.00    +0.031 C 
ATOM     16  C   UNL     1      31.125  -6.248 -24.723  0.00  0.00    +0.031 C 
ATOM     17  C   UNL     1      32.362  -5.701 -25.064  0.00  0.00    +0.140 C 
ENDBRANCH   9  12
BRANCH  10  18
ATOM     18  C   UNL     1      31.849  -7.418 -20.752  0.00  0.00    +0.086 C 
ATOM     19  C   UNL     1      33.009  -6.939 -19.893  0.00  0.00    +0.010 C 
ENDBRANCH  10  18
ENDBRANCH   2   9
BRANCH   1  20
ATOM     20  C   UNL     1      33.778 -14.347 -23.848  0.00  0.00    -0.073 C 
BRANCH  20  21
ATOM     21  C   UNL     1      34.644 -15.179 -22.901  0.00  0.00    +0.004 C 
BRANCH  21  22
ATOM     22  C   UNL     1      34.710 -16.622 -23.337  0.00  0.00    -0.024 C 
ATOM     23  C   UNL     1      34.452 -16.946 -24.660  0.00  0.00    -0.004 C 
ATOM     24  C   UNL     1      35.027 -17.600 -22.407  0.00  0.00    -0.004 C 
ATOM     25  C   UNL     1      34.514 -18.279 -25.064  0.00  0.00    -0.000 C 
ATOM     26  C   UNL     1      35.088 -18.934 -22.810  0.00  0.00    -0.000 C 
ATOM     27  C   UNL     1      34.832 -19.274 -24.139  0.00  0.00    -0.000 C 
ENDBRANCH  21  22
ENDBRANCH  20  21
ENDBRANCH   1  20
TORSDOF 6
ENDMDL
