MODEL 1
REMARK VINA RESULT:      -9.0      0.000      0.000
REMARK  Name = 3957
REMARK  2 active torsions:
REMARK  status: ('A' for Active; 'I' for Inactive)
REMARK    1  A    between atoms: C_18  and  O_25
REMARK    2  A    between atoms: O_25  and  C_26
REMARK                            x       y       z     vdW  Elec       q    Type
REMARK                         _______ _______ _______ _____ _____    ______ ____
ROOT
ATOM      1 CL   UNL     1      35.775 -11.164 -26.790  0.00  0.00    -0.082 Cl
ATOM      2  O   UNL     1      30.002  -2.964 -22.148  0.00  0.00    -0.226 OA
ATOM      3  N   UNL     1      30.913  -4.931 -22.987  0.00  0.00    -0.245 N 
ATOM      4  N   UNL     1      32.759  -8.768 -19.873  0.00  0.00    -0.244 NA
ATOM      5  C   UNL     1      32.478  -7.231 -22.362  0.00  0.00    -0.039 C 
ATOM      6  C   UNL     1      31.785  -6.470 -21.260  0.00  0.00    +0.044 C 
ATOM      7  C   UNL     1      32.806  -6.407 -23.582  0.00  0.00    +0.044 C 
ATOM      8  C   UNL     1      32.757  -8.539 -22.274  0.00  0.00    +0.009 C 
ATOM      9  C   UNL     1      30.563  -5.733 -21.810  0.00  0.00    +0.101 C 
ATOM     10  C   UNL     1      31.563  -5.668 -24.080  0.00  0.00    +0.101 C 
ATOM     11  C   UNL     1      33.445  -9.227 -23.402  0.00  0.00    -0.003 C 
ATOM     12  C   UNL     1      32.272  -9.218 -21.057  0.00  0.00    +0.077 C 
ATOM     13  C   UNL     1      33.072 -10.505 -23.876  0.00  0.00    -0.021 C 
ATOM     14  C   UNL     1      31.947 -11.369 -23.334  0.00  0.00    +0.031 C 
ATOM     15  C   UNL     1      30.846 -10.714 -22.501  0.00  0.00    +0.033 C 
ATOM     16  C   UNL     1      31.354 -10.262 -21.161  0.00  0.00    -0.004 C 
ATOM     17  C   UNL     1      34.563  -8.591 -23.988  0.00  0.00    +0.001 C 
ATOM     18  C   UNL     1      30.587  -3.574 -23.042  0.00  0.00    +0.405 C 
ATOM     19  C   UNL     1      33.822 -11.085 -24.924  0.00  0.00    +0.007 C 
ATOM     20  C   UNL     1      30.925 -10.867 -19.978  0.00  0.00    -0.001 C 
ATOM     21  C   UNL     1      35.281  -9.181 -25.028  0.00  0.00    +0.011 C 
ATOM     22  C   UNL     1      34.908 -10.430 -25.499  0.00  0.00    +0.057 C 
ATOM     23  C   UNL     1      31.410 -10.425 -18.752  0.00  0.00    +0.020 C 
ATOM     24  C   UNL     1      32.318  -9.382 -18.753  0.00  0.00    +0.099 C 
ENDROOT
BRANCH  18  25
ATOM     25  O   UNL     1      30.989  -2.982 -24.210  0.00  0.00    -0.435 OA
BRANCH  25  26
ATOM     26  C   UNL     1      31.951  -1.927 -24.085  0.00  0.00    +0.210 C 
ATOM     27  C   UNL     1      32.701  -1.787 -25.392  0.00  0.00    +0.051 C 
ENDBRANCH  25  26
ENDBRANCH  18  25
TORSDOF 2
ENDMDL
