MODEL 1
REMARK VINA RESULT:      -9.3      0.000      0.000
REMARK  Name = 22692237
REMARK  8 active torsions:
REMARK  status: ('A' for Active; 'I' for Inactive)
REMARK    1  A    between atoms: C_1  and  N_8
REMARK    2  A    between atoms: C_2  and  O_18
REMARK    3  A    between atoms: C_9  and  C_11
REMARK    4  A    between atoms: C_11  and  C_12
REMARK    5  A    between atoms: C_12  and  C_13
REMARK    6  A    between atoms: C_13  and  N_14
REMARK    7  A    between atoms: O_18  and  C_19
REMARK    8  A    between atoms: C_19  and  C_20
REMARK                            x       y       z     vdW  Elec       q    Type
REMARK                         _______ _______ _______ _____ _____    ______ ____
ROOT
ATOM      1  C   UNL     1      34.487 -14.505 -22.798  0.00  0.00    +0.050 C 
ATOM      2  C   UNL     1      34.971 -16.828 -21.371  0.00  0.00    +0.139 C 
ATOM      3  C   UNL     1      34.274 -14.516 -21.429  0.00  0.00    +0.018 C 
ATOM      4  C   UNL     1      34.937 -15.631 -23.468  0.00  0.00    +0.018 C 
ATOM      5  C   UNL     1      34.518 -15.687 -20.711  0.00  0.00    +0.038 C 
ATOM      6  C   UNL     1      35.181 -16.800 -22.750  0.00  0.00    +0.038 C 
ENDROOT
BRANCH   1   8
ATOM      7  O   UNL     1      32.838 -14.047 -25.265  0.00  0.00    -0.275 OA
ATOM      8  N   UNL     1      34.238 -13.318 -23.527  0.00  0.00    -0.284 N 
ATOM      9  C   UNL     1      33.458 -13.172 -24.671  0.00  0.00    +0.226 C 
ATOM     10  H   UNL     1      34.667 -12.500 -23.185  0.00  0.00    +0.155 HD
BRANCH   9  11
ATOM     11  C   UNL     1      33.457 -11.722 -25.135  0.00  0.00    +0.083 C 
BRANCH  11  12
ATOM     12  C   UNL     1      33.710 -10.738 -23.993  0.00  0.00    -0.014 C 
BRANCH  12  13
ATOM     13  C   UNL     1      34.825  -9.756 -24.348  0.00  0.00    -0.086 C 
BRANCH  13  14
ATOM     14  N   UNL     1      35.663 -10.302 -25.408  0.00  0.00    +0.380 N 
ATOM     15  H   UNL     1      36.584 -10.528 -25.032  0.00  0.00    -0.089 HD
ATOM     16  H   UNL     1      35.761  -9.613 -26.155  0.00  0.00    -0.089 HD
ATOM     17  H   UNL     1      35.232 -11.147 -25.781  0.00  0.00    -0.089 HD
ENDBRANCH  13  14
ENDBRANCH  12  13
ENDBRANCH  11  12
ENDBRANCH   9  11
ENDBRANCH   1   8
BRANCH   2  18
ATOM     18  O   UNL     1      35.212 -17.970 -20.670  0.00  0.00    -0.471 OA
BRANCH  18  19
ATOM     19  C   UNL     1      35.144 -19.201 -21.389  0.00  0.00    +0.232 C 
BRANCH  19  20
ATOM     20  C   UNL     1      34.787 -20.305 -20.438  0.00  0.00    +0.021 C 
ATOM     21  C   UNL     1      35.797 -21.036 -19.822  0.00  0.00    -0.001 C 
ATOM     22  C   UNL     1      33.451 -20.589 -20.182  0.00  0.00    -0.001 C 
ATOM     23  C   UNL     1      35.465 -22.063 -18.938  0.00  0.00    -0.000 C 
ATOM     24  C   UNL     1      33.120 -21.615 -19.298  0.00  0.00    -0.000 C 
ATOM     25  C   UNL     1      34.127 -22.352 -18.676  0.00  0.00    -0.000 C 
ENDBRANCH  19  20
ENDBRANCH  18  19
ENDBRANCH   2  18
TORSDOF 8
ENDMDL
MODEL 2
REMARK VINA RESULT:      -9.3      2.446      3.060
REMARK  Name = 22692237
REMARK  8 active torsions:
REMARK  status: ('A' for Active; 'I' for Inactive)
REMARK    1  A    between atoms: C_1  and  N_8
REMARK    2  A    between atoms: C_2  and  O_18
REMARK    3  A    between atoms: C_9  and  C_11
REMARK    4  A    between atoms: C_11  and  C_12
REMARK    5  A    between atoms: C_12  and  C_13
REMARK    6  A    between atoms: C_13  and  N_14
REMARK    7  A    between atoms: O_18  and  C_19
REMARK    8  A    between atoms: C_19  and  C_20
REMARK                            x       y       z     vdW  Elec       q    Type
REMARK                         _______ _______ _______ _____ _____    ______ ____
ROOT
ATOM      1  C   UNL     1      33.065 -14.422 -21.647  0.00  0.00    +0.050 C 
ATOM      2  C   UNL     1      34.872 -16.507 -21.885  0.00  0.00    +0.139 C 
ATOM      3  C   UNL     1      33.318 -14.959 -22.898  0.00  0.00    +0.018 C 
ATOM      4  C   UNL     1      33.697 -14.904 -20.512  0.00  0.00    +0.018 C 
ATOM      5  C   UNL     1      34.228 -16.010 -23.017  0.00  0.00    +0.038 C 
ATOM      6  C   UNL     1      34.606 -15.954 -20.632  0.00  0.00    +0.038 C 
ENDROOT
BRANCH   1   8
ATOM      7  O   UNL     1      32.851 -11.852 -23.185  0.00  0.00    -0.275 OA
ATOM      8  N   UNL     1      32.143 -13.355 -21.526  0.00  0.00    -0.284 N 
ATOM      9  C   UNL     1      32.098 -12.183 -22.276  0.00  0.00    +0.226 C 
ATOM     10  H   UNL     1      31.453 -13.453 -20.830  0.00  0.00    +0.155 HD
BRANCH   9  11
ATOM     11  C   UNL     1      30.945 -11.301 -21.819  0.00  0.00    +0.083 C 
BRANCH  11  12
ATOM     12  C   UNL     1      31.223 -10.611 -20.485  0.00  0.00    -0.014 C 
BRANCH  12  13
ATOM     13  C   UNL     1      32.012  -9.319 -20.685  0.00  0.00    -0.086 C 
BRANCH  13  14
ATOM     14  N   UNL     1      32.571  -8.866 -19.418  0.00  0.00    +0.380 N 
ATOM     15  H   UNL     1      32.171  -7.960 -19.174  0.00  0.00    -0.089 HD
ATOM     16  H   UNL     1      33.585  -8.777 -19.504  0.00  0.00    -0.089 HD
ATOM     17  H   UNL     1      32.351  -9.543 -18.687  0.00  0.00    -0.089 HD
ENDBRANCH  13  14
ENDBRANCH  12  13
ENDBRANCH  11  12
ENDBRANCH   9  11
ENDBRANCH   1   8
BRANCH   2  18
ATOM     18  O   UNL     1      35.759 -17.533 -22.001  0.00  0.00    -0.471 OA
BRANCH  18  19
ATOM     19  C   UNL     1      35.275 -18.749 -22.570  0.00  0.00    +0.232 C 
BRANCH  19  20
ATOM     20  C   UNL     1      34.783 -19.644 -21.471  0.00  0.00    +0.021 C 
ATOM     21  C   UNL     1      33.420 -19.726 -21.208  0.00  0.00    -0.001 C 
ATOM     22  C   UNL     1      35.695 -20.382 -20.725  0.00  0.00    -0.001 C 
ATOM     23  C   UNL     1      32.963 -20.558 -20.185  0.00  0.00    -0.000 C 
ATOM     24  C   UNL     1      35.237 -21.214 -19.703  0.00  0.00    -0.000 C 
ATOM     25  C   UNL     1      33.872 -21.302 -19.433  0.00  0.00    -0.000 C 
ENDBRANCH  19  20
ENDBRANCH  18  19
ENDBRANCH   2  18
TORSDOF 8
ENDMDL
MODEL 3
REMARK VINA RESULT:      -9.3      3.242      5.671
REMARK  Name = 22692237
REMARK  8 active torsions:
REMARK  status: ('A' for Active; 'I' for Inactive)
REMARK    1  A    between atoms: C_1  and  N_8
REMARK    2  A    between atoms: C_2  and  O_18
REMARK    3  A    between atoms: C_9  and  C_11
REMARK    4  A    between atoms: C_11  and  C_12
REMARK    5  A    between atoms: C_12  and  C_13
REMARK    6  A    between atoms: C_13  and  N_14
REMARK    7  A    between atoms: O_18  and  C_19
REMARK    8  A    between atoms: C_19  and  C_20
REMARK                            x       y       z     vdW  Elec       q    Type
REMARK                         _______ _______ _______ _____ _____    ______ ____
ROOT
ATOM      1  C   UNL     1      34.873 -19.767 -20.889  0.00  0.00    +0.050 C 
ATOM      2  C   UNL     1      34.687 -21.817 -19.036  0.00  0.00    +0.139 C 
ATOM      3  C   UNL     1      33.623 -20.238 -20.522  0.00  0.00    +0.018 C 
ATOM      4  C   UNL     1      36.032 -20.299 -20.348  0.00  0.00    +0.018 C 
ATOM      5  C   UNL     1      33.530 -21.270 -19.589  0.00  0.00    +0.038 C 
ATOM      6  C   UNL     1      35.938 -21.331 -19.415  0.00  0.00    +0.038 C 
ENDROOT
BRANCH   1   8
ATOM      7  O   UNL     1      35.261 -16.815 -20.494  0.00  0.00    -0.275 OA
ATOM      8  N   UNL     1      34.967 -18.720 -21.836  0.00  0.00    -0.284 N 
ATOM      9  C   UNL     1      35.148 -17.363 -21.586  0.00  0.00    +0.226 C 
ATOM     10  H   UNL     1      34.895 -18.982 -22.783  0.00  0.00    +0.155 HD
BRANCH   9  11
ATOM     11  C   UNL     1      35.194 -16.581 -22.891  0.00  0.00    +0.083 C 
BRANCH  11  12
ATOM     12  C   UNL     1      34.974 -17.467 -24.116  0.00  0.00    -0.014 C 
BRANCH  12  13
ATOM     13  C   UNL     1      34.252 -16.705 -25.226  0.00  0.00    -0.086 C 
BRANCH  13  14
ATOM     14  N   UNL     1      33.741 -15.437 -24.720  0.00  0.00    +0.380 N 
ATOM     15  H   UNL     1      33.461 -14.846 -25.503  0.00  0.00    -0.089 HD
ATOM     16  H   UNL     1      34.471 -14.966 -24.183  0.00  0.00    -0.089 HD
ATOM     17  H   UNL     1      32.935 -15.610 -24.119  0.00  0.00    -0.089 HD
ENDBRANCH  13  14
ENDBRANCH  12  13
ENDBRANCH  11  12
ENDBRANCH   9  11
ENDBRANCH   1   8
BRANCH   2  18
ATOM     18  O   UNL     1      34.596 -22.823 -18.124  0.00  0.00    -0.471 OA
BRANCH  18  19
ATOM     19  C   UNL     1      33.348 -23.507 -18.033  0.00  0.00    +0.232 C 
BRANCH  19  20
ATOM     20  C   UNL     1      32.808 -23.361 -16.640  0.00  0.00    +0.021 C 
ATOM     21  C   UNL     1      33.644 -23.584 -15.552  0.00  0.00    -0.001 C 
ATOM     22  C   UNL     1      31.478 -23.005 -16.451  0.00  0.00    -0.001 C 
ATOM     23  C   UNL     1      33.143 -23.449 -14.257  0.00  0.00    -0.000 C 
ATOM     24  C   UNL     1      30.978 -22.869 -15.156  0.00  0.00    -0.000 C 
ATOM     25  C   UNL     1      31.810 -23.090 -14.059  0.00  0.00    -0.000 C 
ENDBRANCH  19  20
ENDBRANCH  18  19
ENDBRANCH   2  18
TORSDOF 8
ENDMDL
MODEL 4
REMARK VINA RESULT:      -9.1      2.801      5.321
REMARK  Name = 22692237
REMARK  8 active torsions:
REMARK  status: ('A' for Active; 'I' for Inactive)
REMARK    1  A    between atoms: C_1  and  N_8
REMARK    2  A    between atoms: C_2  and  O_18
REMARK    3  A    between atoms: C_9  and  C_11
REMARK    4  A    between atoms: C_11  and  C_12
REMARK    5  A    between atoms: C_12  and  C_13
REMARK    6  A    between atoms: C_13  and  N_14
REMARK    7  A    between atoms: O_18  and  C_19
REMARK    8  A    between atoms: C_19  and  C_20
REMARK                            x       y       z     vdW  Elec       q    Type
REMARK                         _______ _______ _______ _____ _____    ______ ____
ROOT
ATOM      1  C   UNL     1      34.540 -19.618 -21.028  0.00  0.00    +0.050 C 
ATOM      2  C   UNL     1      34.387 -21.852 -19.398  0.00  0.00    +0.139 C 
ATOM      3  C   UNL     1      33.297 -20.086 -20.635  0.00  0.00    +0.018 C 
ATOM      4  C   UNL     1      35.709 -20.244 -20.624  0.00  0.00    +0.018 C 
ATOM      5  C   UNL     1      33.221 -21.211 -19.814  0.00  0.00    +0.038 C 
ATOM      6  C   UNL     1      35.631 -21.368 -19.803  0.00  0.00    +0.038 C 
ENDROOT
BRANCH   1   8
ATOM      7  O   UNL     1      35.319 -16.789 -20.388  0.00  0.00    -0.275 OA
ATOM      8  N   UNL     1      34.618 -18.477 -21.862  0.00  0.00    -0.284 N 
ATOM      9  C   UNL     1      34.988 -17.185 -21.501  0.00  0.00    +0.226 C 
ATOM     10  H   UNL     1      34.381 -18.613 -22.809  0.00  0.00    +0.155 HD
BRANCH   9  11
ATOM     11  C   UNL     1      34.937 -16.258 -22.706  0.00  0.00    +0.083 C 
BRANCH  11  12
ATOM     12  C   UNL     1      34.328 -14.896 -22.376  0.00  0.00    -0.014 C 
BRANCH  12  13
ATOM     13  C   UNL     1      33.806 -14.204 -23.634  0.00  0.00    -0.086 C 
BRANCH  13  14
ATOM     14  N   UNL     1      34.194 -12.799 -23.636  0.00  0.00    +0.380 N 
ATOM     15  H   UNL     1      35.021 -12.673 -23.053  0.00  0.00    -0.089 HD
ATOM     16  H   UNL     1      33.428 -12.234 -23.266  0.00  0.00    -0.089 HD
ATOM     17  H   UNL     1      34.402 -12.505 -24.590  0.00  0.00    -0.089 HD
ENDBRANCH  13  14
ENDBRANCH  12  13
ENDBRANCH  11  12
ENDBRANCH   9  11
ENDBRANCH   1   8
BRANCH   2  18
ATOM     18  O   UNL     1      34.313 -22.948 -18.595  0.00  0.00    -0.471 OA
BRANCH  18  19
ATOM     19  C   UNL     1      34.707 -22.785 -17.234  0.00  0.00    +0.232 C 
BRANCH  19  20
ATOM     20  C   UNL     1      33.560 -23.163 -16.343  0.00  0.00    +0.021 C 
ATOM     21  C   UNL     1      32.265 -23.161 -16.849  0.00  0.00    -0.001 C 
ATOM     22  C   UNL     1      33.803 -23.511 -15.019  0.00  0.00    -0.001 C 
ATOM     23  C   UNL     1      31.199 -23.513 -16.020  0.00  0.00    -0.000 C 
ATOM     24  C   UNL     1      32.736 -23.864 -14.191  0.00  0.00    -0.000 C 
ATOM     25  C   UNL     1      31.435 -23.864 -14.692  0.00  0.00    -0.000 C 
ENDBRANCH  19  20
ENDBRANCH  18  19
ENDBRANCH   2  18
TORSDOF 8
ENDMDL
MODEL 5
REMARK VINA RESULT:      -8.8      3.199      5.702
REMARK  Name = 22692237
REMARK  8 active torsions:
REMARK  status: ('A' for Active; 'I' for Inactive)
REMARK    1  A    between atoms: C_1  and  N_8
REMARK    2  A    between atoms: C_2  and  O_18
REMARK    3  A    between atoms: C_9  and  C_11
REMARK    4  A    between atoms: C_11  and  C_12
REMARK    5  A    between atoms: C_12  and  C_13
REMARK    6  A    between atoms: C_13  and  N_14
REMARK    7  A    between atoms: O_18  and  C_19
REMARK    8  A    between atoms: C_19  and  C_20
REMARK                            x       y       z     vdW  Elec       q    Type
REMARK                         _______ _______ _______ _____ _____    ______ ____
ROOT
ATOM      1  C   UNL     1      34.619 -19.753 -20.866  0.00  0.00    +0.050 C 
ATOM      2  C   UNL     1      34.378 -21.989 -19.250  0.00  0.00    +0.139 C 
ATOM      3  C   UNL     1      35.763 -20.405 -20.437  0.00  0.00    +0.018 C 
ATOM      4  C   UNL     1      33.357 -20.194 -20.504  0.00  0.00    +0.018 C 
ATOM      5  C   UNL     1      35.641 -21.531 -19.623  0.00  0.00    +0.038 C 
ATOM      6  C   UNL     1      33.236 -21.320 -19.690  0.00  0.00    +0.038 C 
ENDROOT
BRANCH   1   8
ATOM      7  O   UNL     1      34.893 -19.526 -23.848  0.00  0.00    -0.275 OA
ATOM      8  N   UNL     1      34.743 -18.610 -21.691  0.00  0.00    -0.284 N 
ATOM      9  C   UNL     1      34.867 -18.573 -23.077  0.00  0.00    +0.226 C 
ATOM     10  H   UNL     1      34.743 -17.739 -21.231  0.00  0.00    +0.155 HD
BRANCH   9  11
ATOM     11  C   UNL     1      34.975 -17.135 -23.565  0.00  0.00    +0.083 C 
BRANCH  11  12
ATOM     12  C   UNL     1      34.712 -17.001 -25.064  0.00  0.00    -0.014 C 
BRANCH  12  13
ATOM     13  C   UNL     1      33.791 -15.819 -25.360  0.00  0.00    -0.086 C 
BRANCH  13  14
ATOM     14  N   UNL     1      33.490 -15.093 -24.133  0.00  0.00    +0.380 N 
ATOM     15  H   UNL     1      32.490 -14.896 -24.091  0.00  0.00    -0.089 HD
ATOM     16  H   UNL     1      34.010 -14.215 -24.120  0.00  0.00    -0.089 HD
ATOM     17  H   UNL     1      33.759 -15.658 -23.328  0.00  0.00    -0.089 HD
ENDBRANCH  13  14
ENDBRANCH  12  13
ENDBRANCH  11  12
ENDBRANCH   9  11
ENDBRANCH   1   8
BRANCH   2  18
ATOM     18  O   UNL     1      34.259 -23.089 -18.457  0.00  0.00    -0.471 OA
BRANCH  18  19
ATOM     19  C   UNL     1      33.261 -23.050 -17.437  0.00  0.00    +0.232 C 
BRANCH  19  20
ATOM     20  C   UNL     1      33.909 -23.303 -16.108  0.00  0.00    +0.021 C 
ATOM     21  C   UNL     1      35.263 -23.037 -15.940  0.00  0.00    -0.001 C 
ATOM     22  C   UNL     1      33.149 -23.802 -15.056  0.00  0.00    -0.001 C 
ATOM     23  C   UNL     1      35.865 -23.273 -14.704  0.00  0.00    -0.000 C 
ATOM     24  C   UNL     1      33.752 -24.036 -13.820  0.00  0.00    -0.000 C 
ATOM     25  C   UNL     1      35.109 -23.772 -13.644  0.00  0.00    -0.000 C 
ENDBRANCH  19  20
ENDBRANCH  18  19
ENDBRANCH   2  18
TORSDOF 8
ENDMDL
MODEL 6
REMARK VINA RESULT:      -8.8      1.919      2.557
REMARK  Name = 22692237
REMARK  8 active torsions:
REMARK  status: ('A' for Active; 'I' for Inactive)
REMARK    1  A    between atoms: C_1  and  N_8
REMARK    2  A    between atoms: C_2  and  O_18
REMARK    3  A    between atoms: C_9  and  C_11
REMARK    4  A    between atoms: C_11  and  C_12
REMARK    5  A    between atoms: C_12  and  C_13
REMARK    6  A    between atoms: C_13  and  N_14
REMARK    7  A    between atoms: O_18  and  C_19
REMARK    8  A    between atoms: C_19  and  C_20
REMARK                            x       y       z     vdW  Elec       q    Type
REMARK                         _______ _______ _______ _____ _____    ______ ____
ROOT
ATOM      1  C   UNL     1      34.062 -14.068 -23.337  0.00  0.00    +0.050 C 
ATOM      2  C   UNL     1      34.602 -16.774 -23.097  0.00  0.00    +0.139 C 
ATOM      3  C   UNL     1      33.891 -14.893 -24.436  0.00  0.00    +0.018 C 
ATOM      4  C   UNL     1      34.498 -14.568 -22.120  0.00  0.00    +0.018 C 
ATOM      5  C   UNL     1      34.163 -16.256 -24.315  0.00  0.00    +0.038 C 
ATOM      6  C   UNL     1      34.769 -15.930 -21.999  0.00  0.00    +0.038 C 
ENDROOT
BRANCH   1   8
ATOM      7  O   UNL     1      31.804 -12.427 -22.229  0.00  0.00    -0.275 OA
ATOM      8  N   UNL     1      33.788 -12.686 -23.460  0.00  0.00    -0.284 N 
ATOM      9  C   UNL     1      32.716 -11.981 -22.918  0.00  0.00    +0.226 C 
ATOM     10  H   UNL     1      34.429 -12.160 -23.992  0.00  0.00    +0.155 HD
BRANCH   9  11
ATOM     11  C   UNL     1      32.800 -10.509 -23.294  0.00  0.00    +0.083 C 
BRANCH  11  12
ATOM     12  C   UNL     1      31.611  -9.701 -22.776  0.00  0.00    -0.014 C 
BRANCH  12  13
ATOM     13  C   UNL     1      32.049  -8.698 -21.709  0.00  0.00    -0.086 C 
BRANCH  13  14
ATOM     14  N   UNL     1      33.258  -8.004 -22.133  0.00  0.00    +0.380 N 
ATOM     15  H   UNL     1      33.513  -7.306 -21.435  0.00  0.00    -0.089 HD
ATOM     16  H   UNL     1      33.091  -7.543 -23.029  0.00  0.00    -0.089 HD
ATOM     17  H   UNL     1      34.019  -8.676 -22.235  0.00  0.00    -0.089 HD
ENDBRANCH  13  14
ENDBRANCH  12  13
ENDBRANCH  11  12
ENDBRANCH   9  11
ENDBRANCH   1   8
BRANCH   2  18
ATOM     18  O   UNL     1      34.865 -18.104 -22.978  0.00  0.00    -0.471 OA
BRANCH  18  19
ATOM     19  C   UNL     1      35.699 -18.507 -21.892  0.00  0.00    +0.232 C 
BRANCH  19  20
ATOM     20  C   UNL     1      34.971 -19.526 -21.066  0.00  0.00    +0.021 C 
ATOM     21  C   UNL     1      33.584 -19.483 -20.987  0.00  0.00    -0.001 C 
ATOM     22  C   UNL     1      35.690 -20.502 -20.386  0.00  0.00    -0.001 C 
ATOM     23  C   UNL     1      32.907 -20.431 -20.218  0.00  0.00    -0.000 C 
ATOM     24  C   UNL     1      35.012 -21.449 -19.619  0.00  0.00    -0.000 C 
ATOM     25  C   UNL     1      33.621 -21.414 -19.535  0.00  0.00    -0.000 C 
ENDBRANCH  19  20
ENDBRANCH  18  19
ENDBRANCH   2  18
TORSDOF 8
ENDMDL
MODEL 7
REMARK VINA RESULT:      -8.8      4.820      9.749
REMARK  Name = 22692237
REMARK  8 active torsions:
REMARK  status: ('A' for Active; 'I' for Inactive)
REMARK    1  A    between atoms: C_1  and  N_8
REMARK    2  A    between atoms: C_2  and  O_18
REMARK    3  A    between atoms: C_9  and  C_11
REMARK    4  A    between atoms: C_11  and  C_12
REMARK    5  A    between atoms: C_12  and  C_13
REMARK    6  A    between atoms: C_13  and  N_14
REMARK    7  A    between atoms: O_18  and  C_19
REMARK    8  A    between atoms: C_19  and  C_20
REMARK                            x       y       z     vdW  Elec       q    Type
REMARK                         _______ _______ _______ _____ _____    ______ ____
ROOT
ATOM      1  C   UNL     1      33.483 -21.735 -19.066  0.00  0.00    +0.050 C 
ATOM      2  C   UNL     1      35.086 -20.212 -20.734  0.00  0.00    +0.139 C 
ATOM      3  C   UNL     1      34.833 -22.030 -19.164  0.00  0.00    +0.018 C 
ATOM      4  C   UNL     1      32.918 -20.694 -19.785  0.00  0.00    +0.018 C 
ATOM      5  C   UNL     1      35.640 -21.263 -20.004  0.00  0.00    +0.038 C 
ATOM      6  C   UNL     1      33.725 -19.927 -20.624  0.00  0.00    +0.038 C 
ENDROOT
BRANCH   1   8
ATOM      7  O   UNL     1      34.074 -22.966 -16.392  0.00  0.00    -0.275 OA
ATOM      8  N   UNL     1      32.664 -22.514 -18.215  0.00  0.00    -0.284 N 
ATOM      9  C   UNL     1      33.001 -23.059 -16.979  0.00  0.00    +0.226 C 
ATOM     10  H   UNL     1      31.750 -22.692 -18.534  0.00  0.00    +0.155 HD
BRANCH   9  11
ATOM     11  C   UNL     1      31.825 -23.829 -16.396  0.00  0.00    +0.083 C 
BRANCH  11  12
ATOM     12  C   UNL     1      30.872 -22.937 -15.603  0.00  0.00    -0.014 C 
BRANCH  12  13
ATOM     13  C   UNL     1      29.591 -23.685 -15.237  0.00  0.00    -0.086 C 
BRANCH  13  14
ATOM     14  N   UNL     1      28.425 -22.963 -15.730  0.00  0.00    +0.380 N 
ATOM     15  H   UNL     1      28.125 -22.282 -15.032  0.00  0.00    -0.089 HD
ATOM     16  H   UNL     1      27.667 -23.622 -15.909  0.00  0.00    -0.089 HD
ATOM     17  H   UNL     1      28.665 -22.479 -16.595  0.00  0.00    -0.089 HD
ENDBRANCH  13  14
ENDBRANCH  12  13
ENDBRANCH  11  12
ENDBRANCH   9  11
ENDBRANCH   1   8
BRANCH   2  18
ATOM     18  O   UNL     1      35.874 -19.462 -21.552  0.00  0.00    -0.471 OA
BRANCH  18  19
ATOM     19  C   UNL     1      35.726 -18.045 -21.477  0.00  0.00    +0.232 C 
BRANCH  19  20
ATOM     20  C   UNL     1      35.203 -17.535 -22.788  0.00  0.00    +0.021 C 
ATOM     21  C   UNL     1      34.872 -16.191 -22.921  0.00  0.00    -0.001 C 
ATOM     22  C   UNL     1      35.054 -18.412 -23.856  0.00  0.00    -0.001 C 
ATOM     23  C   UNL     1      34.386 -15.718 -24.140  0.00  0.00    -0.000 C 
ATOM     24  C   UNL     1      34.569 -17.937 -25.075  0.00  0.00    -0.000 C 
ATOM     25  C   UNL     1      34.235 -16.591 -25.217  0.00  0.00    -0.000 C 
ENDBRANCH  19  20
ENDBRANCH  18  19
ENDBRANCH   2  18
TORSDOF 8
ENDMDL
MODEL 8
REMARK VINA RESULT:      -8.7      3.405      9.460
REMARK  Name = 22692237
REMARK  8 active torsions:
REMARK  status: ('A' for Active; 'I' for Inactive)
REMARK    1  A    between atoms: C_1  and  N_8
REMARK    2  A    between atoms: C_2  and  O_18
REMARK    3  A    between atoms: C_9  and  C_11
REMARK    4  A    between atoms: C_11  and  C_12
REMARK    5  A    between atoms: C_12  and  C_13
REMARK    6  A    between atoms: C_13  and  N_14
REMARK    7  A    between atoms: O_18  and  C_19
REMARK    8  A    between atoms: C_19  and  C_20
REMARK                            x       y       z     vdW  Elec       q    Type
REMARK                         _______ _______ _______ _____ _____    ______ ____
ROOT
ATOM      1  C   UNL     1      33.565 -15.325 -22.405  0.00  0.00    +0.050 C 
ATOM      2  C   UNL     1      32.794 -12.683 -22.720  0.00  0.00    +0.139 C 
ATOM      3  C   UNL     1      32.616 -14.789 -21.549  0.00  0.00    +0.018 C 
ATOM      4  C   UNL     1      34.136 -14.568 -23.415  0.00  0.00    +0.018 C 
ATOM      5  C   UNL     1      32.228 -13.458 -21.708  0.00  0.00    +0.038 C 
ATOM      6  C   UNL     1      33.748 -13.238 -23.574  0.00  0.00    +0.038 C 
ENDROOT
BRANCH   1   8
ATOM      7  O   UNL     1      35.259 -16.615 -20.288  0.00  0.00    -0.275 OA
ATOM      8  N   UNL     1      33.959 -16.674 -22.242  0.00  0.00    -0.284 N 
ATOM      9  C   UNL     1      34.751 -17.211 -21.231  0.00  0.00    +0.226 C 
ATOM     10  H   UNL     1      33.636 -17.307 -22.924  0.00  0.00    +0.155 HD
BRANCH   9  11
ATOM     11  C   UNL     1      34.932 -18.708 -21.433  0.00  0.00    +0.083 C 
BRANCH  11  12
ATOM     12  C   UNL     1      33.682 -19.507 -21.069  0.00  0.00    -0.014 C 
BRANCH  12  13
ATOM     13  C   UNL     1      34.015 -20.648 -20.109  0.00  0.00    -0.086 C 
BRANCH  13  14
ATOM     14  N   UNL     1      32.861 -21.522 -19.942  0.00  0.00    +0.380 N 
ATOM     15  H   UNL     1      32.798 -22.159 -20.736  0.00  0.00    -0.089 HD
ATOM     16  H   UNL     1      32.012 -20.958 -19.890  0.00  0.00    -0.089 HD
ATOM     17  H   UNL     1      32.963 -22.060 -19.081  0.00  0.00    -0.089 HD
ENDBRANCH  13  14
ENDBRANCH  12  13
ENDBRANCH  11  12
ENDBRANCH   9  11
ENDBRANCH   1   8
BRANCH   2  18
ATOM     18  O   UNL     1      32.414 -11.386 -22.877  0.00  0.00    -0.471 OA
BRANCH  18  19
ATOM     19  C   UNL     1      31.541 -10.840 -21.889  0.00  0.00    +0.232 C 
BRANCH  19  20
ATOM     20  C   UNL     1      31.802  -9.368 -21.763  0.00  0.00    +0.021 C 
ATOM     21  C   UNL     1      32.232  -8.847 -20.548  0.00  0.00    -0.001 C 
ATOM     22  C   UNL     1      31.610  -8.539 -22.862  0.00  0.00    -0.001 C 
ATOM     23  C   UNL     1      32.474  -7.478 -20.431  0.00  0.00    -0.000 C 
ATOM     24  C   UNL     1      31.853  -7.170 -22.744  0.00  0.00    -0.000 C 
ATOM     25  C   UNL     1      32.285  -6.640 -21.529  0.00  0.00    -0.000 C 
ENDBRANCH  19  20
ENDBRANCH  18  19
ENDBRANCH   2  18
TORSDOF 8
ENDMDL
MODEL 9
REMARK VINA RESULT:      -8.7      2.447      4.707
REMARK  Name = 22692237
REMARK  8 active torsions:
REMARK  status: ('A' for Active; 'I' for Inactive)
REMARK    1  A    between atoms: C_1  and  N_8
REMARK    2  A    between atoms: C_2  and  O_18
REMARK    3  A    between atoms: C_9  and  C_11
REMARK    4  A    between atoms: C_11  and  C_12
REMARK    5  A    between atoms: C_12  and  C_13
REMARK    6  A    between atoms: C_13  and  N_14
REMARK    7  A    between atoms: O_18  and  C_19
REMARK    8  A    between atoms: C_19  and  C_20
REMARK                            x       y       z     vdW  Elec       q    Type
REMARK                         _______ _______ _______ _____ _____    ______ ____
ROOT
ATOM      1  C   UNL     1      34.791 -18.667 -21.254  0.00  0.00    +0.050 C 
ATOM      2  C   UNL     1      34.991 -21.109 -19.963  0.00  0.00    +0.139 C 
ATOM      3  C   UNL     1      33.635 -19.349 -20.912  0.00  0.00    +0.018 C 
ATOM      4  C   UNL     1      36.045 -19.180 -20.965  0.00  0.00    +0.018 C 
ATOM      5  C   UNL     1      33.736 -20.579 -20.261  0.00  0.00    +0.038 C 
ATOM      6  C   UNL     1      36.145 -20.410 -20.315  0.00  0.00    +0.038 C 
ENDROOT
BRANCH   1   8
ATOM      7  O   UNL     1      34.905 -15.872 -20.162  0.00  0.00    -0.275 OA
ATOM      8  N   UNL     1      34.688 -17.420 -21.915  0.00  0.00    -0.284 N 
ATOM      9  C   UNL     1      34.750 -16.151 -21.347  0.00  0.00    +0.226 C 
ATOM     10  H   UNL     1      34.557 -17.454 -22.890  0.00  0.00    +0.155 HD
BRANCH   9  11
ATOM     11  C   UNL     1      34.594 -15.079 -22.416  0.00  0.00    +0.083 C 
BRANCH  11  12
ATOM     12  C   UNL     1      34.074 -15.638 -23.739  0.00  0.00    -0.014 C 
BRANCH  12  13
ATOM     13  C   UNL     1      33.359 -14.560 -24.552  0.00  0.00    -0.086 C 
BRANCH  13  14
ATOM     14  N   UNL     1      33.810 -13.236 -24.143  0.00  0.00    +0.380 N 
ATOM     15  H   UNL     1      34.273 -13.299 -23.237  0.00  0.00    -0.089 HD
ATOM     16  H   UNL     1      33.007 -12.610 -24.072  0.00  0.00    -0.089 HD
ATOM     17  H   UNL     1      34.464 -12.871 -24.835  0.00  0.00    -0.089 HD
ENDBRANCH  13  14
ENDBRANCH  12  13
ENDBRANCH  11  12
ENDBRANCH   9  11
ENDBRANCH   1   8
BRANCH   2  18
ATOM     18  O   UNL     1      35.090 -22.308 -19.327  0.00  0.00    -0.471 OA
BRANCH  18  19
ATOM     19  C   UNL     1      34.369 -22.457 -18.104  0.00  0.00    +0.232 C 
BRANCH  19  20
ATOM     20  C   UNL     1      35.343 -22.669 -16.983  0.00  0.00    +0.021 C 
ATOM     21  C   UNL     1      34.951 -23.384 -15.857  0.00  0.00    -0.001 C 
ATOM     22  C   UNL     1      36.628 -22.148 -17.080  0.00  0.00    -0.001 C 
ATOM     23  C   UNL     1      35.857 -23.581 -14.814  0.00  0.00    -0.000 C 
ATOM     24  C   UNL     1      37.534 -22.347 -16.037  0.00  0.00    -0.000 C 
ATOM     25  C   UNL     1      37.148 -23.063 -14.905  0.00  0.00    -0.000 C 
ENDBRANCH  19  20
ENDBRANCH  18  19
ENDBRANCH   2  18
TORSDOF 8
ENDMDL
