MODEL 1
REMARK VINA RESULT:      -9.6      0.000      0.000
REMARK  Name = 4369384
REMARK  6 active torsions:
REMARK  status: ('A' for Active; 'I' for Inactive)
REMARK    1  A    between atoms: N_1  and  S_3
REMARK    2  A    between atoms: N_1  and  C_14
REMARK    3  A    between atoms: S_3  and  C_7
REMARK    4  A    between atoms: C_14  and  C_16
REMARK    5  A    between atoms: C_14  and  C_23
REMARK    6  A    between atoms: N_22  and  O_25
REMARK                            x       y       z     vdW  Elec       q    Type
REMARK                         _______ _______ _______ _____ _____    ______ ____
ROOT
ATOM      1  N   UNL     1      34.970 -22.923 -14.584  0.00  0.00    -0.172 NA
ATOM      2  H   UNL     1      34.253 -22.419 -15.107  0.00  0.00    +0.149 HD
ENDROOT
BRANCH   1   3
ATOM      3  S   UNL     1      36.288 -23.137 -15.638  0.00  0.00    +0.061 S 
ATOM      4  O   UNL     1      36.547 -24.554 -15.801  0.00  0.00    -0.153 OA
ATOM      5  O   UNL     1      37.357 -22.239 -15.245  0.00  0.00    -0.153 OA
BRANCH   3   7
ATOM      6  F   UNL     1      34.110 -21.102 -20.702  0.00  0.00    -0.205 F 
ATOM      7  C   UNL     1      35.635 -22.524 -17.162  0.00  0.00    +0.122 C 
ATOM      8  C   UNL     1      36.438 -21.741 -17.975  0.00  0.00    +0.018 C 
ATOM      9  C   UNL     1      34.334 -22.838 -17.516  0.00  0.00    +0.022 C 
ATOM     10  C   UNL     1      35.922 -21.257 -19.177  0.00  0.00    +0.007 C 
ATOM     11  C   UNL     1      33.819 -22.354 -18.718  0.00  0.00    +0.031 C 
ATOM     12  C   UNL     1      34.613 -21.563 -19.548  0.00  0.00    +0.136 C 
ATOM     13  C   UNL     1      36.773 -20.411 -20.063  0.00  0.00    +0.033 C 
ENDBRANCH   3   7
ENDBRANCH   1   3
BRANCH   1  14
ATOM     14  C   UNL     1      34.308 -24.095 -13.980  0.00  0.00    +0.153 C 
BRANCH  14  16
ATOM     15  O   UNL     1      30.098 -23.971 -14.664  0.00  0.00    -0.354 OA
ATOM     16  C   UNL     1      32.830 -23.785 -13.758  0.00  0.00    +0.030 C 
ATOM     17  C   UNL     1      32.006 -25.072 -13.641  0.00  0.00    +0.034 C 
ATOM     18  C   UNL     1      32.273 -22.912 -14.888  0.00  0.00    +0.034 C 
ATOM     19  C   UNL     1      30.519 -24.752 -13.547  0.00  0.00    +0.142 C 
ATOM     20  C   UNL     1      30.771 -22.713 -14.725  0.00  0.00    +0.142 C 
ENDBRANCH  14  16
BRANCH  14  23
ATOM     21  O   UNL     1      34.731 -23.830 -11.617  0.00  0.00    -0.272 OA
ATOM     22  N   UNL     1      35.956 -25.382 -12.806  0.00  0.00    -0.196 N 
ATOM     23  C   UNL     1      35.000 -24.405 -12.670  0.00  0.00    +0.260 C 
ATOM     24  H   UNL     1      36.140 -25.817 -13.671  0.00  0.00    +0.182 HD
BRANCH  22  25
ATOM     25  O   UNL     1      36.656 -25.723 -11.640  0.00  0.00    -0.295 OA
ATOM     26  H   UNL     1      37.447 -25.166 -11.563  0.00  0.00    +0.241 HD
ENDBRANCH  22  25
ENDBRANCH  14  23
ENDBRANCH   1  14
TORSDOF 6
ENDMDL
MODEL 2
REMARK VINA RESULT:      -9.1      8.034     10.783
REMARK  Name = 4369384
REMARK  6 active torsions:
REMARK  status: ('A' for Active; 'I' for Inactive)
REMARK    1  A    between atoms: N_1  and  S_3
REMARK    2  A    between atoms: N_1  and  C_14
REMARK    3  A    between atoms: S_3  and  C_7
REMARK    4  A    between atoms: C_14  and  C_16
REMARK    5  A    between atoms: C_14  and  C_23
REMARK    6  A    between atoms: N_22  and  O_25
REMARK                            x       y       z     vdW  Elec       q    Type
REMARK                         _______ _______ _______ _____ _____    ______ ____
ROOT
ATOM      1  N   UNL     1      34.820 -16.756 -22.183  0.00  0.00    -0.172 NA
ATOM      2  H   UNL     1      35.755 -16.930 -21.812  0.00  0.00    +0.149 HD
ENDROOT
BRANCH   1   3
ATOM      3  S   UNL     1      33.965 -15.908 -20.982  0.00  0.00    +0.061 S 
ATOM      4  O   UNL     1      34.870 -15.561 -19.903  0.00  0.00    -0.153 OA
ATOM      5  O   UNL     1      32.726 -16.608 -20.699  0.00  0.00    -0.153 OA
BRANCH   3   7
ATOM      6  F   UNL     1      32.531 -10.960 -23.810  0.00  0.00    -0.205 F 
ATOM      7  C   UNL     1      33.532 -14.418 -21.831  0.00  0.00    +0.122 C 
ATOM      8  C   UNL     1      32.533 -13.612 -21.313  0.00  0.00    +0.018 C 
ATOM      9  C   UNL     1      34.200 -14.086 -22.996  0.00  0.00    +0.022 C 
ATOM     10  C   UNL     1      32.192 -12.437 -21.983  0.00  0.00    +0.007 C 
ATOM     11  C   UNL     1      33.857 -12.912 -23.666  0.00  0.00    +0.031 C 
ATOM     12  C   UNL     1      32.853 -12.087 -23.160  0.00  0.00    +0.136 C 
ATOM     13  C   UNL     1      31.116 -11.558 -21.439  0.00  0.00    +0.033 C 
ENDBRANCH   3   7
ENDBRANCH   1   3
BRANCH   1  14
ATOM     14  C   UNL     1      34.312 -18.050 -22.677  0.00  0.00    +0.153 C 
BRANCH  14  16
ATOM     15  O   UNL     1      36.094 -20.299 -19.519  0.00  0.00    -0.354 OA
ATOM     16  C   UNL     1      35.037 -19.187 -21.961  0.00  0.00    +0.030 C 
ATOM     17  C   UNL     1      34.145 -19.823 -20.888  0.00  0.00    +0.034 C 
ATOM     18  C   UNL     1      36.344 -18.696 -21.327  0.00  0.00    +0.034 C 
ATOM     19  C   UNL     1      34.920 -20.868 -20.096  0.00  0.00    +0.142 C 
ATOM     20  C   UNL     1      36.995 -19.805 -20.510  0.00  0.00    +0.142 C 
ENDBRANCH  14  16
BRANCH  14  23
ATOM     21  O   UNL     1      34.566 -19.164 -24.805  0.00  0.00    -0.272 OA
ATOM     22  N   UNL     1      34.754 -16.866 -24.715  0.00  0.00    -0.196 N 
ATOM     23  C   UNL     1      34.550 -18.111 -24.170  0.00  0.00    +0.260 C 
ATOM     24  H   UNL     1      34.733 -16.047 -24.168  0.00  0.00    +0.182 HD
BRANCH  22  25
ATOM     25  O   UNL     1      34.995 -16.832 -26.095  0.00  0.00    -0.295 OA
ATOM     26  H   UNL     1      35.743 -17.413 -26.307  0.00  0.00    +0.241 HD
ENDBRANCH  22  25
ENDBRANCH  14  23
ENDBRANCH   1  14
TORSDOF 6
ENDMDL
MODEL 3
REMARK VINA RESULT:      -9.1      2.345      3.071
REMARK  Name = 4369384
REMARK  6 active torsions:
REMARK  status: ('A' for Active; 'I' for Inactive)
REMARK    1  A    between atoms: N_1  and  S_3
REMARK    2  A    between atoms: N_1  and  C_14
REMARK    3  A    between atoms: S_3  and  C_7
REMARK    4  A    between atoms: C_14  and  C_16
REMARK    5  A    between atoms: C_14  and  C_23
REMARK    6  A    between atoms: N_22  and  O_25
REMARK                            x       y       z     vdW  Elec       q    Type
REMARK                         _______ _______ _______ _____ _____    ______ ____
ROOT
ATOM      1  N   UNL     1      34.494 -22.820 -17.149  0.00  0.00    -0.172 NA
ATOM      2  H   UNL     1      34.385 -21.907 -16.704  0.00  0.00    +0.149 HD
ENDROOT
BRANCH   1   3
ATOM      3  S   UNL     1      33.766 -22.708 -18.683  0.00  0.00    +0.061 S 
ATOM      4  O   UNL     1      32.437 -22.145 -18.543  0.00  0.00    -0.153 OA
ATOM      5  O   UNL     1      33.959 -23.961 -19.390  0.00  0.00    -0.153 OA
BRANCH   3   7
ATOM      6  F   UNL     1      37.166 -18.714 -21.333  0.00  0.00    -0.205 F 
ATOM      7  C   UNL     1      34.787 -21.505 -19.481  0.00  0.00    +0.122 C 
ATOM      8  C   UNL     1      34.200 -20.564 -20.309  0.00  0.00    +0.018 C 
ATOM      9  C   UNL     1      36.153 -21.526 -19.262  0.00  0.00    +0.022 C 
ATOM     10  C   UNL     1      35.005 -19.615 -20.939  0.00  0.00    +0.007 C 
ATOM     11  C   UNL     1      36.958 -20.578 -19.893  0.00  0.00    +0.031 C 
ATOM     12  C   UNL     1      36.384 -19.622 -20.732  0.00  0.00    +0.136 C 
ATOM     13  C   UNL     1      34.388 -18.595 -21.836  0.00  0.00    +0.033 C 
ENDBRANCH   3   7
ENDBRANCH   1   3
BRANCH   1  14
ATOM     14  C   UNL     1      34.023 -23.825 -16.178  0.00  0.00    +0.153 C 
BRANCH  14  16
ATOM     15  O   UNL     1      30.429 -23.709 -13.881  0.00  0.00    -0.354 OA
ATOM     16  C   UNL     1      32.844 -23.258 -15.392  0.00  0.00    +0.030 C 
ATOM     17  C   UNL     1      32.856 -23.752 -13.941  0.00  0.00    +0.034 C 
ATOM     18  C   UNL     1      31.510 -23.625 -16.055  0.00  0.00    +0.034 C 
ATOM     19  C   UNL     1      31.609 -23.283 -13.203  0.00  0.00    +0.142 C 
ATOM     20  C   UNL     1      30.338 -23.163 -15.197  0.00  0.00    +0.142 C 
ENDBRANCH  14  16
BRANCH  14  23
ATOM     21  O   UNL     1      35.933 -23.323 -14.789  0.00  0.00    -0.272 OA
ATOM     22  N   UNL     1      35.267 -25.519 -15.024  0.00  0.00    -0.196 N 
ATOM     23  C   UNL     1      35.173 -24.168 -15.257  0.00  0.00    +0.260 C 
ATOM     24  H   UNL     1      34.635 -26.163 -15.420  0.00  0.00    +0.182 HD
BRANCH  22  25
ATOM     25  O   UNL     1      36.316 -25.926 -14.189  0.00  0.00    -0.295 OA
ATOM     26  H   UNL     1      36.854 -25.157 -13.946  0.00  0.00    +0.241 HD
ENDBRANCH  22  25
ENDBRANCH  14  23
ENDBRANCH   1  14
TORSDOF 6
ENDMDL
MODEL 4
REMARK VINA RESULT:      -8.8      7.824     10.788
REMARK  Name = 4369384
REMARK  6 active torsions:
REMARK  status: ('A' for Active; 'I' for Inactive)
REMARK    1  A    between atoms: N_1  and  S_3
REMARK    2  A    between atoms: N_1  and  C_14
REMARK    3  A    between atoms: S_3  and  C_7
REMARK    4  A    between atoms: C_14  and  C_16
REMARK    5  A    between atoms: C_14  and  C_23
REMARK    6  A    between atoms: N_22  and  O_25
REMARK                            x       y       z     vdW  Elec       q    Type
REMARK                         _______ _______ _______ _____ _____    ______ ____
ROOT
ATOM      1  N   UNL     1      34.039 -17.507 -23.064  0.00  0.00    -0.172 NA
ATOM      2  H   UNL     1      33.611 -17.386 -22.146  0.00  0.00    +0.149 HD
ENDROOT
BRANCH   1   3
ATOM      3  S   UNL     1      35.278 -18.659 -22.881  0.00  0.00    +0.061 S 
ATOM      4  O   UNL     1      36.486 -17.996 -22.431  0.00  0.00    -0.153 OA
ATOM      5  O   UNL     1      35.306 -19.514 -24.053  0.00  0.00    -0.153 OA
BRANCH   3   7
ATOM      6  F   UNL     1      33.231 -21.917 -18.439  0.00  0.00    -0.205 F 
ATOM      7  C   UNL     1      34.665 -19.639 -21.544  0.00  0.00    +0.122 C 
ATOM      8  C   UNL     1      35.563 -20.304 -20.726  0.00  0.00    +0.018 C 
ATOM      9  C   UNL     1      33.299 -19.725 -21.339  0.00  0.00    +0.022 C 
ATOM     10  C   UNL     1      35.079 -21.077 -19.671  0.00  0.00    +0.007 C 
ATOM     11  C   UNL     1      32.815 -20.499 -20.284  0.00  0.00    +0.031 C 
ATOM     12  C   UNL     1      33.705 -21.176 -19.451  0.00  0.00    +0.136 C 
ATOM     13  C   UNL     1      36.033 -21.801 -18.781  0.00  0.00    +0.033 C 
ENDBRANCH   3   7
ENDBRANCH   1   3
BRANCH   1  14
ATOM     14  C   UNL     1      34.353 -16.157 -23.568  0.00  0.00    +0.153 C 
BRANCH  14  16
ATOM     15  O   UNL     1      32.763 -13.064 -21.096  0.00  0.00    -0.354 OA
ATOM     16  C   UNL     1      33.356 -15.156 -22.991  0.00  0.00    +0.030 C 
ATOM     17  C   UNL     1      33.853 -13.716 -23.166  0.00  0.00    +0.034 C 
ATOM     18  C   UNL     1      33.087 -15.436 -21.508  0.00  0.00    +0.034 C 
ATOM     19  C   UNL     1      32.912 -12.736 -22.475  0.00  0.00    +0.142 C 
ATOM     20  C   UNL     1      32.190 -14.359 -20.910  0.00  0.00    +0.142 C 
ENDBRANCH  14  16
BRANCH  14  23
ATOM     21  O   UNL     1      35.060 -16.829 -25.777  0.00  0.00    -0.272 OA
ATOM     22  N   UNL     1      33.253 -15.410 -25.563  0.00  0.00    -0.196 N 
ATOM     23  C   UNL     1      34.279 -16.187 -25.079  0.00  0.00    +0.260 C 
ATOM     24  H   UNL     1      32.649 -14.911 -24.967  0.00  0.00    +0.182 HD
BRANCH  22  25
ATOM     25  O   UNL     1      33.119 -15.371 -26.958  0.00  0.00    -0.295 OA
ATOM     26  H   UNL     1      32.342 -15.888 -27.223  0.00  0.00    +0.241 HD
ENDBRANCH  22  25
ENDBRANCH  14  23
ENDBRANCH   1  14
TORSDOF 6
ENDMDL
MODEL 5
REMARK VINA RESULT:      -8.7      3.622      5.647
REMARK  Name = 4369384
REMARK  6 active torsions:
REMARK  status: ('A' for Active; 'I' for Inactive)
REMARK    1  A    between atoms: N_1  and  S_3
REMARK    2  A    between atoms: N_1  and  C_14
REMARK    3  A    between atoms: S_3  and  C_7
REMARK    4  A    between atoms: C_14  and  C_16
REMARK    5  A    between atoms: C_14  and  C_23
REMARK    6  A    between atoms: N_22  and  O_25
REMARK                            x       y       z     vdW  Elec       q    Type
REMARK                         _______ _______ _______ _____ _____    ______ ____
ROOT
ATOM      1  N   UNL     1      35.283 -24.229 -13.481  0.00  0.00    -0.172 NA
ATOM      2  H   UNL     1      35.386 -25.243 -13.528  0.00  0.00    +0.149 HD
ENDROOT
BRANCH   1   3
ATOM      3  S   UNL     1      34.708 -23.723 -14.999  0.00  0.00    +0.061 S 
ATOM      4  O   UNL     1      35.192 -24.629 -16.022  0.00  0.00    -0.153 OA
ATOM      5  O   UNL     1      34.916 -22.293 -15.132  0.00  0.00    -0.153 OA
BRANCH   3   7
ATOM      6  F   UNL     1      28.920 -24.564 -14.425  0.00  0.00    -0.205 F 
ATOM      7  C   UNL     1      32.966 -23.974 -14.829  0.00  0.00    +0.122 C 
ATOM      8  C   UNL     1      32.102 -23.331 -15.699  0.00  0.00    +0.018 C 
ATOM      9  C   UNL     1      32.499 -24.810 -13.830  0.00  0.00    +0.022 C 
ATOM     10  C   UNL     1      30.728 -23.530 -15.563  0.00  0.00    +0.007 C 
ATOM     11  C   UNL     1      31.125 -25.008 -13.695  0.00  0.00    +0.031 C 
ATOM     12  C   UNL     1      30.239 -24.368 -14.561  0.00  0.00    +0.136 C 
ATOM     13  C   UNL     1      29.784 -22.843 -16.492  0.00  0.00    +0.033 C 
ENDBRANCH   3   7
ENDBRANCH   1   3
BRANCH   1  14
ATOM     14  C   UNL     1      36.554 -23.696 -12.956  0.00  0.00    +0.153 C 
BRANCH  14  16
ATOM     15  O   UNL     1      38.910 -26.330 -15.348  0.00  0.00    -0.354 OA
ATOM     16  C   UNL     1      37.699 -24.619 -13.367  0.00  0.00    +0.030 C 
ATOM     17  C   UNL     1      38.439 -24.071 -14.593  0.00  0.00    +0.034 C 
ATOM     18  C   UNL     1      37.189 -26.035 -13.659  0.00  0.00    +0.034 C 
ATOM     19  C   UNL     1      39.495 -25.060 -15.070  0.00  0.00    +0.142 C 
ATOM     20  C   UNL     1      38.315 -26.914 -14.189  0.00  0.00    +0.142 C 
ENDBRANCH  14  16
BRANCH  14  23
ATOM     21  O   UNL     1      37.131 -22.848 -10.770  0.00  0.00    -0.272 OA
ATOM     22  N   UNL     1      35.505 -24.476 -10.946  0.00  0.00    -0.196 N 
ATOM     23  C   UNL     1      36.444 -23.608 -11.450  0.00  0.00    +0.260 C 
ATOM     24  H   UNL     1      34.975 -25.068 -11.529  0.00  0.00    +0.182 HD
BRANCH  22  25
ATOM     25  O   UNL     1      35.347 -24.468  -9.554  0.00  0.00    -0.295 OA
ATOM     26  H   UNL     1      35.049 -23.590  -9.267  0.00  0.00    +0.241 HD
ENDBRANCH  22  25
ENDBRANCH  14  23
ENDBRANCH   1  14
TORSDOF 6
ENDMDL
MODEL 6
REMARK VINA RESULT:      -8.7      2.484      4.351
REMARK  Name = 4369384
REMARK  6 active torsions:
REMARK  status: ('A' for Active; 'I' for Inactive)
REMARK    1  A    between atoms: N_1  and  S_3
REMARK    2  A    between atoms: N_1  and  C_14
REMARK    3  A    between atoms: S_3  and  C_7
REMARK    4  A    between atoms: C_14  and  C_16
REMARK    5  A    between atoms: C_14  and  C_23
REMARK    6  A    between atoms: N_22  and  O_25
REMARK                            x       y       z     vdW  Elec       q    Type
REMARK                         _______ _______ _______ _____ _____    ______ ____
ROOT
ATOM      1  N   UNL     1      34.706 -23.600 -16.829  0.00  0.00    -0.172 NA
ATOM      2  H   UNL     1      35.649 -23.406 -17.167  0.00  0.00    +0.149 HD
ENDROOT
BRANCH   1   3
ATOM      3  S   UNL     1      33.641 -23.219 -18.099  0.00  0.00    +0.061 S 
ATOM      4  O   UNL     1      32.449 -22.597 -17.555  0.00  0.00    -0.153 OA
ATOM      5  O   UNL     1      33.528 -24.365 -18.982  0.00  0.00    -0.153 OA
BRANCH   3   7
ATOM      6  F   UNL     1      36.672 -19.110 -21.008  0.00  0.00    -0.205 F 
ATOM      7  C   UNL     1      34.550 -21.982 -18.975  0.00  0.00    +0.122 C 
ATOM      8  C   UNL     1      33.878 -21.132 -19.837  0.00  0.00    +0.018 C 
ATOM      9  C   UNL     1      35.917 -21.885 -18.783  0.00  0.00    +0.022 C 
ATOM     10  C   UNL     1      34.596 -20.157 -20.529  0.00  0.00    +0.007 C 
ATOM     11  C   UNL     1      36.635 -20.909 -19.475  0.00  0.00    +0.031 C 
ATOM     12  C   UNL     1      35.974 -20.045 -20.348  0.00  0.00    +0.136 C 
ATOM     13  C   UNL     1      33.886 -19.235 -21.463  0.00  0.00    +0.033 C 
ENDBRANCH   3   7
ENDBRANCH   1   3
BRANCH   1  14
ATOM     14  C   UNL     1      34.574 -22.923 -15.525  0.00  0.00    +0.153 C 
BRANCH  14  16
ATOM     15  O   UNL     1      37.745 -24.579 -13.199  0.00  0.00    -0.354 OA
ATOM     16  C   UNL     1      35.897 -23.017 -14.769  0.00  0.00    +0.030 C 
ATOM     17  C   UNL     1      36.813 -24.081 -15.386  0.00  0.00    +0.034 C 
ATOM     18  C   UNL     1      35.665 -23.329 -13.285  0.00  0.00    +0.034 C 
ATOM     19  C   UNL     1      38.074 -24.255 -14.549  0.00  0.00    +0.142 C 
ATOM     20  C   UNL     1      36.990 -23.546 -12.566  0.00  0.00    +0.142 C 
ENDBRANCH  14  16
BRANCH  14  23
ATOM     21  O   UNL     1      33.434 -24.803 -14.527  0.00  0.00    -0.272 OA
ATOM     22  N   UNL     1      32.493 -22.703 -14.356  0.00  0.00    -0.196 N 
ATOM     23  C   UNL     1      33.460 -23.595 -14.753  0.00  0.00    +0.260 C 
ATOM     24  H   UNL     1      32.554 -21.741 -14.559  0.00  0.00    +0.182 HD
BRANCH  22  25
ATOM     25  O   UNL     1      31.414 -23.245 -13.644  0.00  0.00    -0.295 OA
ATOM     26  H   UNL     1      31.494 -23.010 -12.706  0.00  0.00    +0.241 HD
ENDBRANCH  22  25
ENDBRANCH  14  23
ENDBRANCH   1  14
TORSDOF 6
ENDMDL
MODEL 7
REMARK VINA RESULT:      -8.6      2.608      3.981
REMARK  Name = 4369384
REMARK  6 active torsions:
REMARK  status: ('A' for Active; 'I' for Inactive)
REMARK    1  A    between atoms: N_1  and  S_3
REMARK    2  A    between atoms: N_1  and  C_14
REMARK    3  A    between atoms: S_3  and  C_7
REMARK    4  A    between atoms: C_14  and  C_16
REMARK    5  A    between atoms: C_14  and  C_23
REMARK    6  A    between atoms: N_22  and  O_25
REMARK                            x       y       z     vdW  Elec       q    Type
REMARK                         _______ _______ _______ _____ _____    ______ ____
ROOT
ATOM      1  N   UNL     1      36.318 -24.698 -15.833  0.00  0.00    -0.172 NA
ATOM      2  H   UNL     1      36.911 -25.037 -16.591  0.00  0.00    +0.149 HD
ENDROOT
BRANCH   1   3
ATOM      3  S   UNL     1      36.447 -23.002 -15.828  0.00  0.00    +0.061 S 
ATOM      4  O   UNL     1      37.813 -22.624 -16.135  0.00  0.00    -0.153 OA
ATOM      5  O   UNL     1      35.795 -22.482 -14.641  0.00  0.00    -0.153 OA
BRANCH   3   7
ATOM      6  F   UNL     1      33.076 -21.528 -20.410  0.00  0.00    -0.205 F 
ATOM      7  C   UNL     1      35.435 -22.558 -17.207  0.00  0.00    +0.122 C 
ATOM      8  C   UNL     1      35.987 -21.817 -18.239  0.00  0.00    +0.018 C 
ATOM      9  C   UNL     1      34.111 -22.958 -17.231  0.00  0.00    +0.022 C 
ATOM     10  C   UNL     1      35.188 -21.467 -19.327  0.00  0.00    +0.007 C 
ATOM     11  C   UNL     1      33.312 -22.607 -18.319  0.00  0.00    +0.031 C 
ATOM     12  C   UNL     1      33.851 -21.860 -19.367  0.00  0.00    +0.136 C 
ATOM     13  C   UNL     1      35.767 -20.668 -20.447  0.00  0.00    +0.033 C 
ENDBRANCH   3   7
ENDBRANCH   1   3
BRANCH   1  14
ATOM     14  C   UNL     1      36.681 -25.471 -14.631  0.00  0.00    +0.153 C 
BRANCH  14  16
ATOM     15  O   UNL     1      37.039 -24.186 -10.578  0.00  0.00    -0.354 OA
ATOM     16  C   UNL     1      36.736 -24.538 -13.424  0.00  0.00    +0.030 C 
ATOM     17  C   UNL     1      38.095 -24.620 -12.721  0.00  0.00    +0.034 C 
ATOM     18  C   UNL     1      35.615 -24.857 -12.427  0.00  0.00    +0.034 C 
ATOM     19  C   UNL     1      38.094 -23.782 -11.449  0.00  0.00    +0.142 C 
ATOM     20  C   UNL     1      35.753 -24.006 -11.171  0.00  0.00    +0.142 C 
ENDBRANCH  14  16
BRANCH  14  23
ATOM     21  O   UNL     1      38.269 -27.290 -14.588  0.00  0.00    -0.272 OA
ATOM     22  N   UNL     1      38.928 -25.248 -15.437  0.00  0.00    -0.196 N 
ATOM     23  C   UNL     1      38.026 -26.120 -14.875  0.00  0.00    +0.260 C 
ATOM     24  H   UNL     1      38.691 -24.317 -15.651  0.00  0.00    +0.182 HD
BRANCH  22  25
ATOM     25  O   UNL     1      40.207 -25.765 -15.686  0.00  0.00    -0.295 OA
ATOM     26  H   UNL     1      40.843 -25.366 -15.072  0.00  0.00    +0.241 HD
ENDBRANCH  22  25
ENDBRANCH  14  23
ENDBRANCH   1  14
TORSDOF 6
ENDMDL
MODEL 8
REMARK VINA RESULT:      -8.5      8.910     11.953
REMARK  Name = 4369384
REMARK  6 active torsions:
REMARK  status: ('A' for Active; 'I' for Inactive)
REMARK    1  A    between atoms: N_1  and  S_3
REMARK    2  A    between atoms: N_1  and  C_14
REMARK    3  A    between atoms: S_3  and  C_7
REMARK    4  A    between atoms: C_14  and  C_16
REMARK    5  A    between atoms: C_14  and  C_23
REMARK    6  A    between atoms: N_22  and  O_25
REMARK                            x       y       z     vdW  Elec       q    Type
REMARK                         _______ _______ _______ _____ _____    ______ ____
ROOT
ATOM      1  N   UNL     1      32.958 -15.109 -22.451  0.00  0.00    -0.172 NA
ATOM      2  H   UNL     1      32.051 -14.671 -22.280  0.00  0.00    +0.149 HD
ENDROOT
BRANCH   1   3
ATOM      3  S   UNL     1      33.680 -15.356 -20.931  0.00  0.00    +0.061 S 
ATOM      4  O   UNL     1      32.660 -15.302 -19.901  0.00  0.00    -0.153 OA
ATOM      5  O   UNL     1      34.864 -14.524 -20.829  0.00  0.00    -0.153 OA
BRANCH   3   7
ATOM      6  F   UNL     1      35.534 -20.915 -21.367  0.00  0.00    -0.205 F 
ATOM      7  C   UNL     1      34.235 -17.029 -21.062  0.00  0.00    +0.122 C 
ATOM      8  C   UNL     1      33.353 -18.058 -20.775  0.00  0.00    +0.018 C 
ATOM      9  C   UNL     1      35.540 -17.280 -21.448  0.00  0.00    +0.022 C 
ATOM     10  C   UNL     1      33.792 -19.378 -20.878  0.00  0.00    +0.007 C 
ATOM     11  C   UNL     1      35.978 -18.600 -21.550  0.00  0.00    +0.031 C 
ATOM     12  C   UNL     1      35.104 -19.649 -21.265  0.00  0.00    +0.136 C 
ATOM     13  C   UNL     1      32.855 -20.498 -20.571  0.00  0.00    +0.033 C 
ENDBRANCH   3   7
ENDBRANCH   1   3
BRANCH   1  14
ATOM     14  C   UNL     1      33.640 -14.288 -23.470  0.00  0.00    +0.153 C 
BRANCH  14  16
ATOM     15  O   UNL     1      32.608 -10.220 -22.697  0.00  0.00    -0.354 OA
ATOM     16  C   UNL     1      32.931 -12.942 -23.595  0.00  0.00    +0.030 C 
ATOM     17  C   UNL     1      33.918 -11.828 -23.961  0.00  0.00    +0.034 C 
ATOM     18  C   UNL     1      32.198 -12.581 -22.297  0.00  0.00    +0.034 C 
ATOM     19  C   UNL     1      33.223 -10.472 -23.959  0.00  0.00    +0.142 C 
ATOM     20  C   UNL     1      31.600 -11.182 -22.388  0.00  0.00    +0.142 C 
ENDBRANCH  14  16
BRANCH  14  23
ATOM     21  O   UNL     1      32.918 -14.696 -25.737  0.00  0.00    -0.272 OA
ATOM     22  N   UNL     1      34.427 -16.146 -24.765  0.00  0.00    -0.196 N 
ATOM     23  C   UNL     1      33.609 -15.041 -24.782  0.00  0.00    +0.260 C 
ATOM     24  H   UNL     1      34.965 -16.386 -23.976  0.00  0.00    +0.182 HD
BRANCH  22  25
ATOM     25  O   UNL     1      34.449 -16.910 -25.940  0.00  0.00    -0.295 OA
ATOM     26  H   UNL     1      35.319 -17.328 -26.038  0.00  0.00    +0.241 HD
ENDBRANCH  22  25
ENDBRANCH  14  23
ENDBRANCH   1  14
TORSDOF 6
ENDMDL
MODEL 9
REMARK VINA RESULT:      -8.5      7.234     10.326
REMARK  Name = 4369384
REMARK  6 active torsions:
REMARK  status: ('A' for Active; 'I' for Inactive)
REMARK    1  A    between atoms: N_1  and  S_3
REMARK    2  A    between atoms: N_1  and  C_14
REMARK    3  A    between atoms: S_3  and  C_7
REMARK    4  A    between atoms: C_14  and  C_16
REMARK    5  A    between atoms: C_14  and  C_23
REMARK    6  A    between atoms: N_22  and  O_25
REMARK                            x       y       z     vdW  Elec       q    Type
REMARK                         _______ _______ _______ _____ _____    ______ ____
ROOT
ATOM      1  N   UNL     1      35.668 -16.890 -22.135  0.00  0.00    -0.172 NA
ATOM      2  H   UNL     1      36.345 -16.282 -22.597  0.00  0.00    +0.149 HD
ENDROOT
BRANCH   1   3
ATOM      3  S   UNL     1      35.956 -18.467 -22.703  0.00  0.00    +0.061 S 
ATOM      4  O   UNL     1      37.365 -18.778 -22.560  0.00  0.00    -0.153 OA
ATOM      5  O   UNL     1      35.296 -18.636 -23.984  0.00  0.00    -0.153 OA
BRANCH   3   7
ATOM      6  F   UNL     1      32.974 -21.707 -18.810  0.00  0.00    -0.205 F 
ATOM      7  C   UNL     1      35.061 -19.442 -21.531  0.00  0.00    +0.122 C 
ATOM      8  C   UNL     1      35.762 -20.229 -20.631  0.00  0.00    +0.018 C 
ATOM      9  C   UNL     1      33.678 -19.402 -21.533  0.00  0.00    +0.022 C 
ATOM     10  C   UNL     1      35.055 -20.998 -19.707  0.00  0.00    +0.007 C 
ATOM     11  C   UNL     1      32.973 -20.172 -20.609  0.00  0.00    +0.031 C 
ATOM     12  C   UNL     1      33.661 -20.971 -19.696  0.00  0.00    +0.136 C 
ATOM     13  C   UNL     1      35.795 -21.852 -18.732  0.00  0.00    +0.033 C 
ENDBRANCH   3   7
ENDBRANCH   1   3
BRANCH   1  14
ATOM     14  C   UNL     1      34.343 -16.268 -22.318  0.00  0.00    +0.153 C 
BRANCH  14  16
ATOM     15  O   UNL     1      33.042 -13.486 -25.281  0.00  0.00    -0.354 OA
ATOM     16  C   UNL     1      34.408 -15.266 -23.468  0.00  0.00    +0.030 C 
ATOM     17  C   UNL     1      33.879 -13.894 -23.037  0.00  0.00    +0.034 C 
ATOM     18  C   UNL     1      33.620 -15.769 -24.684  0.00  0.00    +0.034 C 
ATOM     19  C   UNL     1      33.830 -12.940 -24.224  0.00  0.00    +0.142 C 
ATOM     20  C   UNL     1      33.584 -14.709 -25.778  0.00  0.00    +0.142 C 
ENDBRANCH  14  16
BRANCH  14  23
ATOM     21  O   UNL     1      34.780 -15.067 -20.269  0.00  0.00    -0.272 OA
ATOM     22  N   UNL     1      32.604 -15.621 -20.799  0.00  0.00    -0.196 N 
ATOM     23  C   UNL     1      33.959 -15.583 -21.024  0.00  0.00    +0.260 C 
ATOM     24  H   UNL     1      31.981 -16.046 -21.433  0.00  0.00    +0.182 HD
BRANCH  22  25
ATOM     25  O   UNL     1      32.162 -15.019 -19.613  0.00  0.00    -0.295 OA
ATOM     26  H   UNL     1      31.280 -15.356 -19.388  0.00  0.00    +0.241 HD
ENDBRANCH  22  25
ENDBRANCH  14  23
ENDBRANCH   1  14
TORSDOF 6
ENDMDL
