MODEL 1
REMARK VINA RESULT:      -6.4      0.000      0.000
REMARK  Name = 445226
REMARK  5 active torsions:
REMARK  status: ('A' for Active; 'I' for Inactive)
REMARK    1  A    between atoms: C_3  and  O_8
REMARK    2  A    between atoms: C_4  and  O_10
REMARK    3  A    between atoms: C_5  and  C_14
REMARK    4  A    between atoms: C_7  and  O_12
REMARK    5  A    between atoms: C_14  and  O_15
REMARK                            x       y       z     vdW  Elec       q    Type
REMARK                         _______ _______ _______ _____ _____    ______ ____
ROOT
ATOM      1  F   UNL     1      35.548 -24.003 -12.555  0.00  0.00    -0.229 F 
ATOM      2  O   UNL     1      39.084 -24.225 -13.206  0.00  0.00    -0.326 OA
ATOM      3  C   UNL     1      37.975 -25.956 -14.530  0.00  0.00    +0.170 C 
ATOM      4  C   UNL     1      36.639 -25.625 -13.860  0.00  0.00    +0.177 C 
ATOM      5  C   UNL     1      39.156 -25.593 -13.621  0.00  0.00    +0.176 C 
ATOM      6  C   UNL     1      36.658 -24.202 -13.316  0.00  0.00    +0.246 C 
ATOM      7  C   UNL     1      37.896 -23.921 -12.472  0.00  0.00    +0.268 C 
ENDROOT
BRANCH   3   8
ATOM      8  O   UNL     1      38.027 -27.350 -14.822  0.00  0.00    -0.379 OA
ATOM      9  H   UNL     1      38.829 -27.543 -15.333  0.00  0.00    +0.211 HD
ENDBRANCH   3   8
BRANCH   4  10
ATOM     10  O   UNL     1      35.590 -25.708 -14.825  0.00  0.00    -0.379 OA
ATOM     11  H   UNL     1      35.615 -26.577 -15.255  0.00  0.00    +0.211 HD
ENDBRANCH   4  10
BRANCH   7  12
ATOM     12  O   UNL     1      37.852 -24.588 -11.212  0.00  0.00    -0.358 OA
ATOM     13  H   UNL     1      38.583 -25.222 -11.156  0.00  0.00    +0.213 HD
ENDBRANCH   7  12
BRANCH   5  14
ATOM     14  C   UNL     1      40.491 -25.780 -14.337  0.00  0.00    +0.169 C 
BRANCH  14  15
ATOM     15  O   UNL     1      40.251 -25.835 -15.731  0.00  0.00    -0.379 OA
ATOM     16  H   UNL     1      39.768 -25.040 -16.008  0.00  0.00    +0.211 HD
ENDBRANCH  14  15
ENDBRANCH   5  14
TORSDOF 5
ENDMDL
MODEL 2
REMARK VINA RESULT:      -6.1      1.697      2.123
REMARK  Name = 445226
REMARK  5 active torsions:
REMARK  status: ('A' for Active; 'I' for Inactive)
REMARK    1  A    between atoms: C_3  and  O_8
REMARK    2  A    between atoms: C_4  and  O_10
REMARK    3  A    between atoms: C_5  and  C_14
REMARK    4  A    between atoms: C_7  and  O_12
REMARK    5  A    between atoms: C_14  and  O_15
REMARK                            x       y       z     vdW  Elec       q    Type
REMARK                         _______ _______ _______ _____ _____    ______ ____
ROOT
ATOM      1  F   UNL     1      35.308 -25.094 -12.412  0.00  0.00    -0.229 F 
ATOM      2  O   UNL     1      38.713 -26.024 -13.134  0.00  0.00    -0.326 OA
ATOM      3  C   UNL     1      38.125 -24.158 -14.601  0.00  0.00    +0.170 C 
ATOM      4  C   UNL     1      36.677 -24.215 -14.108  0.00  0.00    +0.177 C 
ATOM      5  C   UNL     1      38.809 -25.525 -14.472  0.00  0.00    +0.176 C 
ATOM      6  C   UNL     1      36.611 -24.874 -12.735  0.00  0.00    +0.246 C 
ATOM      7  C   UNL     1      37.365 -26.198 -12.693  0.00  0.00    +0.268 C 
ENDROOT
BRANCH   3   8
ATOM      8  O   UNL     1      38.146 -23.759 -15.970  0.00  0.00    -0.379 OA
ATOM      9  H   UNL     1      37.422 -24.196 -16.445  0.00  0.00    +0.211 HD
ENDBRANCH   3   8
BRANCH   4  10
ATOM     10  O   UNL     1      36.167 -22.888 -13.978  0.00  0.00    -0.379 OA
ATOM     11  H   UNL     1      36.884 -22.251 -14.127  0.00  0.00    +0.211 HD
ENDBRANCH   4  10
BRANCH   7  12
ATOM     12  O   UNL     1      36.688 -27.227 -13.412  0.00  0.00    -0.358 OA
ATOM     13  H   UNL     1      36.958 -28.092 -13.068  0.00  0.00    +0.213 HD
ENDBRANCH   7  12
BRANCH   5  14
ATOM     14  C   UNL     1      40.292 -25.445 -14.821  0.00  0.00    +0.169 C 
BRANCH  14  15
ATOM     15  O   UNL     1      40.469 -25.917 -16.145  0.00  0.00    -0.379 OA
ATOM     16  H   UNL     1      40.019 -25.320 -16.764  0.00  0.00    +0.211 HD
ENDBRANCH  14  15
ENDBRANCH   5  14
TORSDOF 5
ENDMDL
MODEL 3
REMARK VINA RESULT:      -5.9      2.089      4.173
REMARK  Name = 445226
REMARK  5 active torsions:
REMARK  status: ('A' for Active; 'I' for Inactive)
REMARK    1  A    between atoms: C_3  and  O_8
REMARK    2  A    between atoms: C_4  and  O_10
REMARK    3  A    between atoms: C_5  and  C_14
REMARK    4  A    between atoms: C_7  and  O_12
REMARK    5  A    between atoms: C_14  and  O_15
REMARK                            x       y       z     vdW  Elec       q    Type
REMARK                         _______ _______ _______ _____ _____    ______ ____
ROOT
ATOM      1  F   UNL     1      39.467 -25.814 -13.128  0.00  0.00    -0.229 F 
ATOM      2  O   UNL     1      36.790 -24.749 -15.292  0.00  0.00    -0.326 OA
ATOM      3  C   UNL     1      35.991 -24.586 -12.987  0.00  0.00    +0.170 C 
ATOM      4  C   UNL     1      37.279 -25.244 -12.485  0.00  0.00    +0.177 C 
ATOM      5  C   UNL     1      35.679 -25.008 -14.428  0.00  0.00    +0.176 C 
ATOM      6  C   UNL     1      38.400 -25.055 -13.499  0.00  0.00    +0.246 C 
ATOM      7  C   UNL     1      37.976 -25.449 -14.910  0.00  0.00    +0.268 C 
ENDROOT
BRANCH   3   8
ATOM      8  O   UNL     1      34.904 -24.969 -12.148  0.00  0.00    -0.379 OA
ATOM      9  H   UNL     1      35.019 -24.573 -11.270  0.00  0.00    +0.211 HD
ENDBRANCH   3   8
BRANCH   4  10
ATOM     10  O   UNL     1      37.686 -24.621 -11.266  0.00  0.00    -0.379 OA
ATOM     11  H   UNL     1      38.335 -23.927 -11.459  0.00  0.00    +0.211 HD
ENDBRANCH   4  10
BRANCH   7  12
ATOM     12  O   UNL     1      37.844 -26.861 -15.058  0.00  0.00    -0.358 OA
ATOM     13  H   UNL     1      36.946 -27.071 -15.357  0.00  0.00    +0.213 HD
ENDBRANCH   7  12
BRANCH   5  14
ATOM     14  C   UNL     1      34.482 -24.245 -14.988  0.00  0.00    +0.169 C 
BRANCH  14  15
ATOM     15  O   UNL     1      34.364 -23.018 -14.292  0.00  0.00    -0.379 OA
ATOM     16  H   UNL     1      33.862 -22.387 -14.831  0.00  0.00    +0.211 HD
ENDBRANCH  14  15
ENDBRANCH   5  14
TORSDOF 5
ENDMDL
MODEL 4
REMARK VINA RESULT:      -5.9      2.078      3.853
REMARK  Name = 445226
REMARK  5 active torsions:
REMARK  status: ('A' for Active; 'I' for Inactive)
REMARK    1  A    between atoms: C_3  and  O_8
REMARK    2  A    between atoms: C_4  and  O_10
REMARK    3  A    between atoms: C_5  and  C_14
REMARK    4  A    between atoms: C_7  and  O_12
REMARK    5  A    between atoms: C_14  and  O_15
REMARK                            x       y       z     vdW  Elec       q    Type
REMARK                         _______ _______ _______ _____ _____    ______ ____
ROOT
ATOM      1  F   UNL     1      38.401 -26.192 -15.216  0.00  0.00    -0.229 F 
ATOM      2  O   UNL     1      37.536 -25.370 -11.816  0.00  0.00    -0.326 OA
ATOM      3  C   UNL     1      35.758 -24.517 -13.262  0.00  0.00    +0.170 C 
ATOM      4  C   UNL     1      36.568 -24.906 -14.502  0.00  0.00    +0.177 C 
ATOM      5  C   UNL     1      36.676 -24.253 -12.062  0.00  0.00    +0.176 C 
ATOM      6  C   UNL     1      37.563 -26.008 -14.160  0.00  0.00    +0.246 C 
ATOM      7  C   UNL     1      38.389 -25.678 -12.921  0.00  0.00    +0.268 C 
ENDROOT
BRANCH   3   8
ATOM      8  O   UNL     1      35.006 -23.338 -13.537  0.00  0.00    -0.379 OA
ATOM      9  H   UNL     1      34.904 -22.822 -12.722  0.00  0.00    +0.211 HD
ENDBRANCH   3   8
BRANCH   4  10
ATOM     10  O   UNL     1      35.687 -25.412 -15.505  0.00  0.00    -0.379 OA
ATOM     11  H   UNL     1      35.625 -24.773 -16.232  0.00  0.00    +0.211 HD
ENDBRANCH   4  10
BRANCH   7  12
ATOM     12  O   UNL     1      39.346 -24.651 -13.170  0.00  0.00    -0.358 OA
ATOM     13  H   UNL     1      40.143 -25.039 -13.561  0.00  0.00    +0.213 HD
ENDBRANCH   7  12
BRANCH   5  14
ATOM     14  C   UNL     1      35.874 -24.010 -10.787  0.00  0.00    +0.169 C 
BRANCH  14  15
ATOM     15  O   UNL     1      35.255 -25.225 -10.405  0.00  0.00    -0.379 OA
ATOM     16  H   UNL     1      35.937 -25.884 -10.197  0.00  0.00    +0.211 HD
ENDBRANCH  14  15
ENDBRANCH   5  14
TORSDOF 5
ENDMDL
MODEL 5
REMARK VINA RESULT:      -5.8      2.201      2.502
REMARK  Name = 445226
REMARK  5 active torsions:
REMARK  status: ('A' for Active; 'I' for Inactive)
REMARK    1  A    between atoms: C_3  and  O_8
REMARK    2  A    between atoms: C_4  and  O_10
REMARK    3  A    between atoms: C_5  and  C_14
REMARK    4  A    between atoms: C_7  and  O_12
REMARK    5  A    between atoms: C_14  and  O_15
REMARK                            x       y       z     vdW  Elec       q    Type
REMARK                         _______ _______ _______ _____ _____    ______ ____
ROOT
ATOM      1  F   UNL     1      35.577 -24.216 -10.408  0.00  0.00    -0.229 F 
ATOM      2  O   UNL     1      37.565 -22.903 -13.111  0.00  0.00    -0.326 OA
ATOM      3  C   UNL     1      35.734 -24.192 -14.094  0.00  0.00    +0.170 C 
ATOM      4  C   UNL     1      35.302 -24.657 -12.700  0.00  0.00    +0.177 C 
ATOM      5  C   UNL     1      37.230 -23.855 -14.126  0.00  0.00    +0.176 C 
ATOM      6  C   UNL     1      35.796 -23.680 -11.640  0.00  0.00    +0.246 C 
ATOM      7  C   UNL     1      37.280 -23.366 -11.789  0.00  0.00    +0.268 C 
ENDROOT
BRANCH   3   8
ATOM      8  O   UNL     1      35.472 -25.224 -15.041  0.00  0.00    -0.379 OA
ATOM      9  H   UNL     1      35.932 -26.035 -14.772  0.00  0.00    +0.211 HD
ENDBRANCH   3   8
BRANCH   4  10
ATOM     10  O   UNL     1      33.877 -24.690 -12.631  0.00  0.00    -0.379 OA
ATOM     11  H   UNL     1      33.588 -25.568 -12.338  0.00  0.00    +0.211 HD
ENDBRANCH   4  10
BRANCH   7  12
ATOM     12  O   UNL     1      38.105 -24.465 -11.410  0.00  0.00    -0.358 OA
ATOM     13  H   UNL     1      38.364 -24.963 -12.201  0.00  0.00    +0.213 HD
ENDBRANCH   7  12
BRANCH   5  14
ATOM     14  C   UNL     1      37.639 -23.251 -15.467  0.00  0.00    +0.169 C 
BRANCH  14  15
ATOM     15  O   UNL     1      38.937 -23.714 -15.792  0.00  0.00    -0.379 OA
ATOM     16  H   UNL     1      39.582 -23.326 -15.179  0.00  0.00    +0.211 HD
ENDBRANCH  14  15
ENDBRANCH   5  14
TORSDOF 5
ENDMDL
MODEL 6
REMARK VINA RESULT:      -5.8      2.180      3.482
REMARK  Name = 445226
REMARK  5 active torsions:
REMARK  status: ('A' for Active; 'I' for Inactive)
REMARK    1  A    between atoms: C_3  and  O_8
REMARK    2  A    between atoms: C_4  and  O_10
REMARK    3  A    between atoms: C_5  and  C_14
REMARK    4  A    between atoms: C_7  and  O_12
REMARK    5  A    between atoms: C_14  and  O_15
REMARK                            x       y       z     vdW  Elec       q    Type
REMARK                         _______ _______ _______ _____ _____    ______ ____
ROOT
ATOM      1  F   UNL     1      36.528 -26.922 -16.149  0.00  0.00    -0.229 F 
ATOM      2  O   UNL     1      37.438 -26.068 -12.770  0.00  0.00    -0.326 OA
ATOM      3  C   UNL     1      36.917 -23.989 -13.947  0.00  0.00    +0.170 C 
ATOM      4  C   UNL     1      36.771 -24.760 -15.261  0.00  0.00    +0.177 C 
ATOM      5  C   UNL     1      37.860 -24.716 -12.980  0.00  0.00    +0.176 C 
ATOM      6  C   UNL     1      36.452 -26.224 -14.984  0.00  0.00    +0.246 C 
ATOM      7  C   UNL     1      37.409 -26.842 -13.971  0.00  0.00    +0.268 C 
ENDROOT
BRANCH   3   8
ATOM      8  O   UNL     1      37.440 -22.690 -14.213  0.00  0.00    -0.379 OA
ATOM      9  H   UNL     1      38.392 -22.681 -14.027  0.00  0.00    +0.211 HD
ENDBRANCH   3   8
BRANCH   4  10
ATOM     10  O   UNL     1      35.687 -24.214 -16.014  0.00  0.00    -0.379 OA
ATOM     11  H   UNL     1      35.085 -23.743 -15.417  0.00  0.00    +0.211 HD
ENDBRANCH   4  10
BRANCH   7  12
ATOM     12  O   UNL     1      38.711 -27.047 -14.514  0.00  0.00    -0.358 OA
ATOM     13  H   UNL     1      38.880 -26.390 -15.207  0.00  0.00    +0.213 HD
ENDBRANCH   7  12
BRANCH   5  14
ATOM     14  C   UNL     1      37.896 -24.035 -11.615  0.00  0.00    +0.169 C 
BRANCH  14  15
ATOM     15  O   UNL     1      38.772 -22.925 -11.688  0.00  0.00    -0.379 OA
ATOM     16  H   UNL     1      39.187 -22.898 -12.565  0.00  0.00    +0.211 HD
ENDBRANCH  14  15
ENDBRANCH   5  14
TORSDOF 5
ENDMDL
MODEL 7
REMARK VINA RESULT:      -5.7      1.916      3.707
REMARK  Name = 445226
REMARK  5 active torsions:
REMARK  status: ('A' for Active; 'I' for Inactive)
REMARK    1  A    between atoms: C_3  and  O_8
REMARK    2  A    between atoms: C_4  and  O_10
REMARK    3  A    between atoms: C_5  and  C_14
REMARK    4  A    between atoms: C_7  and  O_12
REMARK    5  A    between atoms: C_14  and  O_15
REMARK                            x       y       z     vdW  Elec       q    Type
REMARK                         _______ _______ _______ _____ _____    ______ ____
ROOT
ATOM      1  F   UNL     1      39.641 -25.779 -13.282  0.00  0.00    -0.229 F 
ATOM      2  O   UNL     1      36.382 -24.744 -12.147  0.00  0.00    -0.326 OA
ATOM      3  C   UNL     1      36.265 -25.038 -14.572  0.00  0.00    +0.170 C 
ATOM      4  C   UNL     1      37.775 -25.284 -14.623  0.00  0.00    +0.177 C 
ATOM      5  C   UNL     1      35.885 -24.174 -13.363  0.00  0.00    +0.176 C 
ATOM      6  C   UNL     1      38.281 -25.763 -13.268  0.00  0.00    +0.246 C 
ATOM      7  C   UNL     1      37.805 -24.872 -12.126  0.00  0.00    +0.268 C 
ENDROOT
BRANCH   3   8
ATOM      8  O   UNL     1      35.851 -24.374 -15.763  0.00  0.00    -0.379 OA
ATOM      9  H   UNL     1      35.831 -25.008 -16.496  0.00  0.00    +0.211 HD
ENDBRANCH   3   8
BRANCH   4  10
ATOM     10  O   UNL     1      38.058 -26.307 -15.579  0.00  0.00    -0.379 OA
ATOM     11  H   UNL     1      38.882 -26.757 -15.336  0.00  0.00    +0.211 HD
ENDBRANCH   4  10
BRANCH   7  12
ATOM     12  O   UNL     1      38.463 -23.608 -12.119  0.00  0.00    -0.358 OA
ATOM     13  H   UNL     1      38.659 -23.340 -13.030  0.00  0.00    +0.213 HD
ENDBRANCH   7  12
BRANCH   5  14
ATOM     14  C   UNL     1      34.372 -24.047 -13.218  0.00  0.00    +0.169 C 
BRANCH  14  15
ATOM     15  O   UNL     1      33.760 -25.084 -13.964  0.00  0.00    -0.379 OA
ATOM     16  H   UNL     1      33.353 -25.722 -13.356  0.00  0.00    +0.211 HD
ENDBRANCH  14  15
ENDBRANCH   5  14
TORSDOF 5
ENDMDL
MODEL 8
REMARK VINA RESULT:      -5.7      1.770      2.080
REMARK  Name = 445226
REMARK  5 active torsions:
REMARK  status: ('A' for Active; 'I' for Inactive)
REMARK    1  A    between atoms: C_3  and  O_8
REMARK    2  A    between atoms: C_4  and  O_10
REMARK    3  A    between atoms: C_5  and  C_14
REMARK    4  A    between atoms: C_7  and  O_12
REMARK    5  A    between atoms: C_14  and  O_15
REMARK                            x       y       z     vdW  Elec       q    Type
REMARK                         _______ _______ _______ _____ _____    ______ ____
ROOT
ATOM      1  F   UNL     1      33.632 -23.604 -13.791  0.00  0.00    -0.229 F 
ATOM      2  O   UNL     1      36.977 -24.181 -12.585  0.00  0.00    -0.326 OA
ATOM      3  C   UNL     1      36.852 -25.046 -14.868  0.00  0.00    +0.170 C 
ATOM      4  C   UNL     1      35.347 -24.767 -14.901  0.00  0.00    +0.177 C 
ATOM      5  C   UNL     1      37.342 -25.275 -13.433  0.00  0.00    +0.176 C 
ATOM      6  C   UNL     1      34.987 -23.688 -13.886  0.00  0.00    +0.246 C 
ATOM      7  C   UNL     1      35.565 -23.977 -12.505  0.00  0.00    +0.268 C 
ENDROOT
BRANCH   3   8
ATOM      8  O   UNL     1      37.136 -26.208 -15.644  0.00  0.00    -0.379 OA
ATOM      9  H   UNL     1      37.895 -26.674 -15.262  0.00  0.00    +0.211 HD
ENDBRANCH   3   8
BRANCH   4  10
ATOM     10  O   UNL     1      34.981 -24.287 -16.194  0.00  0.00    -0.379 OA
ATOM     11  H   UNL     1      35.654 -24.553 -16.840  0.00  0.00    +0.211 HD
ENDBRANCH   4  10
BRANCH   7  12
ATOM     12  O   UNL     1      34.897 -25.056 -11.856  0.00  0.00    -0.358 OA
ATOM     13  H   UNL     1      34.629 -25.714 -12.515  0.00  0.00    +0.213 HD
ENDBRANCH   7  12
BRANCH   5  14
ATOM     14  C   UNL     1      38.862 -25.406 -13.375  0.00  0.00    +0.169 C 
BRANCH  14  15
ATOM     15  O   UNL     1      39.419 -24.675 -14.451  0.00  0.00    -0.379 OA
ATOM     16  H   UNL     1      39.440 -23.732 -14.225  0.00  0.00    +0.211 HD
ENDBRANCH  14  15
ENDBRANCH   5  14
TORSDOF 5
ENDMDL
MODEL 9
REMARK VINA RESULT:      -5.7     12.655     13.440
REMARK  Name = 445226
REMARK  5 active torsions:
REMARK  status: ('A' for Active; 'I' for Inactive)
REMARK    1  A    between atoms: C_3  and  O_8
REMARK    2  A    between atoms: C_4  and  O_10
REMARK    3  A    between atoms: C_5  and  C_14
REMARK    4  A    between atoms: C_7  and  O_12
REMARK    5  A    between atoms: C_14  and  O_15
REMARK                            x       y       z     vdW  Elec       q    Type
REMARK                         _______ _______ _______ _____ _____    ______ ____
ROOT
ATOM      1  F   UNL     1      34.555 -15.279 -20.112  0.00  0.00    -0.229 F 
ATOM      2  O   UNL     1      33.538 -15.640 -23.549  0.00  0.00    -0.326 OA
ATOM      3  C   UNL     1      34.983 -17.534 -23.000  0.00  0.00    +0.170 C 
ATOM      4  C   UNL     1      35.283 -16.919 -21.630  0.00  0.00    +0.177 C 
ATOM      5  C   UNL     1      34.616 -16.453 -24.024  0.00  0.00    +0.176 C 
ATOM      6  C   UNL     1      34.171 -15.959 -21.226  0.00  0.00    +0.246 C 
ATOM      7  C   UNL     1      33.840 -14.960 -22.329  0.00  0.00    +0.268 C 
ENDROOT
BRANCH   3   8
ATOM      8  O   UNL     1      36.131 -18.241 -23.464  0.00  0.00    -0.379 OA
ATOM      9  H   UNL     1      35.855 -19.085 -23.853  0.00  0.00    +0.211 HD
ENDBRANCH   3   8
BRANCH   4  10
ATOM     10  O   UNL     1      35.343 -17.954 -20.648  0.00  0.00    -0.379 OA
ATOM     11  H   UNL     1      34.894 -18.745 -20.985  0.00  0.00    +0.211 HD
ENDBRANCH   4  10
BRANCH   7  12
ATOM     12  O   UNL     1      34.864 -13.981 -22.494  0.00  0.00    -0.358 OA
ATOM     13  H   UNL     1      34.479 -13.095 -22.416  0.00  0.00    +0.213 HD
ENDBRANCH   7  12
BRANCH   5  14
ATOM     14  C   UNL     1      34.172 -17.065 -25.349  0.00  0.00    +0.169 C 
BRANCH  14  15
ATOM     15  O   UNL     1      33.777 -16.020 -26.219  0.00  0.00    -0.379 OA
ATOM     16  H   UNL     1      32.814 -15.912 -26.179  0.00  0.00    +0.211 HD
ENDBRANCH  14  15
ENDBRANCH   5  14
TORSDOF 5
ENDMDL
