MODEL 1
REMARK VINA RESULT:      -6.2      0.000      0.000
REMARK  Name = 5289084
REMARK  16 active torsions:
REMARK  status: ('A' for Active; 'I' for Inactive)
REMARK    1  A    between atoms: C_1  and  S_2
REMARK    2  A    between atoms: C_1  and  C_8
REMARK    3  A    between atoms: C_1  and  C_16
REMARK    4  A    between atoms: S_2  and  S_3
REMARK    5  A    between atoms: S_3  and  C_4
REMARK    6  A    between atoms: C_4  and  C_5
REMARK    7  A    between atoms: C_5  and  O_6
REMARK    8  A    between atoms: C_8  and  C_9
REMARK    9  A    between atoms: C_9  and  C_10
REMARK   10  A    between atoms: C_10  and  C_11
REMARK   11  A    between atoms: C_11  and  C_13
REMARK   12  A    between atoms: C_13  and  O_14
REMARK   13  A    between atoms: C_16  and  C_17
REMARK   14  A    between atoms: C_17  and  S_18
REMARK   15  A    between atoms: S_18  and  C_19
REMARK   16  A    between atoms: C_19  and  N_20
REMARK                            x       y       z     vdW  Elec       q    Type
REMARK                         _______ _______ _______ _____ _____    ______ ____
ROOT
ATOM      1  C   UNL     1      33.035 -23.454 -16.411  0.00  0.00    +0.059 C 
ENDROOT
BRANCH   1   2
ATOM      2  S   UNL     1      34.789 -23.172 -15.957  0.00  0.00    -0.083 S 
BRANCH   2   3
ATOM      3  S   UNL     1      35.102 -24.704 -14.629  0.00  0.00    -0.080 S 
BRANCH   3   4
ATOM      4  C   UNL     1      36.795 -25.201 -15.029  0.00  0.00    +0.100 C 
BRANCH   4   5
ATOM      5  C   UNL     1      36.946 -26.715 -15.017  0.00  0.00    +0.150 C 
BRANCH   5   6
ATOM      6  O   UNL     1      36.740 -27.236 -16.324  0.00  0.00    -0.381 OA
ATOM      7  H   UNL     1      37.591 -27.305 -16.783  0.00  0.00    +0.210 HD
ENDBRANCH   5   6
ENDBRANCH   4   5
ENDBRANCH   3   4
ENDBRANCH   2   3
ENDBRANCH   1   2
BRANCH   1   8
ATOM      8  C   UNL     1      32.108 -23.113 -15.230  0.00  0.00    +0.012 C 
BRANCH   8   9
ATOM      9  C   UNL     1      31.108 -24.207 -14.832  0.00  0.00    +0.001 C 
BRANCH   9  10
ATOM     10  C   UNL     1      29.928 -24.252 -15.810  0.00  0.00    +0.012 C 
BRANCH  10  11
ATOM     11  C   UNL     1      29.372 -22.862 -16.120  0.00  0.00    +0.109 C 
BRANCH  11  13
ATOM     12  O   UNL     1      27.694 -23.877 -17.566  0.00  0.00    -0.250 OA
ATOM     13  C   UNL     1      28.129 -22.895 -16.983  0.00  0.00    +0.314 C 
BRANCH  13  14
ATOM     14  O   UNL     1      27.545 -21.670 -17.058  0.00  0.00    -0.480 OA
ATOM     15  H   UNL     1      26.624 -21.598 -17.221  0.00  0.00    +0.295 HD
ENDBRANCH  13  14
ENDBRANCH  11  13
ENDBRANCH  10  11
ENDBRANCH   9  10
ENDBRANCH   8   9
ENDBRANCH   1   8
BRANCH   1  16
ATOM     16  C   UNL     1      32.745 -22.700 -17.723  0.00  0.00    +0.023 C 
BRANCH  16  17
ATOM     17  C   UNL     1      33.895 -22.802 -18.726  0.00  0.00    +0.056 C 
BRANCH  17  18
ATOM     18  S   UNL     1      34.021 -21.281 -19.713  0.00  0.00    -0.165 S 
BRANCH  18  19
ATOM     19  C   UNL     1      35.822 -21.233 -19.941  0.00  0.00    -0.026 C 
BRANCH  19  20
ATOM     20  N   UNL     1      36.539 -21.007 -18.696  0.00  0.00    +0.387 N 
ATOM     21  H   UNL     1      37.458 -20.614 -18.899  0.00  0.00    -0.088 HD
ATOM     22  H   UNL     1      36.650 -21.893 -18.202  0.00  0.00    -0.088 HD
ATOM     23  H   UNL     1      36.012 -20.356 -18.113  0.00  0.00    -0.088 HD
ENDBRANCH  19  20
ENDBRANCH  18  19
ENDBRANCH  17  18
ENDBRANCH  16  17
ENDBRANCH   1  16
TORSDOF 16
ENDMDL
MODEL 2
REMARK VINA RESULT:      -6.1      6.610      9.277
REMARK  Name = 5289084
REMARK  16 active torsions:
REMARK  status: ('A' for Active; 'I' for Inactive)
REMARK    1  A    between atoms: C_1  and  S_2
REMARK    2  A    between atoms: C_1  and  C_8
REMARK    3  A    between atoms: C_1  and  C_16
REMARK    4  A    between atoms: S_2  and  S_3
REMARK    5  A    between atoms: S_3  and  C_4
REMARK    6  A    between atoms: C_4  and  C_5
REMARK    7  A    between atoms: C_5  and  O_6
REMARK    8  A    between atoms: C_8  and  C_9
REMARK    9  A    between atoms: C_9  and  C_10
REMARK   10  A    between atoms: C_10  and  C_11
REMARK   11  A    between atoms: C_11  and  C_13
REMARK   12  A    between atoms: C_13  and  O_14
REMARK   13  A    between atoms: C_16  and  C_17
REMARK   14  A    between atoms: C_17  and  S_18
REMARK   15  A    between atoms: S_18  and  C_19
REMARK   16  A    between atoms: C_19  and  N_20
REMARK                            x       y       z     vdW  Elec       q    Type
REMARK                         _______ _______ _______ _____ _____    ______ ____
ROOT
ATOM      1  C   UNL     1      35.456 -18.189 -21.659  0.00  0.00    +0.059 C 
ENDROOT
BRANCH   1   2
ATOM      2  S   UNL     1      35.475 -19.841 -20.864  0.00  0.00    -0.083 S 
BRANCH   2   3
ATOM      3  S   UNL     1      33.469 -20.158 -20.572  0.00  0.00    -0.080 S 
BRANCH   3   4
ATOM      4  C   UNL     1      33.478 -21.585 -19.458  0.00  0.00    +0.100 C 
BRANCH   4   5
ATOM      5  C   UNL     1      34.881 -22.147 -19.288  0.00  0.00    +0.150 C 
BRANCH   5   6
ATOM      6  O   UNL     1      35.083 -22.553 -17.941  0.00  0.00    -0.381 OA
ATOM      7  H   UNL     1      35.793 -23.213 -17.905  0.00  0.00    +0.210 HD
ENDBRANCH   5   6
ENDBRANCH   4   5
ENDBRANCH   3   4
ENDBRANCH   2   3
ENDBRANCH   1   2
BRANCH   1   8
ATOM      8  C   UNL     1      35.835 -18.300 -23.148  0.00  0.00    +0.012 C 
BRANCH   8   9
ATOM      9  C   UNL     1      34.868 -19.112 -24.021  0.00  0.00    +0.001 C 
BRANCH   9  10
ATOM     10  C   UNL     1      34.221 -18.224 -25.091  0.00  0.00    +0.012 C 
BRANCH  10  11
ATOM     11  C   UNL     1      34.794 -16.806 -25.099  0.00  0.00    +0.109 C 
BRANCH  11  13
ATOM     12  O   UNL     1      33.310 -14.963 -24.515  0.00  0.00    -0.250 OA
ATOM     13  C   UNL     1      33.748 -15.741 -25.350  0.00  0.00    +0.314 C 
BRANCH  13  14
ATOM     14  O   UNL     1      33.321 -15.760 -26.640  0.00  0.00    -0.480 OA
ATOM     15  H   UNL     1      32.563 -15.269 -26.890  0.00  0.00    +0.295 HD
ENDBRANCH  13  14
ENDBRANCH  11  13
ENDBRANCH  10  11
ENDBRANCH   9  10
ENDBRANCH   8   9
ENDBRANCH   1   8
BRANCH   1  16
ATOM     16  C   UNL     1      34.098 -17.524 -21.368  0.00  0.00    +0.023 C 
BRANCH  16  17
ATOM     17  C   UNL     1      34.200 -16.002 -21.259  0.00  0.00    +0.056 C 
BRANCH  17  18
ATOM     18  S   UNL     1      32.648 -15.299 -20.625  0.00  0.00    -0.165 S 
BRANCH  18  19
ATOM     19  C   UNL     1      32.805 -13.613 -21.282  0.00  0.00    -0.026 C 
BRANCH  19  20
ATOM     20  N   UNL     1      31.947 -13.378 -22.433  0.00  0.00    +0.387 N 
ATOM     21  H   UNL     1      32.047 -14.147 -23.095  0.00  0.00    -0.088 HD
ATOM     22  H   UNL     1      32.216 -12.503 -22.884  0.00  0.00    -0.088 HD
ATOM     23  H   UNL     1      30.976 -13.317 -22.126  0.00  0.00    -0.088 HD
ENDBRANCH  19  20
ENDBRANCH  18  19
ENDBRANCH  17  18
ENDBRANCH  16  17
ENDBRANCH   1  16
TORSDOF 16
ENDMDL
MODEL 3
REMARK VINA RESULT:      -6.1      6.284      9.474
REMARK  Name = 5289084
REMARK  16 active torsions:
REMARK  status: ('A' for Active; 'I' for Inactive)
REMARK    1  A    between atoms: C_1  and  S_2
REMARK    2  A    between atoms: C_1  and  C_8
REMARK    3  A    between atoms: C_1  and  C_16
REMARK    4  A    between atoms: S_2  and  S_3
REMARK    5  A    between atoms: S_3  and  C_4
REMARK    6  A    between atoms: C_4  and  C_5
REMARK    7  A    between atoms: C_5  and  O_6
REMARK    8  A    between atoms: C_8  and  C_9
REMARK    9  A    between atoms: C_9  and  C_10
REMARK   10  A    between atoms: C_10  and  C_11
REMARK   11  A    between atoms: C_11  and  C_13
REMARK   12  A    between atoms: C_13  and  O_14
REMARK   13  A    between atoms: C_16  and  C_17
REMARK   14  A    between atoms: C_17  and  S_18
REMARK   15  A    between atoms: S_18  and  C_19
REMARK   16  A    between atoms: C_19  and  N_20
REMARK                            x       y       z     vdW  Elec       q    Type
REMARK                         _______ _______ _______ _____ _____    ______ ____
ROOT
ATOM      1  C   UNL     1      34.395 -18.131 -21.744  0.00  0.00    +0.059 C 
ENDROOT
BRANCH   1   2
ATOM      2  S   UNL     1      35.629 -18.396 -23.073  0.00  0.00    -0.083 S 
BRANCH   2   3
ATOM      3  S   UNL     1      34.438 -18.288 -24.741  0.00  0.00    -0.080 S 
BRANCH   3   4
ATOM      4  C   UNL     1      34.843 -16.644 -25.379  0.00  0.00    +0.100 C 
BRANCH   4   5
ATOM      5  C   UNL     1      33.606 -15.763 -25.469  0.00  0.00    +0.150 C 
BRANCH   5   6
ATOM      6  O   UNL     1      33.523 -15.169 -26.757  0.00  0.00    -0.381 OA
ATOM      7  H   UNL     1      33.181 -15.818 -27.391  0.00  0.00    +0.210 HD
ENDBRANCH   5   6
ENDBRANCH   4   5
ENDBRANCH   3   4
ENDBRANCH   2   3
ENDBRANCH   1   2
BRANCH   1   8
ATOM      8  C   UNL     1      34.241 -19.400 -20.886  0.00  0.00    +0.012 C 
BRANCH   8   9
ATOM      9  C   UNL     1      35.530 -20.198 -20.642  0.00  0.00    +0.001 C 
BRANCH   9  10
ATOM     10  C   UNL     1      35.298 -21.311 -19.612  0.00  0.00    +0.012 C 
BRANCH  10  11
ATOM     11  C   UNL     1      33.814 -21.527 -19.311  0.00  0.00    +0.109 C 
BRANCH  11  13
ATOM     12  O   UNL     1      33.010 -22.957 -17.509  0.00  0.00    -0.250 OA
ATOM     13  C   UNL     1      33.533 -22.837 -18.607  0.00  0.00    +0.314 C 
BRANCH  13  14
ATOM     14  O   UNL     1      33.959 -23.897 -19.344  0.00  0.00    -0.480 OA
ATOM     15  H   UNL     1      34.863 -23.971 -19.579  0.00  0.00    +0.295 HD
ENDBRANCH  13  14
ENDBRANCH  11  13
ENDBRANCH  10  11
ENDBRANCH   9  10
ENDBRANCH   8   9
ENDBRANCH   1   8
BRANCH   1  16
ATOM     16  C   UNL     1      34.777 -16.852 -20.974  0.00  0.00    +0.023 C 
BRANCH  16  17
ATOM     17  C   UNL     1      34.436 -15.577 -21.747  0.00  0.00    +0.056 C 
BRANCH  17  18
ATOM     18  S   UNL     1      32.754 -15.016 -21.349  0.00  0.00    -0.165 S 
BRANCH  18  19
ATOM     19  C   UNL     1      32.621 -13.641 -22.528  0.00  0.00    -0.026 C 
BRANCH  19  20
ATOM     20  N   UNL     1      31.638 -12.648 -22.123  0.00  0.00    +0.387 N 
ATOM     21  H   UNL     1      31.224 -12.222 -22.952  0.00  0.00    -0.088 HD
ATOM     22  H   UNL     1      32.093 -11.928 -21.562  0.00  0.00    -0.088 HD
ATOM     23  H   UNL     1      30.908 -13.098 -21.571  0.00  0.00    -0.088 HD
ENDBRANCH  19  20
ENDBRANCH  18  19
ENDBRANCH  17  18
ENDBRANCH  16  17
ENDBRANCH   1  16
TORSDOF 16
ENDMDL
MODEL 4
REMARK VINA RESULT:      -6.0      2.880      7.272
REMARK  Name = 5289084
REMARK  16 active torsions:
REMARK  status: ('A' for Active; 'I' for Inactive)
REMARK    1  A    between atoms: C_1  and  S_2
REMARK    2  A    between atoms: C_1  and  C_8
REMARK    3  A    between atoms: C_1  and  C_16
REMARK    4  A    between atoms: S_2  and  S_3
REMARK    5  A    between atoms: S_3  and  C_4
REMARK    6  A    between atoms: C_4  and  C_5
REMARK    7  A    between atoms: C_5  and  O_6
REMARK    8  A    between atoms: C_8  and  C_9
REMARK    9  A    between atoms: C_9  and  C_10
REMARK   10  A    between atoms: C_10  and  C_11
REMARK   11  A    between atoms: C_11  and  C_13
REMARK   12  A    between atoms: C_13  and  O_14
REMARK   13  A    between atoms: C_16  and  C_17
REMARK   14  A    between atoms: C_17  and  S_18
REMARK   15  A    between atoms: S_18  and  C_19
REMARK   16  A    between atoms: C_19  and  N_20
REMARK                            x       y       z     vdW  Elec       q    Type
REMARK                         _______ _______ _______ _____ _____    ______ ____
ROOT
ATOM      1  C   UNL     1      35.545 -23.156 -15.294  0.00  0.00    +0.059 C 
ENDROOT
BRANCH   1   2
ATOM      2  S   UNL     1      34.109 -24.024 -14.556  0.00  0.00    -0.083 S 
BRANCH   2   3
ATOM      3  S   UNL     1      32.601 -23.426 -15.813  0.00  0.00    -0.080 S 
BRANCH   3   4
ATOM      4  C   UNL     1      31.128 -23.829 -14.844  0.00  0.00    +0.100 C 
BRANCH   4   5
ATOM      5  C   UNL     1      31.329 -25.098 -14.030  0.00  0.00    +0.150 C 
BRANCH   5   6
ATOM      6  O   UNL     1      30.734 -24.955 -12.747  0.00  0.00    -0.381 OA
ATOM      7  H   UNL     1      31.187 -24.251 -12.257  0.00  0.00    +0.210 HD
ENDBRANCH   5   6
ENDBRANCH   4   5
ENDBRANCH   3   4
ENDBRANCH   2   3
ENDBRANCH   1   2
BRANCH   1   8
ATOM      8  C   UNL     1      36.840 -23.957 -15.061  0.00  0.00    +0.012 C 
BRANCH   8   9
ATOM      9  C   UNL     1      36.677 -25.483 -15.005  0.00  0.00    +0.001 C 
BRANCH   9  10
ATOM     10  C   UNL     1      37.820 -26.126 -14.210  0.00  0.00    +0.012 C 
BRANCH  10  11
ATOM     11  C   UNL     1      39.081 -25.262 -14.197  0.00  0.00    +0.109 C 
BRANCH  11  13
ATOM     12  O   UNL     1      41.161 -26.527 -14.099  0.00  0.00    -0.250 OA
ATOM     13  C   UNL     1      40.296 -25.969 -14.758  0.00  0.00    +0.314 C 
BRANCH  13  14
ATOM     14  O   UNL     1      40.331 -25.893 -16.115  0.00  0.00    -0.480 OA
ATOM     15  H   UNL     1      41.011 -25.406 -16.539  0.00  0.00    +0.295 HD
ENDBRANCH  13  14
ENDBRANCH  11  13
ENDBRANCH  10  11
ENDBRANCH   9  10
ENDBRANCH   8   9
ENDBRANCH   1   8
BRANCH   1  16
ATOM     16  C   UNL     1      35.218 -22.837 -16.765  0.00  0.00    +0.023 C 
BRANCH  16  17
ATOM     17  C   UNL     1      36.304 -21.998 -17.440  0.00  0.00    +0.056 C 
BRANCH  17  18
ATOM     18  S   UNL     1      35.860 -21.642 -19.166  0.00  0.00    -0.165 S 
BRANCH  18  19
ATOM     19  C   UNL     1      34.213 -22.406 -19.204  0.00  0.00    -0.026 C 
BRANCH  19  20
ATOM     20  N   UNL     1      33.145 -21.429 -19.348  0.00  0.00    +0.387 N 
ATOM     21  H   UNL     1      33.525 -20.562 -19.728  0.00  0.00    -0.088 HD
ATOM     22  H   UNL     1      32.726 -21.245 -18.437  0.00  0.00    -0.088 HD
ATOM     23  H   UNL     1      32.433 -21.795 -19.981  0.00  0.00    -0.088 HD
ENDBRANCH  19  20
ENDBRANCH  18  19
ENDBRANCH  17  18
ENDBRANCH  16  17
ENDBRANCH   1  16
TORSDOF 16
ENDMDL
MODEL 5
REMARK VINA RESULT:      -5.9      9.624     11.752
REMARK  Name = 5289084
REMARK  16 active torsions:
REMARK  status: ('A' for Active; 'I' for Inactive)
REMARK    1  A    between atoms: C_1  and  S_2
REMARK    2  A    between atoms: C_1  and  C_8
REMARK    3  A    between atoms: C_1  and  C_16
REMARK    4  A    between atoms: S_2  and  S_3
REMARK    5  A    between atoms: S_3  and  C_4
REMARK    6  A    between atoms: C_4  and  C_5
REMARK    7  A    between atoms: C_5  and  O_6
REMARK    8  A    between atoms: C_8  and  C_9
REMARK    9  A    between atoms: C_9  and  C_10
REMARK   10  A    between atoms: C_10  and  C_11
REMARK   11  A    between atoms: C_11  and  C_13
REMARK   12  A    between atoms: C_13  and  O_14
REMARK   13  A    between atoms: C_16  and  C_17
REMARK   14  A    between atoms: C_17  and  S_18
REMARK   15  A    between atoms: S_18  and  C_19
REMARK   16  A    between atoms: C_19  and  N_20
REMARK                            x       y       z     vdW  Elec       q    Type
REMARK                         _______ _______ _______ _____ _____    ______ ____
ROOT
ATOM      1  C   UNL     1      32.430 -14.123 -22.240  0.00  0.00    +0.059 C 
ENDROOT
BRANCH   1   2
ATOM      2  S   UNL     1      32.789 -15.131 -20.751  0.00  0.00    -0.083 S 
BRANCH   2   3
ATOM      3  S   UNL     1      34.696 -15.769 -21.159  0.00  0.00    -0.080 S 
BRANCH   3   4
ATOM      4  C   UNL     1      34.456 -17.551 -21.360  0.00  0.00    +0.100 C 
BRANCH   4   5
ATOM      5  C   UNL     1      35.785 -18.287 -21.422  0.00  0.00    +0.150 C 
BRANCH   5   6
ATOM      6  O   UNL     1      36.363 -18.141 -22.713  0.00  0.00    -0.381 OA
ATOM      7  H   UNL     1      36.623 -17.216 -22.848  0.00  0.00    +0.210 HD
ENDBRANCH   5   6
ENDBRANCH   4   5
ENDBRANCH   3   4
ENDBRANCH   2   3
ENDBRANCH   1   2
BRANCH   1   8
ATOM      8  C   UNL     1      32.119 -12.668 -21.847  0.00  0.00    +0.012 C 
BRANCH   8   9
ATOM      9  C   UNL     1      31.875 -12.420 -20.352  0.00  0.00    +0.001 C 
BRANCH   9  10
ATOM     10  C   UNL     1      31.088 -11.122 -20.133  0.00  0.00    +0.012 C 
BRANCH  10  11
ATOM     11  C   UNL     1      31.921 -10.044 -19.439  0.00  0.00    +0.109 C 
BRANCH  11  13
ATOM     12  O   UNL     1      31.982  -8.793 -21.530  0.00  0.00    -0.250 OA
ATOM     13  C   UNL     1      32.256  -8.876 -20.341  0.00  0.00    +0.314 C 
BRANCH  13  14
ATOM     14  O   UNL     1      32.937  -7.910 -19.669  0.00  0.00    -0.480 OA
ATOM     15  H   UNL     1      32.849  -7.836 -18.739  0.00  0.00    +0.295 HD
ENDBRANCH  13  14
ENDBRANCH  11  13
ENDBRANCH  10  11
ENDBRANCH   9  10
ENDBRANCH   8   9
ENDBRANCH   1   8
BRANCH   1  16
ATOM     16  C   UNL     1      33.585 -14.308 -23.242  0.00  0.00    +0.023 C 
BRANCH  16  17
ATOM     17  C   UNL     1      33.215 -13.856 -24.656  0.00  0.00    +0.056 C 
BRANCH  17  18
ATOM     18  S   UNL     1      33.287 -15.254 -25.815  0.00  0.00    -0.165 S 
BRANCH  18  19
ATOM     19  C   UNL     1      34.498 -16.290 -24.946  0.00  0.00    -0.026 C 
BRANCH  19  20
ATOM     20  N   UNL     1      34.276 -17.711 -25.160  0.00  0.00    +0.387 N 
ATOM     21  H   UNL     1      35.174 -18.195 -25.188  0.00  0.00    -0.088 HD
ATOM     22  H   UNL     1      33.787 -17.850 -26.044  0.00  0.00    -0.088 HD
ATOM     23  H   UNL     1      33.711 -18.086 -24.397  0.00  0.00    -0.088 HD
ENDBRANCH  19  20
ENDBRANCH  18  19
ENDBRANCH  17  18
ENDBRANCH  16  17
ENDBRANCH   1  16
TORSDOF 16
ENDMDL
MODEL 6
REMARK VINA RESULT:      -5.9      2.084      2.276
REMARK  Name = 5289084
REMARK  16 active torsions:
REMARK  status: ('A' for Active; 'I' for Inactive)
REMARK    1  A    between atoms: C_1  and  S_2
REMARK    2  A    between atoms: C_1  and  C_8
REMARK    3  A    between atoms: C_1  and  C_16
REMARK    4  A    between atoms: S_2  and  S_3
REMARK    5  A    between atoms: S_3  and  C_4
REMARK    6  A    between atoms: C_4  and  C_5
REMARK    7  A    between atoms: C_5  and  O_6
REMARK    8  A    between atoms: C_8  and  C_9
REMARK    9  A    between atoms: C_9  and  C_10
REMARK   10  A    between atoms: C_10  and  C_11
REMARK   11  A    between atoms: C_11  and  C_13
REMARK   12  A    between atoms: C_13  and  O_14
REMARK   13  A    between atoms: C_16  and  C_17
REMARK   14  A    between atoms: C_17  and  S_18
REMARK   15  A    between atoms: S_18  and  C_19
REMARK   16  A    between atoms: C_19  and  N_20
REMARK                            x       y       z     vdW  Elec       q    Type
REMARK                         _______ _______ _______ _____ _____    ______ ____
ROOT
ATOM      1  C   UNL     1      33.475 -23.614 -16.258  0.00  0.00    +0.059 C 
ENDROOT
BRANCH   1   2
ATOM      2  S   UNL     1      35.121 -23.000 -15.733  0.00  0.00    -0.083 S 
BRANCH   2   3
ATOM      3  S   UNL     1      35.387 -24.039 -13.983  0.00  0.00    -0.080 S 
BRANCH   3   4
ATOM      4  C   UNL     1      36.965 -23.377 -13.395  0.00  0.00    +0.100 C 
BRANCH   4   5
ATOM      5  C   UNL     1      37.124 -23.572 -11.895  0.00  0.00    +0.150 C 
BRANCH   5   6
ATOM      6  O   UNL     1      37.385 -22.323 -11.266  0.00  0.00    -0.381 OA
ATOM      7  H   UNL     1      37.095 -21.603 -11.847  0.00  0.00    +0.210 HD
ENDBRANCH   5   6
ENDBRANCH   4   5
ENDBRANCH   3   4
ENDBRANCH   2   3
ENDBRANCH   1   2
BRANCH   1   8
ATOM      8  C   UNL     1      32.398 -23.224 -15.229  0.00  0.00    +0.012 C 
BRANCH   8   9
ATOM      9  C   UNL     1      31.173 -24.146 -15.167  0.00  0.00    +0.001 C 
BRANCH   9  10
ATOM     10  C   UNL     1      29.913 -23.357 -14.791  0.00  0.00    +0.012 C 
BRANCH  10  11
ATOM     11  C   UNL     1      28.664 -23.876 -15.505  0.00  0.00    +0.109 C 
BRANCH  11  13
ATOM     12  O   UNL     1      28.701 -21.999 -17.059  0.00  0.00    -0.250 OA
ATOM     13  C   UNL     1      28.370 -23.146 -16.799  0.00  0.00    +0.314 C 
BRANCH  13  14
ATOM     14  O   UNL     1      27.656 -23.923 -17.655  0.00  0.00    -0.480 OA
ATOM     15  H   UNL     1      28.003 -24.745 -17.943  0.00  0.00    +0.295 HD
ENDBRANCH  13  14
ENDBRANCH  11  13
ENDBRANCH  10  11
ENDBRANCH   9  10
ENDBRANCH   8   9
ENDBRANCH   1   8
BRANCH   1  16
ATOM     16  C   UNL     1      33.217 -23.139 -17.700  0.00  0.00    +0.023 C 
BRANCH  16  17
ATOM     17  C   UNL     1      34.424 -22.422 -18.308  0.00  0.00    +0.056 C 
BRANCH  17  18
ATOM     18  S   UNL     1      33.907 -21.345 -19.678  0.00  0.00    -0.165 S 
BRANCH  18  19
ATOM     19  C   UNL     1      35.532 -20.703 -20.170  0.00  0.00    -0.026 C 
BRANCH  19  20
ATOM     20  N   UNL     1      36.518 -20.794 -19.105  0.00  0.00    +0.387 N 
ATOM     21  H   UNL     1      36.576 -19.900 -18.617  0.00  0.00    -0.088 HD
ATOM     22  H   UNL     1      37.429 -21.024 -19.502  0.00  0.00    -0.088 HD
ATOM     23  H   UNL     1      36.241 -21.523 -18.446  0.00  0.00    -0.088 HD
ENDBRANCH  19  20
ENDBRANCH  18  19
ENDBRANCH  17  18
ENDBRANCH  16  17
ENDBRANCH   1  16
TORSDOF 16
ENDMDL
MODEL 7
REMARK VINA RESULT:      -5.9      9.627     12.564
REMARK  Name = 5289084
REMARK  16 active torsions:
REMARK  status: ('A' for Active; 'I' for Inactive)
REMARK    1  A    between atoms: C_1  and  S_2
REMARK    2  A    between atoms: C_1  and  C_8
REMARK    3  A    between atoms: C_1  and  C_16
REMARK    4  A    between atoms: S_2  and  S_3
REMARK    5  A    between atoms: S_3  and  C_4
REMARK    6  A    between atoms: C_4  and  C_5
REMARK    7  A    between atoms: C_5  and  O_6
REMARK    8  A    between atoms: C_8  and  C_9
REMARK    9  A    between atoms: C_9  and  C_10
REMARK   10  A    between atoms: C_10  and  C_11
REMARK   11  A    between atoms: C_11  and  C_13
REMARK   12  A    between atoms: C_13  and  O_14
REMARK   13  A    between atoms: C_16  and  C_17
REMARK   14  A    between atoms: C_17  and  S_18
REMARK   15  A    between atoms: S_18  and  C_19
REMARK   16  A    between atoms: C_19  and  N_20
REMARK                            x       y       z     vdW  Elec       q    Type
REMARK                         _______ _______ _______ _____ _____    ______ ____
ROOT
ATOM      1  C   UNL     1      32.249 -13.836 -22.179  0.00  0.00    +0.059 C 
ENDROOT
BRANCH   1   2
ATOM      2  S   UNL     1      33.294 -13.331 -23.599  0.00  0.00    -0.083 S 
BRANCH   2   3
ATOM      3  S   UNL     1      33.726 -15.154 -24.436  0.00  0.00    -0.080 S 
BRANCH   3   4
ATOM      4  C   UNL     1      33.011 -14.981 -26.089  0.00  0.00    +0.100 C 
BRANCH   4   5
ATOM      5  C   UNL     1      33.188 -13.568 -26.625  0.00  0.00    +0.150 C 
BRANCH   5   6
ATOM      6  O   UNL     1      33.932 -13.596 -27.837  0.00  0.00    -0.381 OA
ATOM      7  H   UNL     1      33.573 -14.282 -28.421  0.00  0.00    +0.210 HD
ENDBRANCH   5   6
ENDBRANCH   4   5
ENDBRANCH   3   4
ENDBRANCH   2   3
ENDBRANCH   1   2
BRANCH   1   8
ATOM      8  C   UNL     1      32.630 -15.250 -21.703  0.00  0.00    +0.012 C 
BRANCH   8   9
ATOM      9  C   UNL     1      33.490 -15.315 -20.433  0.00  0.00    +0.001 C 
BRANCH   9  10
ATOM     10  C   UNL     1      34.800 -16.067 -20.698  0.00  0.00    +0.012 C 
BRANCH  10  11
ATOM     11  C   UNL     1      34.571 -17.418 -21.377  0.00  0.00    +0.109 C 
BRANCH  11  13
ATOM     12  O   UNL     1      36.348 -18.903 -20.617  0.00  0.00    -0.250 OA
ATOM     13  C   UNL     1      35.834 -18.243 -21.508  0.00  0.00    +0.314 C 
BRANCH  13  14
ATOM     14  O   UNL     1      36.361 -18.147 -22.757  0.00  0.00    -0.480 OA
ATOM     15  H   UNL     1      35.895 -17.686 -23.428  0.00  0.00    +0.295 HD
ENDBRANCH  13  14
ENDBRANCH  11  13
ENDBRANCH  10  11
ENDBRANCH   9  10
ENDBRANCH   8   9
ENDBRANCH   1   8
BRANCH   1  16
ATOM     16  C   UNL     1      32.320 -12.733 -21.106  0.00  0.00    +0.023 C 
BRANCH  16  17
ATOM     17  C   UNL     1      31.574 -11.463 -21.519  0.00  0.00    +0.056 C 
BRANCH  17  18
ATOM     18  S   UNL     1      31.353 -10.356 -20.094  0.00  0.00    -0.165 S 
BRANCH  18  19
ATOM     19  C   UNL     1      32.167  -8.872 -20.752  0.00  0.00    -0.026 C 
BRANCH  19  20
ATOM     20  N   UNL     1      32.870  -8.117 -19.726  0.00  0.00    +0.387 N 
ATOM     21  H   UNL     1      33.785  -7.835 -20.078  0.00  0.00    -0.088 HD
ATOM     22  H   UNL     1      32.990  -8.699 -18.897  0.00  0.00    -0.088 HD
ATOM     23  H   UNL     1      32.328  -7.288 -19.483  0.00  0.00    -0.088 HD
ENDBRANCH  19  20
ENDBRANCH  18  19
ENDBRANCH  17  18
ENDBRANCH  16  17
ENDBRANCH   1  16
TORSDOF 16
ENDMDL
MODEL 8
REMARK VINA RESULT:      -5.8      9.879     12.492
REMARK  Name = 5289084
REMARK  16 active torsions:
REMARK  status: ('A' for Active; 'I' for Inactive)
REMARK    1  A    between atoms: C_1  and  S_2
REMARK    2  A    between atoms: C_1  and  C_8
REMARK    3  A    between atoms: C_1  and  C_16
REMARK    4  A    between atoms: S_2  and  S_3
REMARK    5  A    between atoms: S_3  and  C_4
REMARK    6  A    between atoms: C_4  and  C_5
REMARK    7  A    between atoms: C_5  and  O_6
REMARK    8  A    between atoms: C_8  and  C_9
REMARK    9  A    between atoms: C_9  and  C_10
REMARK   10  A    between atoms: C_10  and  C_11
REMARK   11  A    between atoms: C_11  and  C_13
REMARK   12  A    between atoms: C_13  and  O_14
REMARK   13  A    between atoms: C_16  and  C_17
REMARK   14  A    between atoms: C_17  and  S_18
REMARK   15  A    between atoms: S_18  and  C_19
REMARK   16  A    between atoms: C_19  and  N_20
REMARK                            x       y       z     vdW  Elec       q    Type
REMARK                         _______ _______ _______ _____ _____    ______ ____
ROOT
ATOM      1  C   UNL     1      34.046 -14.565 -21.716  0.00  0.00    +0.059 C 
ENDROOT
BRANCH   1   2
ATOM      2  S   UNL     1      34.366 -15.035 -23.459  0.00  0.00    -0.083 S 
BRANCH   2   3
ATOM      3  S   UNL     1      33.133 -13.728 -24.450  0.00  0.00    -0.080 S 
BRANCH   3   4
ATOM      4  C   UNL     1      33.119 -14.426 -26.120  0.00  0.00    +0.100 C 
BRANCH   4   5
ATOM      5  C   UNL     1      33.103 -13.334 -27.178  0.00  0.00    +0.150 C 
BRANCH   5   6
ATOM      6  O   UNL     1      34.245 -13.452 -28.018  0.00  0.00    -0.381 OA
ATOM      7  H   UNL     1      35.033 -13.158 -27.535  0.00  0.00    +0.210 HD
ENDBRANCH   5   6
ENDBRANCH   4   5
ENDBRANCH   3   4
ENDBRANCH   2   3
ENDBRANCH   1   2
BRANCH   1   8
ATOM      8  C   UNL     1      32.565 -14.193 -21.519  0.00  0.00    +0.012 C 
BRANCH   8   9
ATOM      9  C   UNL     1      32.278 -13.173 -20.408  0.00  0.00    +0.001 C 
BRANCH   9  10
ATOM     10  C   UNL     1      31.534 -11.953 -20.964  0.00  0.00    +0.012 C 
BRANCH  10  11
ATOM     11  C   UNL     1      31.354 -10.852 -19.918  0.00  0.00    +0.109 C 
BRANCH  11  13
ATOM     12  O   UNL     1      31.787  -9.001 -21.443  0.00  0.00    -0.250 OA
ATOM     13  C   UNL     1      31.934  -9.521 -20.346  0.00  0.00    +0.314 C 
BRANCH  13  14
ATOM     14  O   UNL     1      32.677  -8.963 -19.355  0.00  0.00    -0.480 OA
ATOM     15  H   UNL     1      32.324  -8.261 -18.843  0.00  0.00    +0.295 HD
ENDBRANCH  13  14
ENDBRANCH  11  13
ENDBRANCH  10  11
ENDBRANCH   9  10
ENDBRANCH   8   9
ENDBRANCH   1   8
BRANCH   1  16
ATOM     16  C   UNL     1      34.576 -15.688 -20.804  0.00  0.00    +0.023 C 
BRANCH  16  17
ATOM     17  C   UNL     1      34.104 -17.075 -21.246  0.00  0.00    +0.056 C 
BRANCH  17  18
ATOM     18  S   UNL     1      35.506 -18.227 -21.345  0.00  0.00    -0.165 S 
BRANCH  18  19
ATOM     19  C   UNL     1      34.866 -19.352 -22.619  0.00  0.00    -0.026 C 
BRANCH  19  20
ATOM     20  N   UNL     1      34.837 -18.744 -23.940  0.00  0.00    +0.387 N 
ATOM     21  H   UNL     1      33.999 -19.048 -24.437  0.00  0.00    -0.088 HD
ATOM     22  H   UNL     1      35.664 -19.030 -24.465  0.00  0.00    -0.088 HD
ATOM     23  H   UNL     1      34.828 -17.728 -23.847  0.00  0.00    -0.088 HD
ENDBRANCH  19  20
ENDBRANCH  18  19
ENDBRANCH  17  18
ENDBRANCH  16  17
ENDBRANCH   1  16
TORSDOF 16
ENDMDL
MODEL 9
REMARK VINA RESULT:      -5.8      7.294     10.559
REMARK  Name = 5289084
REMARK  16 active torsions:
REMARK  status: ('A' for Active; 'I' for Inactive)
REMARK    1  A    between atoms: C_1  and  S_2
REMARK    2  A    between atoms: C_1  and  C_8
REMARK    3  A    between atoms: C_1  and  C_16
REMARK    4  A    between atoms: S_2  and  S_3
REMARK    5  A    between atoms: S_3  and  C_4
REMARK    6  A    between atoms: C_4  and  C_5
REMARK    7  A    between atoms: C_5  and  O_6
REMARK    8  A    between atoms: C_8  and  C_9
REMARK    9  A    between atoms: C_9  and  C_10
REMARK   10  A    between atoms: C_10  and  C_11
REMARK   11  A    between atoms: C_11  and  C_13
REMARK   12  A    between atoms: C_13  and  O_14
REMARK   13  A    between atoms: C_16  and  C_17
REMARK   14  A    between atoms: C_17  and  S_18
REMARK   15  A    between atoms: S_18  and  C_19
REMARK   16  A    between atoms: C_19  and  N_20
REMARK                            x       y       z     vdW  Elec       q    Type
REMARK                         _______ _______ _______ _____ _____    ______ ____
ROOT
ATOM      1  C   UNL     1      35.486 -17.667 -21.625  0.00  0.00    +0.059 C 
ENDROOT
BRANCH   1   2
ATOM      2  S   UNL     1      35.061 -18.053 -23.367  0.00  0.00    -0.083 S 
BRANCH   2   3
ATOM      3  S   UNL     1      34.945 -16.168 -24.169  0.00  0.00    -0.080 S 
BRANCH   3   4
ATOM      4  C   UNL     1      33.761 -16.410 -25.515  0.00  0.00    +0.100 C 
BRANCH   4   5
ATOM      5  C   UNL     1      33.115 -15.097 -25.930  0.00  0.00    +0.150 C 
BRANCH   5   6
ATOM      6  O   UNL     1      33.656 -14.658 -27.169  0.00  0.00    -0.381 OA
ATOM      7  H   UNL     1      33.336 -13.763 -27.362  0.00  0.00    +0.210 HD
ENDBRANCH   5   6
ENDBRANCH   4   5
ENDBRANCH   3   4
ENDBRANCH   2   3
ENDBRANCH   1   2
BRANCH   1   8
ATOM      8  C   UNL     1      34.298 -16.993 -20.915  0.00  0.00    +0.012 C 
BRANCH   8   9
ATOM      9  C   UNL     1      34.501 -15.521 -20.530  0.00  0.00    +0.001 C 
BRANCH   9  10
ATOM     10  C   UNL     1      33.159 -14.783 -20.462  0.00  0.00    +0.012 C 
BRANCH  10  11
ATOM     11  C   UNL     1      32.473 -14.693 -21.826  0.00  0.00    +0.109 C 
BRANCH  11  13
ATOM     12  O   UNL     1      33.366 -12.901 -23.213  0.00  0.00    -0.250 OA
ATOM     13  C   UNL     1      32.521 -13.306 -22.429  0.00  0.00    +0.314 C 
BRANCH  13  14
ATOM     14  O   UNL     1      31.503 -12.531 -21.971  0.00  0.00    -0.480 OA
ATOM     15  H   UNL     1      30.776 -12.925 -21.529  0.00  0.00    +0.295 HD
ENDBRANCH  13  14
ENDBRANCH  11  13
ENDBRANCH  10  11
ENDBRANCH   9  10
ENDBRANCH   8   9
ENDBRANCH   1   8
BRANCH   1  16
ATOM     16  C   UNL     1      36.017 -18.950 -20.959  0.00  0.00    +0.023 C 
BRANCH  16  17
ATOM     17  C   UNL     1      34.968 -20.062 -20.905  0.00  0.00    +0.056 C 
BRANCH  17  18
ATOM     18  S   UNL     1      35.430 -21.322 -19.679  0.00  0.00    -0.165 S 
BRANCH  18  19
ATOM     19  C   UNL     1      33.771 -21.878 -19.195  0.00  0.00    -0.026 C 
BRANCH  19  20
ATOM     20  N   UNL     1      32.727 -20.955 -19.612  0.00  0.00    +0.387 N 
ATOM     21  H   UNL     1      32.153 -21.393 -20.333  0.00  0.00    -0.088 HD
ATOM     22  H   UNL     1      33.152 -20.106 -19.986  0.00  0.00    -0.088 HD
ATOM     23  H   UNL     1      32.143 -20.717 -18.810  0.00  0.00    -0.088 HD
ENDBRANCH  19  20
ENDBRANCH  18  19
ENDBRANCH  17  18
ENDBRANCH  16  17
ENDBRANCH   1  16
TORSDOF 16
ENDMDL
