MODEL 1
REMARK VINA RESULT:      -8.4      0.000      0.000
REMARK  Name = 2771
REMARK  6 active torsions:
REMARK  status: ('A' for Active; 'I' for Inactive)
REMARK    1  A    between atoms: C_2  and  C_11
REMARK    2  A    between atoms: C_2  and  C_19
REMARK    3  A    between atoms: C_9  and  C_18
REMARK    4  A    between atoms: C_19  and  C_20
REMARK    5  A    between atoms: C_20  and  C_21
REMARK    6  A    between atoms: C_21  and  N_22
REMARK                            x       y       z     vdW  Elec       q    Type
REMARK                         _______ _______ _______ _____ _____    ______ ____
ROOT
ATOM      1  O   UNL     1      34.185  -8.787 -22.974  0.00  0.00    -0.346 OA
ATOM      2  C   UNL     1      32.784  -9.176 -23.142  0.00  0.00    +0.130 C 
ATOM      3  C   UNL     1      32.110  -7.910 -23.585  0.00  0.00    +0.004 C 
ATOM      4  C   UNL     1      33.059  -6.913 -23.762  0.00  0.00    +0.006 C 
ATOM      5  C   UNL     1      34.408  -7.445 -23.466  0.00  0.00    +0.169 C 
ATOM      6  C   UNL     1      30.765  -7.663 -23.822  0.00  0.00    -0.001 C 
ATOM      7  C   UNL     1      32.700  -5.642 -24.176  0.00  0.00    +0.008 C 
ATOM      8  C   UNL     1      30.387  -6.385 -24.237  0.00  0.00    +0.010 C 
ATOM      9  C   UNL     1      31.349  -5.380 -24.412  0.00  0.00    +0.068 C 
ENDROOT
BRANCH   2  11
ATOM     10  F   UNL     1      30.978 -10.986 -18.138  0.00  0.00    -0.204 F 
ATOM     11  C   UNL     1      32.304  -9.657 -21.813  0.00  0.00    +0.006 C 
ATOM     12  C   UNL     1      32.424  -8.837 -20.692  0.00  0.00    +0.001 C 
ATOM     13  C   UNL     1      31.737 -10.925 -21.695  0.00  0.00    +0.001 C 
ATOM     14  C   UNL     1      31.976  -9.287 -19.450  0.00  0.00    +0.029 C 
ATOM     15  C   UNL     1      31.288 -11.375 -20.453  0.00  0.00    +0.029 C 
ATOM     16  C   UNL     1      31.408 -10.555 -19.330  0.00  0.00    +0.140 C 
ENDBRANCH   2  11
BRANCH   9  18
ATOM     17  N   UNL     1      30.613  -3.020 -25.187  0.00  0.00    -0.191 NA
ATOM     18  C   UNL     1      30.943  -4.077 -24.840  0.00  0.00    +0.100 C 
ENDBRANCH   9  18
BRANCH   2  19
ATOM     19  C   UNL     1      32.713 -10.283 -24.187  0.00  0.00    +0.034 C 
BRANCH  19  20
ATOM     20  C   UNL     1      34.052 -11.005 -24.327  0.00  0.00    -0.020 C 
BRANCH  20  21
ATOM     21  C   UNL     1      33.923 -12.233 -25.226  0.00  0.00    -0.077 C 
BRANCH  21  22
ATOM     22  N   UNL     1      33.237 -13.309 -24.520  0.00  0.00    +0.384 N 
ATOM     23  C   UNL     1      33.979 -13.693 -23.319  0.00  0.00    -0.101 C 
ATOM     24  C   UNL     1      33.054 -14.466 -25.396  0.00  0.00    -0.101 C 
ATOM     25  H   UNL     1      32.318 -12.968 -24.237  0.00  0.00    -0.080 HD
ENDBRANCH  21  22
ENDBRANCH  20  21
ENDBRANCH  19  20
ENDBRANCH   2  19
TORSDOF 6
ENDMDL
MODEL 2
REMARK VINA RESULT:      -7.9      6.296     11.472
REMARK  Name = 2771
REMARK  6 active torsions:
REMARK  status: ('A' for Active; 'I' for Inactive)
REMARK    1  A    between atoms: C_2  and  C_11
REMARK    2  A    between atoms: C_2  and  C_19
REMARK    3  A    between atoms: C_9  and  C_18
REMARK    4  A    between atoms: C_19  and  C_20
REMARK    5  A    between atoms: C_20  and  C_21
REMARK    6  A    between atoms: C_21  and  N_22
REMARK                            x       y       z     vdW  Elec       q    Type
REMARK                         _______ _______ _______ _____ _____    ______ ____
ROOT
ATOM      1  O   UNL     1      36.668 -17.979 -21.722  0.00  0.00    -0.346 OA
ATOM      2  C   UNL     1      35.233 -17.716 -21.607  0.00  0.00    +0.130 C 
ATOM      3  C   UNL     1      34.686 -18.968 -20.986  0.00  0.00    +0.004 C 
ATOM      4  C   UNL     1      35.729 -19.828 -20.672  0.00  0.00    +0.006 C 
ATOM      5  C   UNL     1      37.020 -19.208 -21.045  0.00  0.00    +0.169 C 
ATOM      6  C   UNL     1      33.371 -19.315 -20.712  0.00  0.00    -0.001 C 
ATOM      7  C   UNL     1      35.496 -21.057 -20.080  0.00  0.00    +0.008 C 
ATOM      8  C   UNL     1      33.119 -20.553 -20.119  0.00  0.00    +0.010 C 
ATOM      9  C   UNL     1      34.176 -21.420 -19.805  0.00  0.00    +0.068 C 
ENDROOT
BRANCH   2  11
ATOM     10  F   UNL     1      33.307 -16.825 -26.810  0.00  0.00    -0.204 F 
ATOM     11  C   UNL     1      34.722 -17.479 -22.989  0.00  0.00    +0.006 C 
ATOM     12  C   UNL     1      34.548 -16.176 -23.453  0.00  0.00    +0.001 C 
ATOM     13  C   UNL     1      34.418 -18.561 -23.814  0.00  0.00    +0.001 C 
ATOM     14  C   UNL     1      34.069 -15.955 -24.745  0.00  0.00    +0.029 C 
ATOM     15  C   UNL     1      33.941 -18.341 -25.106  0.00  0.00    +0.029 C 
ATOM     16  C   UNL     1      33.766 -17.037 -25.571  0.00  0.00    +0.140 C 
ENDBRANCH   2  11
BRANCH   9  18
ATOM     17  N   UNL     1      33.676 -23.710 -18.700  0.00  0.00    -0.191 NA
ATOM     18  C   UNL     1      33.900 -22.683 -19.195  0.00  0.00    +0.100 C 
ENDBRANCH   9  18
BRANCH   2  19
ATOM     19  C   UNL     1      35.037 -16.485 -20.730  0.00  0.00    +0.034 C 
BRANCH  19  20
ATOM     20  C   UNL     1      33.624 -15.922 -20.867  0.00  0.00    -0.020 C 
BRANCH  20  21
ATOM     21  C   UNL     1      33.618 -14.403 -20.705  0.00  0.00    -0.077 C 
BRANCH  21  22
ATOM     22  N   UNL     1      32.341 -13.851 -21.141  0.00  0.00    +0.384 N 
ATOM     23  C   UNL     1      32.384 -13.516 -22.565  0.00  0.00    -0.101 C 
ATOM     24  C   UNL     1      31.993 -12.670 -20.352  0.00  0.00    -0.101 C 
ATOM     25  H   UNL     1      31.623 -14.561 -20.998  0.00  0.00    -0.080 HD
ENDBRANCH  21  22
ENDBRANCH  20  21
ENDBRANCH  19  20
ENDBRANCH   2  19
TORSDOF 6
ENDMDL
MODEL 3
REMARK VINA RESULT:      -7.7     14.910     18.341
REMARK  Name = 2771
REMARK  6 active torsions:
REMARK  status: ('A' for Active; 'I' for Inactive)
REMARK    1  A    between atoms: C_2  and  C_11
REMARK    2  A    between atoms: C_2  and  C_19
REMARK    3  A    between atoms: C_9  and  C_18
REMARK    4  A    between atoms: C_19  and  C_20
REMARK    5  A    between atoms: C_20  and  C_21
REMARK    6  A    between atoms: C_21  and  N_22
REMARK                            x       y       z     vdW  Elec       q    Type
REMARK                         _______ _______ _______ _____ _____    ______ ____
ROOT
ATOM      1  O   UNL     1      35.466 -22.813 -13.848  0.00  0.00    -0.346 OA
ATOM      2  C   UNL     1      35.235 -23.926 -14.770  0.00  0.00    +0.130 C 
ATOM      3  C   UNL     1      36.514 -24.710 -14.714  0.00  0.00    +0.004 C 
ATOM      4  C   UNL     1      37.360 -24.158 -13.762  0.00  0.00    +0.006 C 
ATOM      5  C   UNL     1      36.704 -22.995 -13.123  0.00  0.00    +0.169 C 
ATOM      6  C   UNL     1      36.895 -25.829 -15.441  0.00  0.00    -0.001 C 
ATOM      7  C   UNL     1      38.608 -24.698 -13.507  0.00  0.00    +0.008 C 
ATOM      8  C   UNL     1      38.153 -26.384 -15.197  0.00  0.00    +0.010 C 
ATOM      9  C   UNL     1      39.005 -25.820 -14.236  0.00  0.00    +0.068 C 
ENDROOT
BRANCH   2  11
ATOM     10  F   UNL     1      34.254 -21.689 -19.831  0.00  0.00    -0.204 F 
ATOM     11  C   UNL     1      34.975 -23.332 -16.114  0.00  0.00    +0.006 C 
ATOM     12  C   UNL     1      33.759 -23.566 -16.755  0.00  0.00    +0.001 C 
ATOM     13  C   UNL     1      35.947 -22.543 -16.727  0.00  0.00    +0.001 C 
ATOM     14  C   UNL     1      33.516 -23.011 -18.011  0.00  0.00    +0.029 C 
ATOM     15  C   UNL     1      35.704 -21.987 -17.983  0.00  0.00    +0.029 C 
ATOM     16  C   UNL     1      34.487 -22.222 -18.625  0.00  0.00    +0.140 C 
ENDBRANCH   2  11
BRANCH   9  18
ATOM     17  N   UNL     1      41.331 -26.877 -13.805  0.00  0.00    -0.191 NA
ATOM     18  C   UNL     1      40.289 -26.403 -13.999  0.00  0.00    +0.100 C 
ENDBRANCH   9  18
BRANCH   2  19
ATOM     19  C   UNL     1      34.031 -24.719 -14.276  0.00  0.00    +0.034 C 
BRANCH  19  20
ATOM     20  C   UNL     1      33.043 -23.825 -13.530  0.00  0.00    -0.020 C 
BRANCH  20  21
ATOM     21  C   UNL     1      31.656 -24.464 -13.475  0.00  0.00    -0.077 C 
BRANCH  21  22
ATOM     22  N   UNL     1      30.991 -24.343 -14.767  0.00  0.00    +0.384 N 
ATOM     23  C   UNL     1      30.321 -23.047 -14.882  0.00  0.00    -0.101 C 
ATOM     24  C   UNL     1      30.030 -25.430 -14.957  0.00  0.00    -0.101 C 
ATOM     25  H   UNL     1      31.700 -24.406 -15.497  0.00  0.00    -0.080 HD
ENDBRANCH  21  22
ENDBRANCH  20  21
ENDBRANCH  19  20
ENDBRANCH   2  19
TORSDOF 6
ENDMDL
MODEL 4
REMARK VINA RESULT:      -7.5     15.676     17.871
REMARK  Name = 2771
REMARK  6 active torsions:
REMARK  status: ('A' for Active; 'I' for Inactive)
REMARK    1  A    between atoms: C_2  and  C_11
REMARK    2  A    between atoms: C_2  and  C_19
REMARK    3  A    between atoms: C_9  and  C_18
REMARK    4  A    between atoms: C_19  and  C_20
REMARK    5  A    between atoms: C_20  and  C_21
REMARK    6  A    between atoms: C_21  and  N_22
REMARK                            x       y       z     vdW  Elec       q    Type
REMARK                         _______ _______ _______ _____ _____    ______ ____
ROOT
ATOM      1  O   UNL     1      35.887 -23.659 -15.917  0.00  0.00    -0.346 OA
ATOM      2  C   UNL     1      35.156 -24.478 -14.949  0.00  0.00    +0.130 C 
ATOM      3  C   UNL     1      33.716 -24.135 -15.202  0.00  0.00    +0.004 C 
ATOM      4  C   UNL     1      33.625 -23.280 -16.292  0.00  0.00    +0.006 C 
ATOM      5  C   UNL     1      34.975 -23.012 -16.835  0.00  0.00    +0.169 C 
ATOM      6  C   UNL     1      32.578 -24.554 -14.528  0.00  0.00    -0.001 C 
ATOM      7  C   UNL     1      32.401 -22.814 -16.741  0.00  0.00    +0.008 C 
ATOM      8  C   UNL     1      31.337 -24.090 -14.968  0.00  0.00    +0.010 C 
ATOM      9  C   UNL     1      31.249 -23.224 -16.067  0.00  0.00    +0.068 C 
ENDROOT
BRANCH   2  11
ATOM     10  F   UNL     1      36.909 -22.934  -9.838  0.00  0.00    -0.204 F 
ATOM     11  C   UNL     1      35.622 -24.068 -13.592  0.00  0.00    +0.006 C 
ATOM     12  C   UNL     1      35.067 -24.659 -12.458  0.00  0.00    +0.001 C 
ATOM     13  C   UNL     1      36.611 -23.095 -13.460  0.00  0.00    +0.001 C 
ATOM     14  C   UNL     1      35.502 -24.276 -11.189  0.00  0.00    +0.029 C 
ATOM     15  C   UNL     1      37.047 -22.712 -12.191  0.00  0.00    +0.029 C 
ATOM     16  C   UNL     1      36.492 -23.303 -11.056  0.00  0.00    +0.140 C 
ENDBRANCH   2  11
BRANCH   9  18
ATOM     17  N   UNL     1      28.929 -22.385 -16.859  0.00  0.00    -0.191 NA
ATOM     18  C   UNL     1      29.969 -22.761 -16.504  0.00  0.00    +0.100 C 
ENDBRANCH   9  18
BRANCH   2  19
ATOM     19  C   UNL     1      35.473 -25.944 -15.220  0.00  0.00    +0.034 C 
BRANCH  19  20
ATOM     20  C   UNL     1      36.970 -26.160 -15.435  0.00  0.00    -0.020 C 
BRANCH  20  21
ATOM     21  C   UNL     1      37.584 -26.941 -14.275  0.00  0.00    -0.077 C 
BRANCH  21  22
ATOM     22  N   UNL     1      38.854 -26.345 -13.877  0.00  0.00    +0.384 N 
ATOM     23  C   UNL     1      38.749 -25.750 -12.544  0.00  0.00    -0.101 C 
ATOM     24  C   UNL     1      39.278 -25.338 -14.850  0.00  0.00    -0.101 C 
ATOM     25  H   UNL     1      39.556 -27.083 -13.847  0.00  0.00    -0.080 HD
ENDBRANCH  21  22
ENDBRANCH  20  21
ENDBRANCH  19  20
ENDBRANCH   2  19
TORSDOF 6
ENDMDL
MODEL 5
REMARK VINA RESULT:      -7.4     13.212     16.342
REMARK  Name = 2771
REMARK  6 active torsions:
REMARK  status: ('A' for Active; 'I' for Inactive)
REMARK    1  A    between atoms: C_2  and  C_11
REMARK    2  A    between atoms: C_2  and  C_19
REMARK    3  A    between atoms: C_9  and  C_18
REMARK    4  A    between atoms: C_19  and  C_20
REMARK    5  A    between atoms: C_20  and  C_21
REMARK    6  A    between atoms: C_21  and  N_22
REMARK                            x       y       z     vdW  Elec       q    Type
REMARK                         _______ _______ _______ _____ _____    ______ ____
ROOT
ATOM      1  O   UNL     1      35.618 -23.143 -14.775  0.00  0.00    -0.346 OA
ATOM      2  C   UNL     1      34.757 -23.671 -15.834  0.00  0.00    +0.130 C 
ATOM      3  C   UNL     1      35.155 -22.882 -17.047  0.00  0.00    +0.004 C 
ATOM      4  C   UNL     1      36.224 -22.054 -16.736  0.00  0.00    +0.006 C 
ATOM      5  C   UNL     1      36.611 -22.244 -15.321  0.00  0.00    +0.169 C 
ATOM      6  C   UNL     1      34.620 -22.903 -18.327  0.00  0.00    -0.001 C 
ATOM      7  C   UNL     1      36.790 -21.221 -17.686  0.00  0.00    +0.008 C 
ATOM      8  C   UNL     1      35.178 -22.066 -19.295  0.00  0.00    +0.010 C 
ATOM      9  C   UNL     1      36.257 -21.229 -18.976  0.00  0.00    +0.068 C 
ENDROOT
BRANCH   2  11
ATOM     10  F   UNL     1      29.448 -22.732 -14.251  0.00  0.00    -0.204 F 
ATOM     11  C   UNL     1      33.347 -23.422 -15.414  0.00  0.00    +0.006 C 
ATOM     12  C   UNL     1      33.025 -23.360 -14.058  0.00  0.00    +0.001 C 
ATOM     13  C   UNL     1      32.353 -23.251 -16.376  0.00  0.00    +0.001 C 
ATOM     14  C   UNL     1      31.708 -23.127 -13.666  0.00  0.00    +0.029 C 
ATOM     15  C   UNL     1      31.035 -23.017 -15.984  0.00  0.00    +0.029 C 
ATOM     16  C   UNL     1      30.713 -22.955 -14.628  0.00  0.00    +0.140 C 
ENDBRANCH   2  11
BRANCH   9  18
ATOM     17  N   UNL     1      37.271 -19.690 -20.796  0.00  0.00    -0.191 NA
ATOM     18  C   UNL     1      36.817 -20.380 -19.981  0.00  0.00    +0.100 C 
ENDBRANCH   9  18
BRANCH   2  19
ATOM     19  C   UNL     1      35.032 -25.163 -15.980  0.00  0.00    +0.034 C 
BRANCH  19  20
ATOM     20  C   UNL     1      35.796 -25.709 -14.775  0.00  0.00    -0.020 C 
BRANCH  20  21
ATOM     21  C   UNL     1      36.991 -26.552 -15.218  0.00  0.00    -0.077 C 
BRANCH  21  22
ATOM     22  N   UNL     1      37.978 -26.634 -14.149  0.00  0.00    +0.384 N 
ATOM     23  C   UNL     1      37.399 -26.196 -12.877  0.00  0.00    -0.101 C 
ATOM     24  C   UNL     1      39.158 -25.832 -14.473  0.00  0.00    -0.101 C 
ATOM     25  H   UNL     1      38.264 -27.609 -14.054  0.00  0.00    -0.080 HD
ENDBRANCH  21  22
ENDBRANCH  20  21
ENDBRANCH  19  20
ENDBRANCH   2  19
TORSDOF 6
ENDMDL
MODEL 6
REMARK VINA RESULT:      -7.3      7.457     11.640
REMARK  Name = 2771
REMARK  6 active torsions:
REMARK  status: ('A' for Active; 'I' for Inactive)
REMARK    1  A    between atoms: C_2  and  C_11
REMARK    2  A    between atoms: C_2  and  C_19
REMARK    3  A    between atoms: C_9  and  C_18
REMARK    4  A    between atoms: C_19  and  C_20
REMARK    5  A    between atoms: C_20  and  C_21
REMARK    6  A    between atoms: C_21  and  N_22
REMARK                            x       y       z     vdW  Elec       q    Type
REMARK                         _______ _______ _______ _____ _____    ______ ____
ROOT
ATOM      1  O   UNL     1      32.852 -19.787 -21.333  0.00  0.00    -0.346 OA
ATOM      2  C   UNL     1      34.134 -19.106 -21.520  0.00  0.00    +0.130 C 
ATOM      3  C   UNL     1      35.045 -19.778 -20.534  0.00  0.00    +0.004 C 
ATOM      4  C   UNL     1      34.374 -20.824 -19.916  0.00  0.00    +0.006 C 
ATOM      5  C   UNL     1      32.998 -20.924 -20.451  0.00  0.00    +0.169 C 
ATOM      6  C   UNL     1      36.365 -19.493 -20.217  0.00  0.00    -0.001 C 
ATOM      7  C   UNL     1      34.993 -21.614 -18.963  0.00  0.00    +0.008 C 
ATOM      8  C   UNL     1      37.002 -20.279 -19.255  0.00  0.00    +0.010 C 
ATOM      9  C   UNL     1      36.320 -21.333 -18.631  0.00  0.00    +0.068 C 
ENDROOT
BRANCH   2  11
ATOM     10  F   UNL     1      33.287 -13.671 -20.373  0.00  0.00    -0.204 F 
ATOM     11  C   UNL     1      33.909 -17.663 -21.216  0.00  0.00    +0.006 C 
ATOM     12  C   UNL     1      32.623 -17.130 -21.281  0.00  0.00    +0.001 C 
ATOM     13  C   UNL     1      34.986 -16.849 -20.866  0.00  0.00    +0.001 C 
ATOM     14  C   UNL     1      32.413 -15.781 -20.997  0.00  0.00    +0.029 C 
ATOM     15  C   UNL     1      34.776 -15.500 -20.580  0.00  0.00    +0.029 C 
ATOM     16  C   UNL     1      33.489 -14.966 -20.646  0.00  0.00    +0.140 C 
ENDBRANCH   2  11
BRANCH   9  18
ATOM     17  N   UNL     1      37.532 -22.775 -16.852  0.00  0.00    -0.191 NA
ATOM     18  C   UNL     1      36.989 -22.129 -17.650  0.00  0.00    +0.100 C 
ENDBRANCH   9  18
BRANCH   2  19
ATOM     19  C   UNL     1      34.577 -19.301 -22.966  0.00  0.00    +0.034 C 
BRANCH  19  20
ATOM     20  C   UNL     1      35.228 -18.037 -23.524  0.00  0.00    -0.020 C 
BRANCH  20  21
ATOM     21  C   UNL     1      34.570 -17.613 -24.835  0.00  0.00    -0.077 C 
BRANCH  21  22
ATOM     22  N   UNL     1      33.898 -16.329 -24.673  0.00  0.00    +0.384 N 
ATOM     23  C   UNL     1      33.407 -15.838 -25.962  0.00  0.00    -0.101 C 
ATOM     24  C   UNL     1      34.797 -15.349 -24.064  0.00  0.00    -0.101 C 
ATOM     25  H   UNL     1      33.098 -16.465 -24.054  0.00  0.00    -0.080 HD
ENDBRANCH  21  22
ENDBRANCH  20  21
ENDBRANCH  19  20
ENDBRANCH   2  19
TORSDOF 6
ENDMDL
MODEL 7
REMARK VINA RESULT:      -7.2      7.039      9.901
REMARK  Name = 2771
REMARK  6 active torsions:
REMARK  status: ('A' for Active; 'I' for Inactive)
REMARK    1  A    between atoms: C_2  and  C_11
REMARK    2  A    between atoms: C_2  and  C_19
REMARK    3  A    between atoms: C_9  and  C_18
REMARK    4  A    between atoms: C_19  and  C_20
REMARK    5  A    between atoms: C_20  and  C_21
REMARK    6  A    between atoms: C_21  and  N_22
REMARK                            x       y       z     vdW  Elec       q    Type
REMARK                         _______ _______ _______ _____ _____    ______ ____
ROOT
ATOM      1  O   UNL     1      36.016 -18.605 -21.727  0.00  0.00    -0.346 OA
ATOM      2  C   UNL     1      34.605 -18.994 -21.702  0.00  0.00    +0.130 C 
ATOM      3  C   UNL     1      33.890 -17.730 -21.320  0.00  0.00    +0.004 C 
ATOM      4  C   UNL     1      34.800 -16.685 -21.241  0.00  0.00    +0.006 C 
ATOM      5  C   UNL     1      36.157 -17.174 -21.573  0.00  0.00    +0.169 C 
ATOM      6  C   UNL     1      32.541 -17.521 -21.072  0.00  0.00    -0.001 C 
ATOM      7  C   UNL     1      34.396 -15.403 -20.911  0.00  0.00    +0.008 C 
ATOM      8  C   UNL     1      32.120 -16.234 -20.734  0.00  0.00    +0.010 C 
ATOM      9  C   UNL     1      33.042 -15.181 -20.653  0.00  0.00    +0.068 C 
ENDROOT
BRANCH   2  11
ATOM     10  F   UNL     1      34.089 -23.053 -17.850  0.00  0.00    -0.204 F 
ATOM     11  C   UNL     1      34.469 -20.072 -20.680  0.00  0.00    +0.006 C 
ATOM     12  C   UNL     1      33.202 -20.497 -20.282  0.00  0.00    +0.001 C 
ATOM     13  C   UNL     1      35.607 -20.653 -20.123  0.00  0.00    +0.001 C 
ATOM     14  C   UNL     1      33.073 -21.504 -19.326  0.00  0.00    +0.029 C 
ATOM     15  C   UNL     1      35.479 -21.661 -19.167  0.00  0.00    +0.029 C 
ATOM     16  C   UNL     1      34.212 -22.087 -18.768  0.00  0.00    +0.140 C 
ENDBRANCH   2  11
BRANCH   9  18
ATOM     17  N   UNL     1      32.225 -12.803 -20.026  0.00  0.00    -0.191 NA
ATOM     18  C   UNL     1      32.592 -13.868 -20.308  0.00  0.00    +0.100 C 
ENDBRANCH   9  18
BRANCH   2  19
ATOM     19  C   UNL     1      34.220 -19.498 -23.088  0.00  0.00    +0.034 C 
BRANCH  19  20
ATOM     20  C   UNL     1      35.026 -18.797 -24.180  0.00  0.00    -0.020 C 
BRANCH  20  21
ATOM     21  C   UNL     1      34.107 -18.102 -25.182  0.00  0.00    -0.077 C 
BRANCH  21  22
ATOM     22  N   UNL     1      33.977 -16.687 -24.855  0.00  0.00    +0.384 N 
ATOM     23  C   UNL     1      33.257 -15.978 -25.913  0.00  0.00    -0.101 C 
ATOM     24  C   UNL     1      35.293 -16.084 -24.643  0.00  0.00    -0.101 C 
ATOM     25  H   UNL     1      33.441 -16.609 -23.990  0.00  0.00    -0.080 HD
ENDBRANCH  21  22
ENDBRANCH  20  21
ENDBRANCH  19  20
ENDBRANCH   2  19
TORSDOF 6
ENDMDL
MODEL 8
REMARK VINA RESULT:      -6.9      2.572      4.382
REMARK  Name = 2771
REMARK  6 active torsions:
REMARK  status: ('A' for Active; 'I' for Inactive)
REMARK    1  A    between atoms: C_2  and  C_11
REMARK    2  A    between atoms: C_2  and  C_19
REMARK    3  A    between atoms: C_9  and  C_18
REMARK    4  A    between atoms: C_19  and  C_20
REMARK    5  A    between atoms: C_20  and  C_21
REMARK    6  A    between atoms: C_21  and  N_22
REMARK                            x       y       z     vdW  Elec       q    Type
REMARK                         _______ _______ _______ _____ _____    ______ ____
ROOT
ATOM      1  O   UNL     1      31.274  -8.276 -22.896  0.00  0.00    -0.346 OA
ATOM      2  C   UNL     1      32.735  -8.338 -22.958  0.00  0.00    +0.130 C 
ATOM      3  C   UNL     1      33.097  -7.295 -23.975  0.00  0.00    +0.004 C 
ATOM      4  C   UNL     1      31.953  -6.620 -24.378  0.00  0.00    +0.006 C 
ATOM      5  C   UNL     1      30.775  -7.152 -23.658  0.00  0.00    +0.169 C 
ATOM      6  C   UNL     1      34.340  -6.963 -24.494  0.00  0.00    -0.001 C 
ATOM      7  C   UNL     1      32.011  -5.598 -25.311  0.00  0.00    +0.008 C 
ATOM      8  C   UNL     1      34.414  -5.938 -25.438  0.00  0.00    +0.010 C 
ATOM      9  C   UNL     1      33.255  -5.260 -25.845  0.00  0.00    +0.068 C 
ENDROOT
BRANCH   2  11
ATOM     10  F   UNL     1      34.087 -13.546 -24.580  0.00  0.00    -0.204 F 
ATOM     11  C   UNL     1      33.094  -9.721 -23.389  0.00  0.00    +0.006 C 
ATOM     12  C   UNL     1      32.381 -10.812 -22.894  0.00  0.00    +0.001 C 
ATOM     13  C   UNL     1      34.142  -9.921 -24.286  0.00  0.00    +0.001 C 
ATOM     14  C   UNL     1      32.717 -12.104 -23.296  0.00  0.00    +0.029 C 
ATOM     15  C   UNL     1      34.478 -11.213 -24.690  0.00  0.00    +0.029 C 
ATOM     16  C   UNL     1      33.765 -12.305 -24.194  0.00  0.00    +0.140 C 
ENDBRANCH   2  11
BRANCH   9  18
ATOM     17  N   UNL     1      33.428  -3.358 -27.597  0.00  0.00    -0.191 NA
ATOM     18  C   UNL     1      33.351  -4.210 -26.812  0.00  0.00    +0.100 C 
ENDBRANCH   9  18
BRANCH   2  19
ATOM     19  C   UNL     1      33.289  -8.032 -21.571  0.00  0.00    +0.034 C 
BRANCH  19  20
ATOM     20  C   UNL     1      32.222  -8.207 -20.493  0.00  0.00    -0.020 C 
BRANCH  20  21
ATOM     21  C   UNL     1      32.442  -9.496 -19.705  0.00  0.00    -0.077 C 
BRANCH  21  22
ATOM     22  N   UNL     1      31.163 -10.087 -19.329  0.00  0.00    +0.384 N 
ATOM     23  C   UNL     1      31.302 -10.885 -18.110  0.00  0.00    -0.101 C 
ATOM     24  C   UNL     1      30.635 -10.909 -20.418  0.00  0.00    -0.101 C 
ATOM     25  H   UNL     1      30.505  -9.329 -19.146  0.00  0.00    -0.080 HD
ENDBRANCH  21  22
ENDBRANCH  20  21
ENDBRANCH  19  20
ENDBRANCH   2  19
TORSDOF 6
ENDMDL
MODEL 9
REMARK VINA RESULT:      -6.8      3.225      5.702
REMARK  Name = 2771
REMARK  6 active torsions:
REMARK  status: ('A' for Active; 'I' for Inactive)
REMARK    1  A    between atoms: C_2  and  C_11
REMARK    2  A    between atoms: C_2  and  C_19
REMARK    3  A    between atoms: C_9  and  C_18
REMARK    4  A    between atoms: C_19  and  C_20
REMARK    5  A    between atoms: C_20  and  C_21
REMARK    6  A    between atoms: C_21  and  N_22
REMARK                            x       y       z     vdW  Elec       q    Type
REMARK                         _______ _______ _______ _____ _____    ______ ____
ROOT
ATOM      1  O   UNL     1      32.075  -8.099 -24.395  0.00  0.00    -0.346 OA
ATOM      2  C   UNL     1      32.794  -7.273 -23.424  0.00  0.00    +0.130 C 
ATOM      3  C   UNL     1      32.541  -7.957 -22.112  0.00  0.00    +0.004 C 
ATOM      4  C   UNL     1      31.833  -9.131 -22.327  0.00  0.00    +0.006 C 
ATOM      5  C   UNL     1      31.583  -9.310 -23.775  0.00  0.00    +0.169 C 
ATOM      6  C   UNL     1      32.916  -7.576 -20.832  0.00  0.00    -0.001 C 
ATOM      7  C   UNL     1      31.474  -9.959 -21.277  0.00  0.00    +0.008 C 
ATOM      8  C   UNL     1      32.559  -8.399 -19.762  0.00  0.00    +0.010 C 
ATOM      9  C   UNL     1      31.841  -9.583 -19.983  0.00  0.00    +0.068 C 
ENDROOT
BRANCH   2  11
ATOM     10  F   UNL     1      30.558  -2.123 -23.679  0.00  0.00    -0.204 F 
ATOM     11  C   UNL     1      32.200  -5.906 -23.492  0.00  0.00    +0.006 C 
ATOM     12  C   UNL     1      32.344  -5.141 -24.648  0.00  0.00    +0.001 C 
ATOM     13  C   UNL     1      31.502  -5.395 -22.399  0.00  0.00    +0.001 C 
ATOM     14  C   UNL     1      31.790  -3.862 -24.712  0.00  0.00    +0.029 C 
ATOM     15  C   UNL     1      30.946  -4.117 -22.462  0.00  0.00    +0.029 C 
ATOM     16  C   UNL     1      31.091  -3.350 -23.619  0.00  0.00    +0.140 C 
ENDBRANCH   2  11
BRANCH   9  18
ATOM     17  N   UNL     1      31.196 -11.088 -17.976  0.00  0.00    -0.191 NA
ATOM     18  C   UNL     1      31.486 -10.414 -18.875  0.00  0.00    +0.100 C 
ENDBRANCH   9  18
BRANCH   2  19
ATOM     19  C   UNL     1      34.269  -7.252 -23.808  0.00  0.00    +0.034 C 
BRANCH  19  20
ATOM     20  C   UNL     1      34.602  -8.361 -24.803  0.00  0.00    -0.020 C 
BRANCH  20  21
ATOM     21  C   UNL     1      35.145  -9.597 -24.087  0.00  0.00    -0.077 C 
BRANCH  21  22
ATOM     22  N   UNL     1      35.266 -10.711 -25.020  0.00  0.00    +0.384 N 
ATOM     23  C   UNL     1      35.661 -10.233 -26.346  0.00  0.00    -0.101 C 
ATOM     24  C   UNL     1      34.008 -11.454 -25.102  0.00  0.00    -0.101 C 
ATOM     25  H   UNL     1      35.992 -11.339 -24.673  0.00  0.00    -0.080 HD
ENDBRANCH  21  22
ENDBRANCH  20  21
ENDBRANCH  19  20
ENDBRANCH   2  19
TORSDOF 6
ENDMDL
