MODEL 1
REMARK VINA RESULT:      -7.6      0.000      0.000
REMARK  Name = 46937149
REMARK  6 active torsions:
REMARK  status: ('A' for Active; 'I' for Inactive)
REMARK    1  A    between atoms: C_1  and  C_2
REMARK    2  A    between atoms: C_1  and  O_4
REMARK    3  A    between atoms: C_1  and  C_9
REMARK    4  A    between atoms: O_4  and  P_6
REMARK    5  A    between atoms: C_9  and  O_10
REMARK    6  A    between atoms: O_10  and  C_11
REMARK                            x       y       z     vdW  Elec       q    Type
REMARK                         _______ _______ _______ _____ _____    ______ ____
ROOT
ATOM      1  C   UNL     1      33.805 -23.594 -16.148  0.00  0.00    +0.166 C 
ENDROOT
BRANCH   1   2
ATOM      2  C   UNL     1      32.669 -23.276 -15.174  0.00  0.00    +0.034 C 
ATOM      3  C   UNL     1      31.331 -23.109 -15.882  0.00  0.00    +0.003 C 
ENDBRANCH   1   2
BRANCH   1   4
ATOM      4  O   UNL     1      34.974 -22.880 -15.741  0.00  0.00    -0.302 OA
BRANCH   4   6
ATOM      5 CL   UNL     1      37.770 -22.736 -16.032  0.00  0.00    -0.026 Cl
ATOM      6  P   UNL     1      36.238 -23.716 -15.193  0.00  0.00    +0.302 P 
ATOM      7  O   UNL     1      36.251 -25.177 -15.535  0.00  0.00    -0.273 OA
ATOM      8  C   UNL     1      36.334 -23.347 -13.454  0.00  0.00    +0.114 C 
ENDBRANCH   4   6
ENDBRANCH   1   4
BRANCH   1   9
ATOM      9  C   UNL     1      33.446 -23.172 -17.571  0.00  0.00    +0.235 C 
BRANCH   9  10
ATOM     10  O   UNL     1      34.628 -22.818 -18.283  0.00  0.00    -0.473 OA
BRANCH  10  11
ATOM     11  C   UNL     1      34.520 -21.786 -19.177  0.00  0.00    +0.139 C 
ATOM     12  C   UNL     1      33.262 -21.294 -19.527  0.00  0.00    +0.037 C 
ATOM     13  C   UNL     1      35.668 -21.226 -19.737  0.00  0.00    +0.037 C 
ATOM     14  C   UNL     1      33.153 -20.243 -20.437  0.00  0.00    +0.003 C 
ATOM     15  C   UNL     1      35.559 -20.175 -20.647  0.00  0.00    +0.003 C 
ATOM     16  C   UNL     1      34.301 -19.683 -20.997  0.00  0.00    +0.000 C 
ENDBRANCH  10  11
ENDBRANCH   9  10
ENDBRANCH   1   9
TORSDOF 6
ENDMDL
MODEL 2
REMARK VINA RESULT:      -7.6      6.291      8.861
REMARK  Name = 46937149
REMARK  6 active torsions:
REMARK  status: ('A' for Active; 'I' for Inactive)
REMARK    1  A    between atoms: C_1  and  C_2
REMARK    2  A    between atoms: C_1  and  O_4
REMARK    3  A    between atoms: C_1  and  C_9
REMARK    4  A    between atoms: O_4  and  P_6
REMARK    5  A    between atoms: C_9  and  O_10
REMARK    6  A    between atoms: O_10  and  C_11
REMARK                            x       y       z     vdW  Elec       q    Type
REMARK                         _______ _______ _______ _____ _____    ______ ____
ROOT
ATOM      1  C   UNL     1      34.733 -16.884 -22.961  0.00  0.00    +0.166 C 
ENDROOT
BRANCH   1   2
ATOM      2  C   UNL     1      35.340 -17.735 -24.078  0.00  0.00    +0.034 C 
ATOM      3  C   UNL     1      34.296 -18.586 -24.789  0.00  0.00    +0.003 C 
ENDBRANCH   1   2
BRANCH   1   4
ATOM      4  O   UNL     1      35.081 -15.516 -23.182  0.00  0.00    -0.302 OA
BRANCH   4   6
ATOM      5 CL   UNL     1      33.143 -15.098 -25.181  0.00  0.00    -0.026 Cl
ATOM      6  P   UNL     1      33.899 -14.451 -23.443  0.00  0.00    +0.302 P 
ATOM      7  O   UNL     1      34.323 -13.013 -23.515  0.00  0.00    -0.273 OA
ATOM      8  C   UNL     1      32.657 -14.811 -22.221  0.00  0.00    +0.114 C 
ENDBRANCH   4   6
ENDBRANCH   1   4
BRANCH   1   9
ATOM      9  C   UNL     1      35.264 -17.307 -21.594  0.00  0.00    +0.235 C 
BRANCH   9  10
ATOM     10  O   UNL     1      35.782 -18.632 -21.666  0.00  0.00    -0.473 OA
BRANCH  10  11
ATOM     11  C   UNL     1      35.121 -19.591 -20.946  0.00  0.00    +0.139 C 
ATOM     12  C   UNL     1      35.841 -20.574 -20.267  0.00  0.00    +0.037 C 
ATOM     13  C   UNL     1      33.727 -19.584 -20.889  0.00  0.00    +0.037 C 
ATOM     14  C   UNL     1      35.168 -21.550 -19.533  0.00  0.00    +0.003 C 
ATOM     15  C   UNL     1      33.054 -20.560 -20.155  0.00  0.00    +0.003 C 
ATOM     16  C   UNL     1      33.774 -21.543 -19.477  0.00  0.00    +0.000 C 
ENDBRANCH  10  11
ENDBRANCH   9  10
ENDBRANCH   1   9
TORSDOF 6
ENDMDL
MODEL 3
REMARK VINA RESULT:      -7.5      3.219      3.876
REMARK  Name = 46937149
REMARK  6 active torsions:
REMARK  status: ('A' for Active; 'I' for Inactive)
REMARK    1  A    between atoms: C_1  and  C_2
REMARK    2  A    between atoms: C_1  and  O_4
REMARK    3  A    between atoms: C_1  and  C_9
REMARK    4  A    between atoms: O_4  and  P_6
REMARK    5  A    between atoms: C_9  and  O_10
REMARK    6  A    between atoms: O_10  and  C_11
REMARK                            x       y       z     vdW  Elec       q    Type
REMARK                         _______ _______ _______ _____ _____    ______ ____
ROOT
ATOM      1  C   UNL     1      32.926 -23.142 -16.577  0.00  0.00    +0.166 C 
ENDROOT
BRANCH   1   2
ATOM      2  C   UNL     1      34.011 -23.657 -15.629  0.00  0.00    +0.034 C 
ATOM      3  C   UNL     1      35.349 -22.962 -15.850  0.00  0.00    +0.003 C 
ENDBRANCH   1   2
BRANCH   1   4
ATOM      4  O   UNL     1      31.763 -23.958 -16.434  0.00  0.00    -0.302 OA
BRANCH   4   6
ATOM      5 CL   UNL     1      29.214 -24.853 -15.644  0.00  0.00    -0.026 Cl
ATOM      6  P   UNL     1      30.380 -23.261 -15.987  0.00  0.00    +0.302 P 
ATOM      7  O   UNL     1      29.770 -22.324 -16.987  0.00  0.00    -0.273 OA
ATOM      8  C   UNL     1      30.700 -22.553 -14.386  0.00  0.00    +0.114 C 
ENDBRANCH   4   6
ENDBRANCH   1   4
BRANCH   1   9
ATOM      9  C   UNL     1      33.389 -23.203 -18.031  0.00  0.00    +0.235 C 
BRANCH   9  10
ATOM     10  O   UNL     1      32.735 -22.190 -18.789  0.00  0.00    -0.473 OA
BRANCH  10  11
ATOM     11  C   UNL     1      33.537 -21.358 -19.524  0.00  0.00    +0.139 C 
ATOM     12  C   UNL     1      32.968 -20.357 -20.312  0.00  0.00    +0.037 C 
ATOM     13  C   UNL     1      34.923 -21.511 -19.485  0.00  0.00    +0.037 C 
ATOM     14  C   UNL     1      33.785 -19.510 -21.060  0.00  0.00    +0.003 C 
ATOM     15  C   UNL     1      35.740 -20.664 -20.233  0.00  0.00    +0.003 C 
ATOM     16  C   UNL     1      35.171 -19.663 -21.021  0.00  0.00    +0.000 C 
ENDBRANCH  10  11
ENDBRANCH   9  10
ENDBRANCH   1   9
TORSDOF 6
ENDMDL
MODEL 4
REMARK VINA RESULT:      -7.5      5.706      8.230
REMARK  Name = 46937149
REMARK  6 active torsions:
REMARK  status: ('A' for Active; 'I' for Inactive)
REMARK    1  A    between atoms: C_1  and  C_2
REMARK    2  A    between atoms: C_1  and  O_4
REMARK    3  A    between atoms: C_1  and  C_9
REMARK    4  A    between atoms: O_4  and  P_6
REMARK    5  A    between atoms: C_9  and  O_10
REMARK    6  A    between atoms: O_10  and  C_11
REMARK                            x       y       z     vdW  Elec       q    Type
REMARK                         _______ _______ _______ _____ _____    ______ ____
ROOT
ATOM      1  C   UNL     1      34.556 -17.199 -23.361  0.00  0.00    +0.166 C 
ENDROOT
BRANCH   1   2
ATOM      2  C   UNL     1      34.916 -16.756 -24.781  0.00  0.00    +0.034 C 
ATOM      3  C   UNL     1      33.757 -16.058 -25.480  0.00  0.00    +0.003 C 
ENDBRANCH   1   2
BRANCH   1   4
ATOM      4  O   UNL     1      35.245 -16.365 -22.429  0.00  0.00    -0.302 OA
BRANCH   4   6
ATOM      5 CL   UNL     1      34.142 -13.799 -22.779  0.00  0.00    -0.026 Cl
ATOM      6  P   UNL     1      34.387 -15.342 -21.526  0.00  0.00    +0.302 P 
ATOM      7  O   UNL     1      35.024 -14.920 -20.234  0.00  0.00    -0.273 OA
ATOM      8  C   UNL     1      32.777 -16.083 -21.366  0.00  0.00    +0.114 C 
ENDBRANCH   4   6
ENDBRANCH   1   4
BRANCH   1   9
ATOM      9  C   UNL     1      34.965 -18.649 -23.114  0.00  0.00    +0.235 C 
BRANCH   9  10
ATOM     10  O   UNL     1      35.528 -18.777 -21.813  0.00  0.00    -0.473 OA
BRANCH  10  11
ATOM     11  C   UNL     1      34.969 -19.720 -20.992  0.00  0.00    +0.139 C 
ATOM     12  C   UNL     1      33.585 -19.765 -20.823  0.00  0.00    +0.037 C 
ATOM     13  C   UNL     1      35.783 -20.636 -20.325  0.00  0.00    +0.037 C 
ATOM     14  C   UNL     1      33.015 -20.726 -19.987  0.00  0.00    +0.003 C 
ATOM     15  C   UNL     1      35.214 -21.597 -19.489  0.00  0.00    +0.003 C 
ATOM     16  C   UNL     1      33.829 -21.642 -19.320  0.00  0.00    +0.000 C 
ENDBRANCH  10  11
ENDBRANCH   9  10
ENDBRANCH   1   9
TORSDOF 6
ENDMDL
MODEL 5
REMARK VINA RESULT:      -7.3      5.601      8.298
REMARK  Name = 46937149
REMARK  6 active torsions:
REMARK  status: ('A' for Active; 'I' for Inactive)
REMARK    1  A    between atoms: C_1  and  C_2
REMARK    2  A    between atoms: C_1  and  O_4
REMARK    3  A    between atoms: C_1  and  C_9
REMARK    4  A    between atoms: O_4  and  P_6
REMARK    5  A    between atoms: C_9  and  O_10
REMARK    6  A    between atoms: O_10  and  C_11
REMARK                            x       y       z     vdW  Elec       q    Type
REMARK                         _______ _______ _______ _____ _____    ______ ____
ROOT
ATOM      1  C   UNL     1      34.548 -17.233 -22.840  0.00  0.00    +0.166 C 
ENDROOT
BRANCH   1   2
ATOM      2  C   UNL     1      35.312 -18.009 -23.915  0.00  0.00    +0.034 C 
ATOM      3  C   UNL     1      34.402 -18.928 -24.720  0.00  0.00    +0.003 C 
ENDBRANCH   1   2
BRANCH   1   4
ATOM      4  O   UNL     1      34.807 -15.838 -23.007  0.00  0.00    -0.302 OA
BRANCH   4   6
ATOM      5 CL   UNL     1      34.733 -14.317 -20.640  0.00  0.00    -0.026 Cl
ATOM      6  P   UNL     1      33.789 -14.779 -22.345  0.00  0.00    +0.302 P 
ATOM      7  O   UNL     1      32.396 -15.280 -22.098  0.00  0.00    -0.273 OA
ATOM      8  C   UNL     1      33.897 -13.319 -23.358  0.00  0.00    +0.114 C 
ENDBRANCH   4   6
ENDBRANCH   1   4
BRANCH   1   9
ATOM      9  C   UNL     1      34.993 -17.647 -21.439  0.00  0.00    +0.235 C 
BRANCH   9  10
ATOM     10  O   UNL     1      35.662 -18.903 -21.497  0.00  0.00    -0.473 OA
BRANCH  10  11
ATOM     11  C   UNL     1      35.136 -19.914 -20.737  0.00  0.00    +0.139 C 
ATOM     12  C   UNL     1      33.753 -20.050 -20.616  0.00  0.00    +0.037 C 
ATOM     13  C   UNL     1      35.984 -20.810 -20.084  0.00  0.00    +0.037 C 
ATOM     14  C   UNL     1      33.219 -21.080 -19.843  0.00  0.00    +0.003 C 
ATOM     15  C   UNL     1      35.450 -21.840 -19.311  0.00  0.00    +0.003 C 
ATOM     16  C   UNL     1      34.066 -21.975 -19.190  0.00  0.00    +0.000 C 
ENDBRANCH  10  11
ENDBRANCH   9  10
ENDBRANCH   1   9
TORSDOF 6
ENDMDL
MODEL 6
REMARK VINA RESULT:      -6.9     10.894     12.980
REMARK  Name = 46937149
REMARK  6 active torsions:
REMARK  status: ('A' for Active; 'I' for Inactive)
REMARK    1  A    between atoms: C_1  and  C_2
REMARK    2  A    between atoms: C_1  and  O_4
REMARK    3  A    between atoms: C_1  and  C_9
REMARK    4  A    between atoms: O_4  and  P_6
REMARK    5  A    between atoms: C_9  and  O_10
REMARK    6  A    between atoms: O_10  and  C_11
REMARK                            x       y       z     vdW  Elec       q    Type
REMARK                         _______ _______ _______ _____ _____    ______ ____
ROOT
ATOM      1  C   UNL     1      32.006 -10.251 -21.310  0.00  0.00    +0.166 C 
ENDROOT
BRANCH   1   2
ATOM      2  C   UNL     1      30.936 -10.791 -20.359  0.00  0.00    +0.034 C 
ATOM      3  C   UNL     1      31.410 -10.820 -18.912  0.00  0.00    +0.003 C 
ENDBRANCH   1   2
BRANCH   1   4
ATOM      4  O   UNL     1      31.597  -8.967 -21.783  0.00  0.00    -0.302 OA
BRANCH   4   6
ATOM      5 CL   UNL     1      33.981  -7.690 -22.563  0.00  0.00    -0.026 Cl
ATOM      6  P   UNL     1      32.424  -7.668 -21.305  0.00  0.00    +0.302 P 
ATOM      7  O   UNL     1      32.862  -7.667 -19.870  0.00  0.00    -0.273 OA
ATOM      8  C   UNL     1      31.437  -6.270 -21.794  0.00  0.00    +0.114 C 
ENDBRANCH   4   6
ENDBRANCH   1   4
BRANCH   1   9
ATOM      9  C   UNL     1      32.195 -11.175 -22.510  0.00  0.00    +0.235 C 
BRANCH   9  10
ATOM     10  O   UNL     1      31.698 -12.474 -22.203  0.00  0.00    -0.473 OA
BRANCH  10  11
ATOM     11  C   UNL     1      32.630 -13.458 -22.004  0.00  0.00    +0.139 C 
ATOM     12  C   UNL     1      32.700 -14.115 -20.776  0.00  0.00    +0.037 C 
ATOM     13  C   UNL     1      33.510 -13.803 -23.031  0.00  0.00    +0.037 C 
ATOM     14  C   UNL     1      33.648 -15.117 -20.574  0.00  0.00    +0.003 C 
ATOM     15  C   UNL     1      34.459 -14.805 -22.829  0.00  0.00    +0.003 C 
ATOM     16  C   UNL     1      34.528 -15.463 -21.600  0.00  0.00    +0.000 C 
ENDBRANCH  10  11
ENDBRANCH   9  10
ENDBRANCH   1   9
TORSDOF 6
ENDMDL
MODEL 7
REMARK VINA RESULT:      -6.9      1.904      2.755
REMARK  Name = 46937149
REMARK  6 active torsions:
REMARK  status: ('A' for Active; 'I' for Inactive)
REMARK    1  A    between atoms: C_1  and  C_2
REMARK    2  A    between atoms: C_1  and  O_4
REMARK    3  A    between atoms: C_1  and  C_9
REMARK    4  A    between atoms: O_4  and  P_6
REMARK    5  A    between atoms: C_9  and  O_10
REMARK    6  A    between atoms: O_10  and  C_11
REMARK                            x       y       z     vdW  Elec       q    Type
REMARK                         _______ _______ _______ _____ _____    ______ ____
ROOT
ATOM      1  C   UNL     1      35.403 -22.694 -16.304  0.00  0.00    +0.166 C 
ENDROOT
BRANCH   1   2
ATOM      2  C   UNL     1      36.569 -21.730 -16.539  0.00  0.00    +0.034 C 
ATOM      3  C   UNL     1      37.922 -22.419 -16.412  0.00  0.00    +0.003 C 
ENDBRANCH   1   2
BRANCH   1   4
ATOM      4  O   UNL     1      35.928 -23.996 -16.038  0.00  0.00    -0.302 OA
BRANCH   4   6
ATOM      5 CL   UNL     1      36.396 -26.516 -14.875  0.00  0.00    -0.026 Cl
ATOM      6  P   UNL     1      35.505 -24.734 -14.670  0.00  0.00    +0.302 P 
ATOM      7  O   UNL     1      34.030 -24.869 -14.431  0.00  0.00    -0.273 OA
ATOM      8  C   UNL     1      36.404 -23.899 -13.381  0.00  0.00    +0.114 C 
ENDBRANCH   4   6
ENDBRANCH   1   4
BRANCH   1   9
ATOM      9  C   UNL     1      34.498 -22.774 -17.531  0.00  0.00    +0.235 C 
BRANCH   9  10
ATOM     10  O   UNL     1      35.249 -22.483 -18.706  0.00  0.00    -0.473 OA
BRANCH  10  11
ATOM     11  C   UNL     1      34.769 -21.484 -19.510  0.00  0.00    +0.139 C 
ATOM     12  C   UNL     1      35.654 -20.695 -20.245  0.00  0.00    +0.037 C 
ATOM     13  C   UNL     1      33.396 -21.256 -19.595  0.00  0.00    +0.037 C 
ATOM     14  C   UNL     1      35.165 -19.678 -21.065  0.00  0.00    +0.003 C 
ATOM     15  C   UNL     1      32.907 -20.239 -20.415  0.00  0.00    +0.003 C 
ATOM     16  C   UNL     1      33.792 -19.450 -21.150  0.00  0.00    +0.000 C 
ENDBRANCH  10  11
ENDBRANCH   9  10
ENDBRANCH   1   9
TORSDOF 6
ENDMDL
MODEL 8
REMARK VINA RESULT:      -6.9      6.487      8.814
REMARK  Name = 46937149
REMARK  6 active torsions:
REMARK  status: ('A' for Active; 'I' for Inactive)
REMARK    1  A    between atoms: C_1  and  C_2
REMARK    2  A    between atoms: C_1  and  O_4
REMARK    3  A    between atoms: C_1  and  C_9
REMARK    4  A    between atoms: O_4  and  P_6
REMARK    5  A    between atoms: C_9  and  O_10
REMARK    6  A    between atoms: O_10  and  C_11
REMARK                            x       y       z     vdW  Elec       q    Type
REMARK                         _______ _______ _______ _____ _____    ______ ____
ROOT
ATOM      1  C   UNL     1      34.348 -16.515 -21.581  0.00  0.00    +0.166 C 
ENDROOT
BRANCH   1   2
ATOM      2  C   UNL     1      34.217 -15.365 -20.580  0.00  0.00    +0.034 C 
ATOM      3  C   UNL     1      32.782 -14.872 -20.451  0.00  0.00    +0.003 C 
ENDBRANCH   1   2
BRANCH   1   4
ATOM      4  O   UNL     1      35.281 -17.468 -21.070  0.00  0.00    -0.302 OA
BRANCH   4   6
ATOM      5 CL   UNL     1      32.990 -19.066 -20.719  0.00  0.00    -0.026 Cl
ATOM      6  P   UNL     1      34.934 -19.036 -21.202  0.00  0.00    +0.302 P 
ATOM      7  O   UNL     1      35.741 -19.958 -20.335  0.00  0.00    -0.273 OA
ATOM      8  C   UNL     1      34.996 -19.393 -22.944  0.00  0.00    +0.114 C 
ENDBRANCH   4   6
ENDBRANCH   1   4
BRANCH   1   9
ATOM      9  C   UNL     1      34.852 -16.016 -22.933  0.00  0.00    +0.235 C 
BRANCH   9  10
ATOM     10  O   UNL     1      33.768 -15.935 -23.853  0.00  0.00    -0.473 OA
BRANCH  10  11
ATOM     11  C   UNL     1      33.648 -14.769 -24.561  0.00  0.00    +0.139 C 
ATOM     12  C   UNL     1      33.270 -14.804 -25.904  0.00  0.00    +0.037 C 
ATOM     13  C   UNL     1      33.902 -13.547 -23.940  0.00  0.00    +0.037 C 
ATOM     14  C   UNL     1      33.147 -13.616 -26.624  0.00  0.00    +0.003 C 
ATOM     15  C   UNL     1      33.780 -12.359 -24.660  0.00  0.00    +0.003 C 
ATOM     16  C   UNL     1      33.402 -12.394 -26.003  0.00  0.00    +0.000 C 
ENDBRANCH  10  11
ENDBRANCH   9  10
ENDBRANCH   1   9
TORSDOF 6
ENDMDL
MODEL 9
REMARK VINA RESULT:      -6.9      2.322      3.044
REMARK  Name = 46937149
REMARK  6 active torsions:
REMARK  status: ('A' for Active; 'I' for Inactive)
REMARK    1  A    between atoms: C_1  and  C_2
REMARK    2  A    between atoms: C_1  and  O_4
REMARK    3  A    between atoms: C_1  and  C_9
REMARK    4  A    between atoms: O_4  and  P_6
REMARK    5  A    between atoms: C_9  and  O_10
REMARK    6  A    between atoms: O_10  and  C_11
REMARK                            x       y       z     vdW  Elec       q    Type
REMARK                         _______ _______ _______ _____ _____    ______ ____
ROOT
ATOM      1  C   UNL     1      36.520 -23.767 -15.023  0.00  0.00    +0.166 C 
ENDROOT
BRANCH   1   2
ATOM      2  C   UNL     1      35.595 -23.368 -13.871  0.00  0.00    +0.034 C 
ATOM      3  C   UNL     1      34.372 -24.272 -13.773  0.00  0.00    +0.003 C 
ENDBRANCH   1   2
BRANCH   1   4
ATOM      4  O   UNL     1      37.864 -23.808 -14.541  0.00  0.00    -0.302 OA
BRANCH   4   6
ATOM      5 CL   UNL     1      37.301 -26.496 -15.157  0.00  0.00    -0.026 Cl
ATOM      6  P   UNL     1      38.508 -25.238 -14.171  0.00  0.00    +0.302 P 
ATOM      7  O   UNL     1      38.580 -25.562 -12.707  0.00  0.00    -0.273 OA
ATOM      8  C   UNL     1      40.063 -25.298 -15.034  0.00  0.00    +0.114 C 
ENDBRANCH   4   6
ENDBRANCH   1   4
BRANCH   1   9
ATOM      9  C   UNL     1      36.442 -22.758 -16.167  0.00  0.00    +0.235 C 
BRANCH   9  10
ATOM     10  O   UNL     1      35.354 -23.084 -17.025  0.00  0.00    -0.473 OA
BRANCH  10  11
ATOM     11  C   UNL     1      35.170 -22.279 -18.117  0.00  0.00    +0.139 C 
ATOM     12  C   UNL     1      36.255 -21.603 -18.676  0.00  0.00    +0.037 C 
ATOM     13  C   UNL     1      33.899 -22.136 -18.673  0.00  0.00    +0.037 C 
ATOM     14  C   UNL     1      36.068 -20.783 -19.789  0.00  0.00    +0.003 C 
ATOM     15  C   UNL     1      33.712 -21.316 -19.785  0.00  0.00    +0.003 C 
ATOM     16  C   UNL     1      34.797 -20.640 -20.344  0.00  0.00    +0.000 C 
ENDBRANCH  10  11
ENDBRANCH   9  10
ENDBRANCH   1   9
TORSDOF 6
ENDMDL
