MODEL 1
REMARK VINA RESULT:     -10.5      0.000      0.000
REMARK  Name = 5289296
REMARK  7 active torsions:
REMARK  status: ('A' for Active; 'I' for Inactive)
REMARK    1  A    between atoms: N_1  and  C_14
REMARK    2  A    between atoms: N_2  and  C_23
REMARK    3  A    between atoms: N_3  and  CA_17
REMARK    4  A    between atoms: CA_17  and  C_18
REMARK    5  A    between atoms: CA_17  and  C_20
REMARK    6  A    between atoms: C_20  and  O_21
REMARK    7  A    between atoms: C_23  and  C_24
REMARK                            x       y       z     vdW  Elec       q    Type
REMARK                         _______ _______ _______ _____ _____    ______ ____
ROOT
ATOM      1  N   UNL     1      36.432 -24.004 -13.861  0.00  0.00    -0.262 N 
ATOM      2  N   UNL     1      35.607 -22.229 -18.041  0.00  0.00    -0.276 N 
ATOM      3  N   UNL     1      31.978 -23.926 -15.514  0.00  0.00    -0.258 N 
ATOM      4  N   UNL     1      34.096 -24.053 -14.527  0.00  0.00    -0.311 NA
ATOM      5  N   UNL     1      37.323 -23.048 -15.668  0.00  0.00    -0.240 NA
ATOM      6  N   UNL     1      33.786 -23.090 -16.748  0.00  0.00    -0.311 NA
ATOM      7  C   UNL     1      35.393 -23.772 -14.718  0.00  0.00    +0.220 C 
ATOM      8  C   UNL     1      35.967 -23.179 -15.832  0.00  0.00    +0.168 C 
ATOM      9  C   UNL     1      35.110 -22.834 -16.872  0.00  0.00    +0.219 C 
ATOM     10  C   UNL     1      33.336 -23.681 -15.598  0.00  0.00    +0.202 C 
ATOM     11  C   UNL     1      37.569 -23.552 -14.476  0.00  0.00    +0.222 C 
ATOM     12  C   UNL     1      36.785 -21.382 -17.990  0.00  0.00    +0.115 C 
ATOM     13  H   UNL     1      31.410 -23.664 -16.275  0.00  0.00    +0.160 HD
ENDROOT
BRANCH   1  14
ATOM     14  C   UNL     1      36.354 -24.609 -12.555  0.00  0.00    +0.077 C 
ATOM     15  C   UNL     1      37.242 -25.851 -12.445  0.00  0.00    +0.022 C 
ATOM     16  C   UNL     1      36.649 -23.604 -11.439  0.00  0.00    +0.022 C 
ENDBRANCH   1  14
BRANCH   3  17
ATOM     17  CA  UNL     1      31.347 -24.548 -14.367  0.00  0.00    +0.109 C 
BRANCH  17  18
ATOM     18  C   UNL     1      30.162 -25.406 -14.827  0.00  0.00    +0.023 C 
ATOM     19  C   UNL     1      28.959 -24.571 -15.246  0.00  0.00    +0.002 C 
ENDBRANCH  17  18
BRANCH  17  20
ATOM     20  C   UNL     1      30.883 -23.451 -13.407  0.00  0.00    +0.157 C 
BRANCH  20  21
ATOM     21  O   UNL     1      31.993 -22.993 -12.643  0.00  0.00    -0.380 OA
ATOM     22  H   UNL     1      31.672 -22.502 -11.870  0.00  0.00    +0.211 HD
ENDBRANCH  20  21
ENDBRANCH  17  20
ENDBRANCH   3  17
BRANCH   2  23
ATOM     23  C   UNL     1      34.959 -22.452 -19.321  0.00  0.00    +0.120 C 
BRANCH  23  24
ATOM     24  C   UNL     1      34.535 -21.160 -19.967  0.00  0.00    -0.002 C 
ATOM     25  C   UNL     1      33.200 -20.781 -19.926  0.00  0.00    -0.003 C 
ATOM     26  C   UNL     1      35.484 -20.366 -20.596  0.00  0.00    -0.003 C 
ATOM     27  C   UNL     1      32.808 -19.584 -20.526  0.00  0.00    -0.000 C 
ATOM     28  C   UNL     1      35.092 -19.169 -21.195  0.00  0.00    -0.000 C 
ATOM     29  C   UNL     1      33.753 -18.778 -21.159  0.00  0.00    -0.000 C 
ENDBRANCH  23  24
ENDBRANCH   2  23
TORSDOF 7
ENDMDL
MODEL 2
REMARK VINA RESULT:      -9.5      1.363      4.585
REMARK  Name = 5289296
REMARK  7 active torsions:
REMARK  status: ('A' for Active; 'I' for Inactive)
REMARK    1  A    between atoms: N_1  and  C_14
REMARK    2  A    between atoms: N_2  and  C_23
REMARK    3  A    between atoms: N_3  and  CA_17
REMARK    4  A    between atoms: CA_17  and  C_18
REMARK    5  A    between atoms: CA_17  and  C_20
REMARK    6  A    between atoms: C_20  and  O_21
REMARK    7  A    between atoms: C_23  and  C_24
REMARK                            x       y       z     vdW  Elec       q    Type
REMARK                         _______ _______ _______ _____ _____    ______ ____
ROOT
ATOM      1  N   UNL     1      31.826 -23.354 -15.467  0.00  0.00    -0.262 N 
ATOM      2  N   UNL     1      34.970 -22.502 -18.735  0.00  0.00    -0.276 N 
ATOM      3  N   UNL     1      36.417 -23.126 -14.270  0.00  0.00    -0.258 N 
ATOM      4  N   UNL     1      34.115 -23.278 -14.658  0.00  0.00    -0.311 NA
ATOM      5  N   UNL     1      32.172 -22.953 -17.632  0.00  0.00    -0.240 NA
ATOM      6  N   UNL     1      35.682 -22.821 -16.473  0.00  0.00    -0.311 NA
ATOM      7  C   UNL     1      33.176 -23.202 -15.612  0.00  0.00    +0.220 C 
ATOM      8  C   UNL     1      33.370 -22.954 -16.962  0.00  0.00    +0.168 C 
ATOM      9  C   UNL     1      34.681 -22.760 -17.383  0.00  0.00    +0.219 C 
ATOM     10  C   UNL     1      35.366 -23.074 -15.164  0.00  0.00    +0.202 C 
ATOM     11  C   UNL     1      31.267 -23.196 -16.708  0.00  0.00    +0.222 C 
ATOM     12  C   UNL     1      34.125 -23.037 -19.787  0.00  0.00    +0.115 C 
ATOM     13  H   UNL     1      37.329 -22.983 -14.613  0.00  0.00    +0.160 HD
ENDROOT
BRANCH   1  14
ATOM     14  C   UNL     1      31.115 -23.630 -14.243  0.00  0.00    +0.077 C 
ATOM     15  C   UNL     1      29.641 -23.228 -14.333  0.00  0.00    +0.022 C 
ATOM     16  C   UNL     1      31.276 -25.087 -13.802  0.00  0.00    +0.022 C 
ENDBRANCH   1  14
BRANCH   3  17
ATOM     17  CA  UNL     1      36.249 -23.379 -12.851  0.00  0.00    +0.109 C 
BRANCH  17  18
ATOM     18  C   UNL     1      37.528 -22.990 -12.098  0.00  0.00    +0.023 C 
ATOM     19  C   UNL     1      38.506 -24.150 -11.965  0.00  0.00    +0.002 C 
ENDBRANCH  17  18
BRANCH  17  20
ATOM     20  C   UNL     1      35.930 -24.861 -12.651  0.00  0.00    +0.157 C 
BRANCH  20  21
ATOM     21  O   UNL     1      34.620 -24.993 -12.112  0.00  0.00    -0.380 OA
ATOM     22  H   UNL     1      34.121 -25.643 -12.631  0.00  0.00    +0.211 HD
ENDBRANCH  20  21
ENDBRANCH  17  20
ENDBRANCH   3  17
BRANCH   2  23
ATOM     23  C   UNL     1      36.111 -21.682 -19.103  0.00  0.00    +0.120 C 
BRANCH  23  24
ATOM     24  C   UNL     1      35.715 -20.540 -20.000  0.00  0.00    -0.002 C 
ATOM     25  C   UNL     1      36.699 -19.735 -20.556  0.00  0.00    -0.003 C 
ATOM     26  C   UNL     1      34.371 -20.308 -20.258  0.00  0.00    -0.003 C 
ATOM     27  C   UNL     1      36.332 -18.677 -21.387  0.00  0.00    -0.000 C 
ATOM     28  C   UNL     1      34.004 -19.249 -21.089  0.00  0.00    -0.000 C 
ATOM     29  C   UNL     1      34.985 -18.434 -21.654  0.00  0.00    -0.000 C 
ENDBRANCH  23  24
ENDBRANCH   2  23
TORSDOF 7
ENDMDL
MODEL 3
REMARK VINA RESULT:      -8.8      1.652      2.184
REMARK  Name = 5289296
REMARK  7 active torsions:
REMARK  status: ('A' for Active; 'I' for Inactive)
REMARK    1  A    between atoms: N_1  and  C_14
REMARK    2  A    between atoms: N_2  and  C_23
REMARK    3  A    between atoms: N_3  and  CA_17
REMARK    4  A    between atoms: CA_17  and  C_18
REMARK    5  A    between atoms: CA_17  and  C_20
REMARK    6  A    between atoms: C_20  and  O_21
REMARK    7  A    between atoms: C_23  and  C_24
REMARK                            x       y       z     vdW  Elec       q    Type
REMARK                         _______ _______ _______ _____ _____    ______ ____
ROOT
ATOM      1  N   UNL     1      34.958 -24.103 -14.378  0.00  0.00    -0.262 N 
ATOM      2  N   UNL     1      35.413 -22.109 -18.514  0.00  0.00    -0.276 N 
ATOM      3  N   UNL     1      31.064 -22.828 -16.783  0.00  0.00    -0.258 N 
ATOM      4  N   UNL     1      32.855 -23.525 -15.447  0.00  0.00    -0.311 NA
ATOM      5  N   UNL     1      36.387 -23.388 -15.933  0.00  0.00    -0.240 NA
ATOM      6  N   UNL     1      33.224 -22.480 -17.622  0.00  0.00    -0.311 NA
ATOM      7  C   UNL     1      34.193 -23.592 -15.388  0.00  0.00    +0.220 C 
ATOM      8  C   UNL     1      35.098 -23.154 -16.342  0.00  0.00    +0.168 C 
ATOM      9  C   UNL     1      34.568 -22.580 -17.494  0.00  0.00    +0.219 C 
ATOM     10  C   UNL     1      32.430 -22.948 -16.609  0.00  0.00    +0.202 C 
ATOM     11  C   UNL     1      36.268 -23.957 -14.752  0.00  0.00    +0.222 C 
ATOM     12  C   UNL     1      36.738 -21.603 -18.203  0.00  0.00    +0.115 C 
ATOM     13  H   UNL     1      30.735 -22.415 -17.613  0.00  0.00    +0.160 HD
ENDROOT
BRANCH   1  14
ATOM     14  C   UNL     1      34.485 -24.686 -13.146  0.00  0.00    +0.077 C 
ATOM     15  C   UNL     1      35.246 -24.154 -11.931  0.00  0.00    +0.022 C 
ATOM     16  C   UNL     1      32.972 -24.526 -12.980  0.00  0.00    +0.022 C 
ENDBRANCH   1  14
BRANCH   3  17
ATOM     17  CA  UNL     1      30.091 -23.280 -15.807  0.00  0.00    +0.109 C 
BRANCH  17  18
ATOM     18  C   UNL     1      29.825 -24.779 -15.993  0.00  0.00    +0.023 C 
ATOM     19  C   UNL     1      29.240 -25.430 -14.746  0.00  0.00    +0.002 C 
ENDBRANCH  17  18
BRANCH  17  20
ATOM     20  C   UNL     1      28.804 -22.472 -15.987  0.00  0.00    +0.157 C 
BRANCH  20  21
ATOM     21  O   UNL     1      28.443 -22.461 -17.363  0.00  0.00    -0.380 OA
ATOM     22  H   UNL     1      29.099 -21.954 -17.865  0.00  0.00    +0.211 HD
ENDBRANCH  20  21
ENDBRANCH  17  20
ENDBRANCH   3  17
BRANCH   2  23
ATOM     23  C   UNL     1      34.981 -22.133 -19.900  0.00  0.00    +0.120 C 
BRANCH  23  24
ATOM     24  C   UNL     1      34.659 -20.754 -20.412  0.00  0.00    -0.002 C 
ATOM     25  C   UNL     1      35.684 -19.938 -20.869  0.00  0.00    -0.003 C 
ATOM     26  C   UNL     1      33.341 -20.318 -20.418  0.00  0.00    -0.003 C 
ATOM     27  C   UNL     1      35.385 -18.661 -21.343  0.00  0.00    -0.000 C 
ATOM     28  C   UNL     1      33.042 -19.041 -20.891  0.00  0.00    -0.000 C 
ATOM     29  C   UNL     1      34.064 -18.212 -21.354  0.00  0.00    -0.000 C 
ENDBRANCH  23  24
ENDBRANCH   2  23
TORSDOF 7
ENDMDL
MODEL 4
REMARK VINA RESULT:      -8.5      6.843     11.728
REMARK  Name = 5289296
REMARK  7 active torsions:
REMARK  status: ('A' for Active; 'I' for Inactive)
REMARK    1  A    between atoms: N_1  and  C_14
REMARK    2  A    between atoms: N_2  and  C_23
REMARK    3  A    between atoms: N_3  and  CA_17
REMARK    4  A    between atoms: CA_17  and  C_18
REMARK    5  A    between atoms: CA_17  and  C_20
REMARK    6  A    between atoms: C_20  and  O_21
REMARK    7  A    between atoms: C_23  and  C_24
REMARK                            x       y       z     vdW  Elec       q    Type
REMARK                         _______ _______ _______ _____ _____    ______ ____
ROOT
ATOM      1  N   UNL     1      33.549 -14.376 -25.399  0.00  0.00    -0.262 N 
ATOM      2  N   UNL     1      34.714 -17.841 -22.582  0.00  0.00    -0.276 N 
ATOM      3  N   UNL     1      33.015 -13.837 -20.709  0.00  0.00    -0.258 N 
ATOM      4  N   UNL     1      33.203 -13.909 -23.040  0.00  0.00    -0.311 NA
ATOM      5  N   UNL     1      34.353 -16.451 -25.263  0.00  0.00    -0.240 NA
ATOM      6  N   UNL     1      33.852 -15.810 -21.654  0.00  0.00    -0.311 NA
ATOM      7  C   UNL     1      33.578 -14.684 -24.068  0.00  0.00    +0.220 C 
ATOM      8  C   UNL     1      34.080 -15.974 -24.005  0.00  0.00    +0.168 C 
ATOM      9  C   UNL     1      34.213 -16.536 -22.739  0.00  0.00    +0.219 C 
ATOM     10  C   UNL     1      33.368 -14.543 -21.843  0.00  0.00    +0.202 C 
ATOM     11  C   UNL     1      34.023 -15.469 -26.075  0.00  0.00    +0.222 C 
ATOM     12  C   UNL     1      34.506 -18.842 -23.613  0.00  0.00    +0.115 C 
ATOM     13  H   UNL     1      33.125 -14.275 -19.834  0.00  0.00    +0.160 HD
ENDROOT
BRANCH   1  14
ATOM     14  C   UNL     1      33.103 -13.138 -25.989  0.00  0.00    +0.077 C 
ATOM     15  C   UNL     1      33.922 -11.942 -25.498  0.00  0.00    +0.022 C 
ATOM     16  C   UNL     1      33.071 -13.211 -27.517  0.00  0.00    +0.022 C 
ENDBRANCH   1  14
BRANCH   3  17
ATOM     17  CA  UNL     1      32.492 -12.484 -20.739  0.00  0.00    +0.109 C 
BRANCH  17  18
ATOM     18  C   UNL     1      31.803 -12.163 -19.407  0.00  0.00    +0.023 C 
ATOM     19  C   UNL     1      31.433 -10.691 -19.276  0.00  0.00    +0.002 C 
ENDBRANCH  17  18
BRANCH  17  20
ATOM     20  C   UNL     1      31.507 -12.365 -21.903  0.00  0.00    +0.157 C 
BRANCH  20  21
ATOM     21  O   UNL     1      31.843 -11.228 -22.690  0.00  0.00    -0.380 OA
ATOM     22  H   UNL     1      31.164 -10.544 -22.576  0.00  0.00    +0.211 HD
ENDBRANCH  20  21
ENDBRANCH  17  20
ENDBRANCH   3  17
BRANCH   2  23
ATOM     23  C   UNL     1      35.461 -18.206 -21.391  0.00  0.00    +0.120 C 
BRANCH  23  24
ATOM     24  C   UNL     1      34.917 -19.453 -20.748  0.00  0.00    -0.002 C 
ATOM     25  C   UNL     1      33.545 -19.611 -20.617  0.00  0.00    -0.003 C 
ATOM     26  C   UNL     1      35.796 -20.427 -20.294  0.00  0.00    -0.003 C 
ATOM     27  C   UNL     1      33.041 -20.767 -20.020  0.00  0.00    -0.000 C 
ATOM     28  C   UNL     1      35.292 -21.583 -19.697  0.00  0.00    -0.000 C 
ATOM     29  C   UNL     1      33.914 -21.753 -19.561  0.00  0.00    -0.000 C 
ENDBRANCH  23  24
ENDBRANCH   2  23
TORSDOF 7
ENDMDL
MODEL 5
REMARK VINA RESULT:      -7.9      7.381     12.407
REMARK  Name = 5289296
REMARK  7 active torsions:
REMARK  status: ('A' for Active; 'I' for Inactive)
REMARK    1  A    between atoms: N_1  and  C_14
REMARK    2  A    between atoms: N_2  and  C_23
REMARK    3  A    between atoms: N_3  and  CA_17
REMARK    4  A    between atoms: CA_17  and  C_18
REMARK    5  A    between atoms: CA_17  and  C_20
REMARK    6  A    between atoms: C_20  and  O_21
REMARK    7  A    between atoms: C_23  and  C_24
REMARK                            x       y       z     vdW  Elec       q    Type
REMARK                         _______ _______ _______ _____ _____    ______ ____
ROOT
ATOM      1  N   UNL     1      32.105 -12.694 -21.797  0.00  0.00    -0.262 N 
ATOM      2  N   UNL     1      34.579 -16.589 -21.779  0.00  0.00    -0.276 N 
ATOM      3  N   UNL     1      34.177 -14.148 -25.817  0.00  0.00    -0.258 N 
ATOM      4  N   UNL     1      33.084 -13.268 -23.944  0.00  0.00    -0.311 NA
ATOM      5  N   UNL     1      32.844 -14.403 -20.571  0.00  0.00    -0.240 NA
ATOM      6  N   UNL     1      34.365 -15.341 -23.809  0.00  0.00    -0.311 NA
ATOM      7  C   UNL     1      32.842 -13.474 -22.642  0.00  0.00    +0.220 C 
ATOM      8  C   UNL     1      33.291 -14.529 -21.862  0.00  0.00    +0.168 C 
ATOM      9  C   UNL     1      34.081 -15.485 -22.493  0.00  0.00    +0.219 C 
ATOM     10  C   UNL     1      33.864 -14.254 -24.475  0.00  0.00    +0.202 C 
ATOM     11  C   UNL     1      32.136 -13.293 -20.565  0.00  0.00    +0.222 C 
ATOM     12  C   UNL     1      34.867 -16.482 -20.360  0.00  0.00    +0.115 C 
ATOM     13  H   UNL     1      34.739 -14.848 -26.221  0.00  0.00    +0.160 HD
ENDROOT
BRANCH   1  14
ATOM     14  C   UNL     1      31.420 -11.469 -22.129  0.00  0.00    +0.077 C 
ATOM     15  C   UNL     1      30.495 -11.005 -21.002  0.00  0.00    +0.022 C 
ATOM     16  C   UNL     1      32.393 -10.365 -22.551  0.00  0.00    +0.022 C 
ENDBRANCH   1  14
BRANCH   3  17
ATOM     17  CA  UNL     1      33.720 -13.061 -26.661  0.00  0.00    +0.109 C 
BRANCH  17  18
ATOM     18  C   UNL     1      33.662 -11.761 -25.850  0.00  0.00    +0.023 C 
ATOM     19  C   UNL     1      34.950 -10.952 -25.944  0.00  0.00    +0.002 C 
ENDBRANCH  17  18
BRANCH  17  20
ATOM     20  C   UNL     1      32.340 -13.417 -27.217  0.00  0.00    +0.157 C 
BRANCH  20  21
ATOM     21  O   UNL     1      31.953 -14.698 -26.734  0.00  0.00    -0.380 OA
ATOM     22  H   UNL     1      31.198 -15.023 -27.249  0.00  0.00    +0.211 HD
ENDBRANCH  20  21
ENDBRANCH  17  20
ENDBRANCH   3  17
BRANCH   2  23
ATOM     23  C   UNL     1      34.801 -17.860 -22.445  0.00  0.00    +0.120 C 
BRANCH  23  24
ATOM     24  C   UNL     1      34.605 -19.025 -21.511  0.00  0.00    -0.002 C 
ATOM     25  C   UNL     1      33.319 -19.397 -21.144  0.00  0.00    -0.003 C 
ATOM     26  C   UNL     1      35.713 -19.709 -21.029  0.00  0.00    -0.003 C 
ATOM     27  C   UNL     1      33.138 -20.476 -20.279  0.00  0.00    -0.000 C 
ATOM     28  C   UNL     1      35.531 -20.787 -20.164  0.00  0.00    -0.000 C 
ATOM     29  C   UNL     1      34.243 -21.171 -19.789  0.00  0.00    -0.000 C 
ENDBRANCH  23  24
ENDBRANCH   2  23
TORSDOF 7
ENDMDL
