MODEL 1
REMARK VINA RESULT:     -10.1      0.000      0.000
REMARK  Name = 5289258
REMARK  13 active torsions:
REMARK  status: ('A' for Active; 'I' for Inactive)
REMARK    1  A    between atoms: C_1  and  C_4
REMARK    2  A    between atoms: C_1  and  N_12
REMARK    3  A    between atoms: C_1  and  C_23
REMARK    4  A    between atoms: N_3  and  C_6
REMARK    5  A    between atoms: C_6  and  C_7
REMARK    6  A    between atoms: C_7  and  C_8
REMARK    7  A    between atoms: C_13  and  C_15
REMARK    8  A    between atoms: C_15  and  O_16
REMARK    9  A    between atoms: C_15  and  C_18
REMARK   10  A    between atoms: C_18  and  C_20
REMARK   11  A    between atoms: C_20  and  O_21
REMARK   12  A    between atoms: C_23  and  C_24
REMARK   13  A    between atoms: C_24  and  C_25
REMARK                            x       y       z     vdW  Elec       q    Type
REMARK                         _______ _______ _______ _____ _____    ______ ____
ROOT
ATOM      1  C   UNL     1      34.618 -24.223 -15.470  0.00  0.00    +0.149 C 
ENDROOT
BRANCH   1   4
ATOM      2  O   UNL     1      33.787 -24.206 -13.193  0.00  0.00    -0.273 OA
ATOM      3  N   UNL     1      32.441 -23.349 -14.878  0.00  0.00    -0.303 N 
ATOM      4  C   UNL     1      33.599 -23.927 -14.375  0.00  0.00    +0.240 C 
ATOM      5  H   UNL     1      32.388 -23.164 -15.843  0.00  0.00    +0.149 HD
BRANCH   3   6
ATOM      6  C   UNL     1      31.312 -23.008 -14.044  0.00  0.00    +0.089 C 
BRANCH   6   7
ATOM      7  C   UNL     1      30.030 -22.807 -14.850  0.00  0.00    +0.021 C 
BRANCH   7   8
ATOM      8  C   UNL     1      29.599 -24.018 -15.700  0.00  0.00    +0.002 C 
ATOM      9  C   UNL     1      28.355 -23.659 -16.518  0.00  0.00    +0.000 C 
ATOM     10  C   UNL     1      29.316 -25.258 -14.851  0.00  0.00    +0.000 C 
ENDBRANCH   7   8
ENDBRANCH   6   7
ENDBRANCH   3   6
ENDBRANCH   1   4
BRANCH   1  12
ATOM     11  O   UNL     1      36.070 -26.680 -15.858  0.00  0.00    -0.272 OA
ATOM     12  N   UNL     1      35.866 -24.595 -14.856  0.00  0.00    -0.296 N 
ATOM     13  C   UNL     1      36.496 -25.808 -15.104  0.00  0.00    +0.250 C 
ATOM     14  H   UNL     1      36.291 -23.962 -14.233  0.00  0.00    +0.150 HD
BRANCH  13  15
ATOM     15  C   UNL     1      37.792 -25.967 -14.319  0.00  0.00    +0.198 C 
BRANCH  15  16
ATOM     16  O   UNL     1      38.322 -27.261 -14.575  0.00  0.00    -0.375 OA
ATOM     17  H   UNL     1      38.126 -27.515 -15.490  0.00  0.00    +0.211 HD
ENDBRANCH  15  16
BRANCH  15  18
ATOM     18  C   UNL     1      38.816 -24.899 -14.709  0.00  0.00    +0.148 C 
BRANCH  18  20
ATOM     19  O   UNL     1      41.069 -25.649 -14.158  0.00  0.00    -0.250 OA
ATOM     20  C   UNL     1      40.182 -25.490 -14.985  0.00  0.00    +0.317 C 
BRANCH  20  21
ATOM     21  O   UNL     1      40.315 -25.844 -16.291  0.00  0.00    -0.480 OA
ATOM     22  H   UNL     1      41.111 -26.235 -16.591  0.00  0.00    +0.295 HD
ENDBRANCH  20  21
ENDBRANCH  18  20
ENDBRANCH  15  18
ENDBRANCH  13  15
ENDBRANCH   1  12
BRANCH   1  23
ATOM     23  C   UNL     1      34.789 -23.059 -16.455  0.00  0.00    +0.034 C 
BRANCH  23  24
ATOM     24  C   UNL     1      33.918 -23.175 -17.713  0.00  0.00    +0.029 C 
BRANCH  24  25
ATOM     25  C   UNL     1      34.277 -22.120 -18.731  0.00  0.00    -0.022 C 
ATOM     26  C   UNL     1      35.615 -21.836 -18.999  0.00  0.00    -0.004 C 
ATOM     27  C   UNL     1      33.269 -21.430 -19.405  0.00  0.00    -0.004 C 
ATOM     28  C   UNL     1      35.947 -20.862 -19.939  0.00  0.00    -0.000 C 
ATOM     29  C   UNL     1      33.601 -20.455 -20.346  0.00  0.00    -0.000 C 
ATOM     30  C   UNL     1      34.940 -20.171 -20.613  0.00  0.00    -0.000 C 
ENDBRANCH  24  25
ENDBRANCH  23  24
ENDBRANCH   1  23
TORSDOF 13
ENDMDL
MODEL 2
REMARK VINA RESULT:      -9.6      2.499      7.055
REMARK  Name = 5289258
REMARK  13 active torsions:
REMARK  status: ('A' for Active; 'I' for Inactive)
REMARK    1  A    between atoms: C_1  and  C_4
REMARK    2  A    between atoms: C_1  and  N_12
REMARK    3  A    between atoms: C_1  and  C_23
REMARK    4  A    between atoms: N_3  and  C_6
REMARK    5  A    between atoms: C_6  and  C_7
REMARK    6  A    between atoms: C_7  and  C_8
REMARK    7  A    between atoms: C_13  and  C_15
REMARK    8  A    between atoms: C_15  and  O_16
REMARK    9  A    between atoms: C_15  and  C_18
REMARK   10  A    between atoms: C_18  and  C_20
REMARK   11  A    between atoms: C_20  and  O_21
REMARK   12  A    between atoms: C_23  and  C_24
REMARK   13  A    between atoms: C_24  and  C_25
REMARK                            x       y       z     vdW  Elec       q    Type
REMARK                         _______ _______ _______ _____ _____    ______ ____
ROOT
ATOM      1  C   UNL     1      33.451 -23.266 -15.812  0.00  0.00    +0.149 C 
ENDROOT
BRANCH   1   4
ATOM      2  O   UNL     1      34.141 -23.986 -13.602  0.00  0.00    -0.273 OA
ATOM      3  N   UNL     1      35.378 -24.679 -15.439  0.00  0.00    -0.303 N 
ATOM      4  C   UNL     1      34.333 -24.012 -14.816  0.00  0.00    +0.240 C 
ATOM      5  H   UNL     1      35.444 -24.640 -16.420  0.00  0.00    +0.149 HD
BRANCH   3   6
ATOM      6  C   UNL     1      36.372 -25.430 -14.707  0.00  0.00    +0.089 C 
BRANCH   6   7
ATOM      7  C   UNL     1      37.770 -24.827 -14.833  0.00  0.00    +0.021 C 
BRANCH   7   8
ATOM      8  C   UNL     1      38.665 -24.992 -13.590  0.00  0.00    +0.002 C 
ATOM      9  C   UNL     1      39.984 -25.660 -13.987  0.00  0.00    +0.000 C 
ATOM     10  C   UNL     1      37.988 -25.806 -12.486  0.00  0.00    +0.000 C 
ENDBRANCH   7   8
ENDBRANCH   6   7
ENDBRANCH   3   6
ENDBRANCH   1   4
BRANCH   1  12
ATOM     11  O   UNL     1      30.989 -22.681 -14.436  0.00  0.00    -0.272 OA
ATOM     12  N   UNL     1      32.200 -23.967 -15.943  0.00  0.00    -0.296 N 
ATOM     13  C   UNL     1      31.059 -23.612 -15.235  0.00  0.00    +0.250 C 
ATOM     14  H   UNL     1      32.152 -24.731 -16.561  0.00  0.00    +0.150 HD
BRANCH  13  15
ATOM     15  C   UNL     1      29.874 -24.520 -15.538  0.00  0.00    +0.198 C 
BRANCH  15  16
ATOM     16  O   UNL     1      29.856 -25.576 -14.588  0.00  0.00    -0.375 OA
ATOM     17  H   UNL     1      30.742 -25.683 -14.208  0.00  0.00    +0.211 HD
ENDBRANCH  15  16
BRANCH  15  18
ATOM     18  C   UNL     1      28.552 -23.750 -15.486  0.00  0.00    +0.148 C 
BRANCH  18  20
ATOM     19  O   UNL     1      28.411 -21.938 -17.111  0.00  0.00    -0.250 OA
ATOM     20  C   UNL     1      28.212 -23.108 -16.814  0.00  0.00    +0.317 C 
BRANCH  20  21
ATOM     21  O   UNL     1      27.652 -24.004 -17.670  0.00  0.00    -0.480 OA
ATOM     22  H   UNL     1      28.188 -24.646 -18.091  0.00  0.00    +0.295 HD
ENDBRANCH  20  21
ENDBRANCH  18  20
ENDBRANCH  15  18
ENDBRANCH  13  15
ENDBRANCH   1  12
BRANCH   1  23
ATOM     23  C   UNL     1      34.133 -23.053 -17.169  0.00  0.00    +0.034 C 
BRANCH  23  24
ATOM     24  C   UNL     1      33.176 -22.616 -18.286  0.00  0.00    +0.029 C 
BRANCH  24  25
ATOM     25  C   UNL     1      33.839 -21.645 -19.231  0.00  0.00    -0.022 C 
ATOM     26  C   UNL     1      33.066 -20.738 -19.956  0.00  0.00    -0.004 C 
ATOM     27  C   UNL     1      35.226 -21.654 -19.380  0.00  0.00    -0.004 C 
ATOM     28  C   UNL     1      33.679 -19.840 -20.829  0.00  0.00    -0.000 C 
ATOM     29  C   UNL     1      35.839 -20.755 -20.255  0.00  0.00    -0.000 C 
ATOM     30  C   UNL     1      35.066 -19.848 -20.979  0.00  0.00    -0.000 C 
ENDBRANCH  24  25
ENDBRANCH  23  24
ENDBRANCH   1  23
TORSDOF 13
ENDMDL
MODEL 3
REMARK VINA RESULT:      -9.6      1.695      5.180
REMARK  Name = 5289258
REMARK  13 active torsions:
REMARK  status: ('A' for Active; 'I' for Inactive)
REMARK    1  A    between atoms: C_1  and  C_4
REMARK    2  A    between atoms: C_1  and  N_12
REMARK    3  A    between atoms: C_1  and  C_23
REMARK    4  A    between atoms: N_3  and  C_6
REMARK    5  A    between atoms: C_6  and  C_7
REMARK    6  A    between atoms: C_7  and  C_8
REMARK    7  A    between atoms: C_13  and  C_15
REMARK    8  A    between atoms: C_15  and  O_16
REMARK    9  A    between atoms: C_15  and  C_18
REMARK   10  A    between atoms: C_18  and  C_20
REMARK   11  A    between atoms: C_20  and  O_21
REMARK   12  A    between atoms: C_23  and  C_24
REMARK   13  A    between atoms: C_24  and  C_25
REMARK                            x       y       z     vdW  Elec       q    Type
REMARK                         _______ _______ _______ _____ _____    ______ ____
ROOT
ATOM      1  C   UNL     1      35.620 -23.273 -15.414  0.00  0.00    +0.149 C 
ENDROOT
BRANCH   1   4
ATOM      2  O   UNL     1      37.134 -21.610 -16.318  0.00  0.00    -0.273 OA
ATOM      3  N   UNL     1      35.432 -22.422 -17.670  0.00  0.00    -0.303 N 
ATOM      4  C   UNL     1      36.169 -22.350 -16.497  0.00  0.00    +0.240 C 
ATOM      5  H   UNL     1      34.674 -23.049 -17.714  0.00  0.00    +0.149 HD
BRANCH   3   6
ATOM      6  C   UNL     1      35.731 -21.616 -18.832  0.00  0.00    +0.089 C 
BRANCH   6   7
ATOM      7  C   UNL     1      34.550 -21.518 -19.795  0.00  0.00    +0.021 C 
BRANCH   7   8
ATOM      8  C   UNL     1      34.261 -20.102 -20.330  0.00  0.00    +0.002 C 
ATOM      9  C   UNL     1      32.787 -19.991 -20.729  0.00  0.00    +0.000 C 
ATOM     10  C   UNL     1      35.146 -19.736 -21.522  0.00  0.00    +0.000 C 
ENDBRANCH   7   8
ENDBRANCH   6   7
ENDBRANCH   3   6
ENDBRANCH   1   4
BRANCH   1  12
ATOM     11  O   UNL     1      36.062 -24.806 -13.016  0.00  0.00    -0.272 OA
ATOM     12  N   UNL     1      36.517 -24.389 -15.254  0.00  0.00    -0.296 N 
ATOM     13  C   UNL     1      36.666 -25.070 -14.054  0.00  0.00    +0.250 C 
ATOM     14  H   UNL     1      37.048 -24.679 -16.031  0.00  0.00    +0.150 HD
BRANCH  13  15
ATOM     15  C   UNL     1      37.687 -26.197 -14.142  0.00  0.00    +0.198 C 
BRANCH  15  16
ATOM     16  O   UNL     1      37.727 -26.670 -15.481  0.00  0.00    -0.375 OA
ATOM     17  H   UNL     1      37.444 -27.597 -15.505  0.00  0.00    +0.211 HD
ENDBRANCH  15  16
BRANCH  15  18
ATOM     18  C   UNL     1      39.078 -25.726 -13.713  0.00  0.00    +0.148 C 
BRANCH  18  20
ATOM     19  O   UNL     1      40.905 -26.101 -15.284  0.00  0.00    -0.250 OA
ATOM     20  C   UNL     1      39.967 -25.417 -14.899  0.00  0.00    +0.317 C 
BRANCH  20  21
ATOM     21  O   UNL     1      39.591 -24.263 -15.513  0.00  0.00    -0.480 OA
ATOM     22  H   UNL     1      39.091 -24.295 -16.303  0.00  0.00    +0.295 HD
ENDBRANCH  20  21
ENDBRANCH  18  20
ENDBRANCH  15  18
ENDBRANCH  13  15
ENDBRANCH   1  12
BRANCH   1  23
ATOM     23  C   UNL     1      34.183 -23.730 -15.693  0.00  0.00    +0.034 C 
BRANCH  23  24
ATOM     24  C   UNL     1      33.184 -23.351 -14.591  0.00  0.00    +0.029 C 
BRANCH  24  25
ATOM     25  C   UNL     1      31.777 -23.757 -14.959  0.00  0.00    -0.022 C 
ATOM     26  C   UNL     1      31.210 -24.899 -14.394  0.00  0.00    -0.004 C 
ATOM     27  C   UNL     1      31.045 -22.989 -15.864  0.00  0.00    -0.004 C 
ATOM     28  C   UNL     1      29.911 -25.274 -14.733  0.00  0.00    -0.000 C 
ATOM     29  C   UNL     1      29.744 -23.365 -16.204  0.00  0.00    -0.000 C 
ATOM     30  C   UNL     1      29.177 -24.507 -15.639  0.00  0.00    -0.000 C 
ENDBRANCH  24  25
ENDBRANCH  23  24
ENDBRANCH   1  23
TORSDOF 13
ENDMDL
MODEL 4
REMARK VINA RESULT:      -9.5      1.434      2.205
REMARK  Name = 5289258
REMARK  13 active torsions:
REMARK  status: ('A' for Active; 'I' for Inactive)
REMARK    1  A    between atoms: C_1  and  C_4
REMARK    2  A    between atoms: C_1  and  N_12
REMARK    3  A    between atoms: C_1  and  C_23
REMARK    4  A    between atoms: N_3  and  C_6
REMARK    5  A    between atoms: C_6  and  C_7
REMARK    6  A    between atoms: C_7  and  C_8
REMARK    7  A    between atoms: C_13  and  C_15
REMARK    8  A    between atoms: C_15  and  O_16
REMARK    9  A    between atoms: C_15  and  C_18
REMARK   10  A    between atoms: C_18  and  C_20
REMARK   11  A    between atoms: C_20  and  O_21
REMARK   12  A    between atoms: C_23  and  C_24
REMARK   13  A    between atoms: C_24  and  C_25
REMARK                            x       y       z     vdW  Elec       q    Type
REMARK                         _______ _______ _______ _____ _____    ______ ____
ROOT
ATOM      1  C   UNL     1      34.508 -24.205 -15.482  0.00  0.00    +0.149 C 
ENDROOT
BRANCH   1   4
ATOM      2  O   UNL     1      33.762 -24.202 -13.176  0.00  0.00    -0.273 OA
ATOM      3  N   UNL     1      32.178 -24.394 -14.861  0.00  0.00    -0.303 N 
ATOM      4  C   UNL     1      33.467 -24.252 -14.369  0.00  0.00    +0.240 C 
ATOM      5  H   UNL     1      32.046 -24.423 -15.836  0.00  0.00    +0.149 HD
BRANCH   3   6
ATOM      6  C   UNL     1      31.020 -24.499 -14.003  0.00  0.00    +0.089 C 
BRANCH   6   7
ATOM      7  C   UNL     1      29.801 -25.059 -14.732  0.00  0.00    +0.021 C 
BRANCH   7   8
ATOM      8  C   UNL     1      28.822 -23.999 -15.274  0.00  0.00    +0.002 C 
ATOM      9  C   UNL     1      28.466 -24.319 -16.728  0.00  0.00    +0.000 C 
ATOM     10  C   UNL     1      29.386 -22.581 -15.182  0.00  0.00    +0.000 C 
ENDBRANCH   7   8
ENDBRANCH   6   7
ENDBRANCH   3   6
ENDBRANCH   1   4
BRANCH   1  12
ATOM     11  O   UNL     1      36.250 -26.498 -15.527  0.00  0.00    -0.272 OA
ATOM     12  N   UNL     1      35.820 -24.305 -14.899  0.00  0.00    -0.296 N 
ATOM     13  C   UNL     1      36.591 -25.458 -14.969  0.00  0.00    +0.250 C 
ATOM     14  H   UNL     1      36.186 -23.521 -14.428  0.00  0.00    +0.150 HD
BRANCH  13  15
ATOM     15  C   UNL     1      37.931 -25.312 -14.259  0.00  0.00    +0.198 C 
BRANCH  15  16
ATOM     16  O   UNL     1      38.536 -24.095 -14.675  0.00  0.00    -0.375 OA
ATOM     17  H   UNL     1      38.080 -23.762 -15.464  0.00  0.00    +0.211 HD
ENDBRANCH  15  16
BRANCH  15  18
ATOM     18  C   UNL     1      37.761 -25.315 -12.738  0.00  0.00    +0.148 C 
BRANCH  18  20
ATOM     19  O   UNL     1      38.794 -23.384 -11.668  0.00  0.00    -0.250 OA
ATOM     20  C   UNL     1      37.808 -23.919 -12.155  0.00  0.00    +0.317 C 
BRANCH  20  21
ATOM     21  O   UNL     1      36.599 -23.304 -12.242  0.00  0.00    -0.480 OA
ATOM     22  H   UNL     1      36.177 -23.216 -13.074  0.00  0.00    +0.295 HD
ENDBRANCH  20  21
ENDBRANCH  18  20
ENDBRANCH  15  18
ENDBRANCH  13  15
ENDBRANCH   1  12
BRANCH   1  23
ATOM     23  C   UNL     1      34.370 -22.964 -16.373  0.00  0.00    +0.034 C 
BRANCH  23  24
ATOM     24  C   UNL     1      33.747 -23.248 -17.746  0.00  0.00    +0.029 C 
BRANCH  24  25
ATOM     25  C   UNL     1      34.100 -22.174 -18.745  0.00  0.00    -0.022 C 
ATOM     26  C   UNL     1      33.089 -21.452 -19.380  0.00  0.00    -0.004 C 
ATOM     27  C   UNL     1      35.437 -21.903 -19.034  0.00  0.00    -0.004 C 
ATOM     28  C   UNL     1      33.415 -20.458 -20.303  0.00  0.00    -0.000 C 
ATOM     29  C   UNL     1      35.763 -20.909 -19.958  0.00  0.00    -0.000 C 
ATOM     30  C   UNL     1      34.753 -20.187 -20.592  0.00  0.00    -0.000 C 
ENDBRANCH  24  25
ENDBRANCH  23  24
ENDBRANCH   1  23
TORSDOF 13
ENDMDL
MODEL 5
REMARK VINA RESULT:      -9.3      2.741      6.563
REMARK  Name = 5289258
REMARK  13 active torsions:
REMARK  status: ('A' for Active; 'I' for Inactive)
REMARK    1  A    between atoms: C_1  and  C_4
REMARK    2  A    between atoms: C_1  and  N_12
REMARK    3  A    between atoms: C_1  and  C_23
REMARK    4  A    between atoms: N_3  and  C_6
REMARK    5  A    between atoms: C_6  and  C_7
REMARK    6  A    between atoms: C_7  and  C_8
REMARK    7  A    between atoms: C_13  and  C_15
REMARK    8  A    between atoms: C_15  and  O_16
REMARK    9  A    between atoms: C_15  and  C_18
REMARK   10  A    between atoms: C_18  and  C_20
REMARK   11  A    between atoms: C_20  and  O_21
REMARK   12  A    between atoms: C_23  and  C_24
REMARK   13  A    between atoms: C_24  and  C_25
REMARK                            x       y       z     vdW  Elec       q    Type
REMARK                         _______ _______ _______ _____ _____    ______ ____
ROOT
ATOM      1  C   UNL     1      33.226 -23.074 -16.677  0.00  0.00    +0.149 C 
ENDROOT
BRANCH   1   4
ATOM      2  O   UNL     1      34.966 -24.690 -16.190  0.00  0.00    -0.273 OA
ATOM      3  N   UNL     1      34.674 -22.896 -14.748  0.00  0.00    -0.303 N 
ATOM      4  C   UNL     1      34.387 -23.653 -15.875  0.00  0.00    +0.240 C 
ATOM      5  H   UNL     1      34.152 -22.078 -14.583  0.00  0.00    +0.149 HD
BRANCH   3   6
ATOM      6  C   UNL     1      35.709 -23.257 -13.807  0.00  0.00    +0.089 C 
BRANCH   6   7
ATOM      7  C   UNL     1      35.248 -24.320 -12.811  0.00  0.00    +0.021 C 
BRANCH   7   8
ATOM      8  C   UNL     1      36.293 -24.711 -11.747  0.00  0.00    +0.002 C 
ATOM      9  C   UNL     1      35.814 -24.263 -10.363  0.00  0.00    +0.000 C 
ATOM     10  C   UNL     1      37.671 -24.114 -12.033  0.00  0.00    +0.000 C 
ENDBRANCH   7   8
ENDBRANCH   6   7
ENDBRANCH   3   6
ENDBRANCH   1   4
BRANCH   1  12
ATOM     11  O   UNL     1      31.565 -22.834 -14.337  0.00  0.00    -0.272 OA
ATOM     12  N   UNL     1      32.035 -23.827 -16.383  0.00  0.00    -0.296 N 
ATOM     13  C   UNL     1      31.294 -23.643 -15.222  0.00  0.00    +0.250 C 
ATOM     14  H   UNL     1      31.733 -24.503 -17.032  0.00  0.00    +0.150 HD
BRANCH  13  15
ATOM     15  C   UNL     1      30.091 -24.573 -15.140  0.00  0.00    +0.198 C 
BRANCH  15  16
ATOM     16  O   UNL     1      30.097 -25.214 -13.872  0.00  0.00    -0.375 OA
ATOM     17  H   UNL     1      31.013 -25.388 -13.603  0.00  0.00    +0.211 HD
ENDBRANCH  15  16
BRANCH  15  18
ATOM     18  C   UNL     1      28.779 -23.808 -15.330  0.00  0.00    +0.148 C 
BRANCH  18  20
ATOM     19  O   UNL     1      29.116 -22.318 -17.230  0.00  0.00    -0.250 OA
ATOM     20  C   UNL     1      28.603 -23.320 -16.753  0.00  0.00    +0.317 C 
BRANCH  20  21
ATOM     21  O   UNL     1      27.794 -24.149 -17.465  0.00  0.00    -0.480 OA
ATOM     22  H   UNL     1      27.082 -23.796 -17.961  0.00  0.00    +0.295 HD
ENDBRANCH  20  21
ENDBRANCH  18  20
ENDBRANCH  15  18
ENDBRANCH  13  15
ENDBRANCH   1  12
BRANCH   1  23
ATOM     23  C   UNL     1      33.512 -23.021 -18.183  0.00  0.00    +0.034 C 
BRANCH  23  24
ATOM     24  C   UNL     1      34.786 -22.246 -18.548  0.00  0.00    +0.029 C 
BRANCH  24  25
ATOM     25  C   UNL     1      34.511 -21.198 -19.598  0.00  0.00    -0.022 C 
ATOM     26  C   UNL     1      35.568 -20.619 -20.300  0.00  0.00    -0.004 C 
ATOM     27  C   UNL     1      33.199 -20.808 -19.868  0.00  0.00    -0.004 C 
ATOM     28  C   UNL     1      35.314 -19.650 -21.270  0.00  0.00    -0.000 C 
ATOM     29  C   UNL     1      32.945 -19.838 -20.839  0.00  0.00    -0.000 C 
ATOM     30  C   UNL     1      34.003 -19.259 -21.540  0.00  0.00    -0.000 C 
ENDBRANCH  24  25
ENDBRANCH  23  24
ENDBRANCH   1  23
TORSDOF 13
ENDMDL
MODEL 6
REMARK VINA RESULT:      -9.2      9.342     12.539
REMARK  Name = 5289258
REMARK  13 active torsions:
REMARK  status: ('A' for Active; 'I' for Inactive)
REMARK    1  A    between atoms: C_1  and  C_4
REMARK    2  A    between atoms: C_1  and  N_12
REMARK    3  A    between atoms: C_1  and  C_23
REMARK    4  A    between atoms: N_3  and  C_6
REMARK    5  A    between atoms: C_6  and  C_7
REMARK    6  A    between atoms: C_7  and  C_8
REMARK    7  A    between atoms: C_13  and  C_15
REMARK    8  A    between atoms: C_15  and  O_16
REMARK    9  A    between atoms: C_15  and  C_18
REMARK   10  A    between atoms: C_18  and  C_20
REMARK   11  A    between atoms: C_20  and  O_21
REMARK   12  A    between atoms: C_23  and  C_24
REMARK   13  A    between atoms: C_24  and  C_25
REMARK                            x       y       z     vdW  Elec       q    Type
REMARK                         _______ _______ _______ _____ _____    ______ ____
ROOT
ATOM      1  C   UNL     1      34.360 -15.678 -21.891  0.00  0.00    +0.149 C 
ENDROOT
BRANCH   1   4
ATOM      2  O   UNL     1      32.083 -15.905 -21.089  0.00  0.00    -0.273 OA
ATOM      3  N   UNL     1      33.081 -13.810 -21.036  0.00  0.00    -0.303 N 
ATOM      4  C   UNL     1      33.052 -15.174 -21.289  0.00  0.00    +0.240 C 
ATOM      5  H   UNL     1      33.908 -13.313 -21.230  0.00  0.00    +0.149 HD
BRANCH   3   6
ATOM      6  C   UNL     1      31.950 -13.090 -20.499  0.00  0.00    +0.089 C 
BRANCH   6   7
ATOM      7  C   UNL     1      31.614 -11.841 -21.310  0.00  0.00    +0.021 C 
BRANCH   7   8
ATOM      8  C   UNL     1      31.175 -10.621 -20.475  0.00  0.00    +0.002 C 
ATOM      9  C   UNL     1      31.931  -9.375 -20.943  0.00  0.00    +0.000 C 
ATOM     10  C   UNL     1      31.400 -10.827 -18.976  0.00  0.00    +0.000 C 
ENDBRANCH   7   8
ENDBRANCH   6   7
ENDBRANCH   3   6
ENDBRANCH   1   4
BRANCH   1  12
ATOM     11  O   UNL     1      34.114 -13.656 -23.928  0.00  0.00    -0.272 OA
ATOM     12  N   UNL     1      34.171 -15.892 -23.303  0.00  0.00    -0.296 N 
ATOM     13  C   UNL     1      34.062 -14.850 -24.215  0.00  0.00    +0.250 C 
ATOM     14  H   UNL     1      34.116 -16.817 -23.634  0.00  0.00    +0.150 HD
BRANCH  13  15
ATOM     15  C   UNL     1      33.850 -15.340 -25.642  0.00  0.00    +0.198 C 
BRANCH  15  16
ATOM     16  O   UNL     1      33.637 -16.745 -25.613  0.00  0.00    -0.375 OA
ATOM     17  H   UNL     1      32.693 -16.926 -25.485  0.00  0.00    +0.211 HD
ENDBRANCH  15  16
BRANCH  15  18
ATOM     18  C   UNL     1      32.656 -14.646 -26.300  0.00  0.00    +0.148 C 
BRANCH  18  20
ATOM     19  O   UNL     1      34.214 -13.565 -27.832  0.00  0.00    -0.250 OA
ATOM     20  C   UNL     1      33.084 -13.673 -27.378  0.00  0.00    +0.317 C 
BRANCH  20  21
ATOM     21  O   UNL     1      32.039 -12.914 -27.804  0.00  0.00    -0.480 OA
ATOM     22  H   UNL     1      31.356 -12.682 -27.208  0.00  0.00    +0.295 HD
ENDBRANCH  20  21
ENDBRANCH  18  20
ENDBRANCH  15  18
ENDBRANCH  13  15
ENDBRANCH   1  12
BRANCH   1  23
ATOM     23  C   UNL     1      34.895 -16.932 -21.188  0.00  0.00    +0.034 C 
BRANCH  23  24
ATOM     24  C   UNL     1      34.724 -18.222 -22.001  0.00  0.00    +0.029 C 
BRANCH  24  25
ATOM     25  C   UNL     1      34.501 -19.414 -21.103  0.00  0.00    -0.022 C 
ATOM     26  C   UNL     1      35.587 -20.168 -20.662  0.00  0.00    -0.004 C 
ATOM     27  C   UNL     1      33.207 -19.761 -20.714  0.00  0.00    -0.004 C 
ATOM     28  C   UNL     1      35.381 -21.270 -19.831  0.00  0.00    -0.000 C 
ATOM     29  C   UNL     1      33.001 -20.863 -19.884  0.00  0.00    -0.000 C 
ATOM     30  C   UNL     1      34.087 -21.618 -19.442  0.00  0.00    -0.000 C 
ENDBRANCH  24  25
ENDBRANCH  23  24
ENDBRANCH   1  23
TORSDOF 13
ENDMDL
MODEL 7
REMARK VINA RESULT:      -9.1      9.264     12.493
REMARK  Name = 5289258
REMARK  13 active torsions:
REMARK  status: ('A' for Active; 'I' for Inactive)
REMARK    1  A    between atoms: C_1  and  C_4
REMARK    2  A    between atoms: C_1  and  N_12
REMARK    3  A    between atoms: C_1  and  C_23
REMARK    4  A    between atoms: N_3  and  C_6
REMARK    5  A    between atoms: C_6  and  C_7
REMARK    6  A    between atoms: C_7  and  C_8
REMARK    7  A    between atoms: C_13  and  C_15
REMARK    8  A    between atoms: C_15  and  O_16
REMARK    9  A    between atoms: C_15  and  C_18
REMARK   10  A    between atoms: C_18  and  C_20
REMARK   11  A    between atoms: C_20  and  O_21
REMARK   12  A    between atoms: C_23  and  C_24
REMARK   13  A    between atoms: C_24  and  C_25
REMARK                            x       y       z     vdW  Elec       q    Type
REMARK                         _______ _______ _______ _____ _____    ______ ____
ROOT
ATOM      1  C   UNL     1      34.540 -15.943 -22.621  0.00  0.00    +0.149 C 
ENDROOT
BRANCH   1   4
ATOM      2  O   UNL     1      34.840 -14.837 -20.485  0.00  0.00    -0.273 OA
ATOM      3  N   UNL     1      33.035 -14.231 -21.812  0.00  0.00    -0.303 N 
ATOM      4  C   UNL     1      34.186 -14.949 -21.520  0.00  0.00    +0.240 C 
ATOM      5  H   UNL     1      32.583 -14.393 -22.671  0.00  0.00    +0.149 HD
BRANCH   3   6
ATOM      6  C   UNL     1      32.474 -13.253 -20.909  0.00  0.00    +0.089 C 
BRANCH   6   7
ATOM      7  C   UNL     1      31.577 -12.244 -21.623  0.00  0.00    +0.021 C 
BRANCH   7   8
ATOM      8  C   UNL     1      31.166 -11.023 -20.776  0.00  0.00    +0.002 C 
ATOM      9  C   UNL     1      31.847  -9.765 -21.320  0.00  0.00    +0.000 C 
ATOM     10  C   UNL     1      31.510 -11.196 -19.296  0.00  0.00    +0.000 C 
ENDBRANCH   7   8
ENDBRANCH   6   7
ENDBRANCH   3   6
ENDBRANCH   1   4
BRANCH   1  12
ATOM     11  O   UNL     1      34.958 -17.054 -25.245  0.00  0.00    -0.272 OA
ATOM     12  N   UNL     1      33.914 -15.522 -23.848  0.00  0.00    -0.296 N 
ATOM     13  C   UNL     1      34.179 -16.120 -25.073  0.00  0.00    +0.250 C 
ATOM     14  H   UNL     1      33.270 -14.778 -23.816  0.00  0.00    +0.150 HD
BRANCH  13  15
ATOM     15  C   UNL     1      33.402 -15.481 -26.217  0.00  0.00    +0.198 C 
BRANCH  15  16
ATOM     16  O   UNL     1      32.340 -16.350 -26.586  0.00  0.00    -0.375 OA
ATOM     17  H   UNL     1      32.654 -17.268 -26.574  0.00  0.00    +0.211 HD
ENDBRANCH  15  16
BRANCH  15  18
ATOM     18  C   UNL     1      32.842 -14.114 -25.819  0.00  0.00    +0.148 C 
BRANCH  18  20
ATOM     19  O   UNL     1      33.751 -11.869 -26.094  0.00  0.00    -0.250 OA
ATOM     20  C   UNL     1      33.525 -12.980 -26.552  0.00  0.00    +0.317 C 
BRANCH  20  21
ATOM     21  O   UNL     1      33.879 -13.347 -27.813  0.00  0.00    -0.480 OA
ATOM     22  H   UNL     1      34.615 -12.943 -28.228  0.00  0.00    +0.295 HD
ENDBRANCH  20  21
ENDBRANCH  18  20
ENDBRANCH  15  18
ENDBRANCH  13  15
ENDBRANCH   1  12
BRANCH   1  23
ATOM     23  C   UNL     1      34.177 -17.388 -22.259  0.00  0.00    +0.034 C 
BRANCH  23  24
ATOM     24  C   UNL     1      35.383 -18.256 -21.875  0.00  0.00    +0.029 C 
BRANCH  24  25
ATOM     25  C   UNL     1      34.968 -19.431 -21.023  0.00  0.00    -0.022 C 
ATOM     26  C   UNL     1      35.937 -20.250 -20.444  0.00  0.00    -0.004 C 
ATOM     27  C   UNL     1      33.614 -19.697 -20.814  0.00  0.00    -0.004 C 
ATOM     28  C   UNL     1      35.553 -21.335 -19.656  0.00  0.00    -0.000 C 
ATOM     29  C   UNL     1      33.231 -20.783 -20.026  0.00  0.00    -0.000 C 
ATOM     30  C   UNL     1      34.200 -21.602 -19.447  0.00  0.00    -0.000 C 
ENDBRANCH  24  25
ENDBRANCH  23  24
ENDBRANCH   1  23
TORSDOF 13
ENDMDL
MODEL 8
REMARK VINA RESULT:      -9.1      1.878      5.577
REMARK  Name = 5289258
REMARK  13 active torsions:
REMARK  status: ('A' for Active; 'I' for Inactive)
REMARK    1  A    between atoms: C_1  and  C_4
REMARK    2  A    between atoms: C_1  and  N_12
REMARK    3  A    between atoms: C_1  and  C_23
REMARK    4  A    between atoms: N_3  and  C_6
REMARK    5  A    between atoms: C_6  and  C_7
REMARK    6  A    between atoms: C_7  and  C_8
REMARK    7  A    between atoms: C_13  and  C_15
REMARK    8  A    between atoms: C_15  and  O_16
REMARK    9  A    between atoms: C_15  and  C_18
REMARK   10  A    between atoms: C_18  and  C_20
REMARK   11  A    between atoms: C_20  and  O_21
REMARK   12  A    between atoms: C_23  and  C_24
REMARK   13  A    between atoms: C_24  and  C_25
REMARK                            x       y       z     vdW  Elec       q    Type
REMARK                         _______ _______ _______ _____ _____    ______ ____
ROOT
ATOM      1  C   UNL     1      34.399 -23.190 -15.903  0.00  0.00    +0.149 C 
ENDROOT
BRANCH   1   4
ATOM      2  O   UNL     1      33.028 -23.591 -17.861  0.00  0.00    -0.273 OA
ATOM      3  N   UNL     1      34.976 -22.352 -18.097  0.00  0.00    -0.303 N 
ATOM      4  C   UNL     1      34.033 -23.072 -17.378  0.00  0.00    +0.240 C 
ATOM      5  H   UNL     1      35.748 -21.974 -17.616  0.00  0.00    +0.149 HD
BRANCH   3   6
ATOM      6  C   UNL     1      34.873 -22.132 -19.521  0.00  0.00    +0.089 C 
BRANCH   6   7
ATOM      7  C   UNL     1      35.459 -20.788 -19.949  0.00  0.00    +0.021 C 
BRANCH   7   8
ATOM      8  C   UNL     1      34.450 -19.807 -20.576  0.00  0.00    +0.002 C 
ATOM      9  C   UNL     1      33.030 -20.361 -20.428  0.00  0.00    +0.000 C 
ATOM     10  C   UNL     1      34.742 -19.531 -22.052  0.00  0.00    +0.000 C 
ENDBRANCH   7   8
ENDBRANCH   6   7
ENDBRANCH   3   6
ENDBRANCH   1   4
BRANCH   1  12
ATOM     11  O   UNL     1      36.298 -23.018 -13.744  0.00  0.00    -0.272 OA
ATOM     12  N   UNL     1      35.643 -23.906 -15.787  0.00  0.00    -0.296 N 
ATOM     13  C   UNL     1      36.500 -23.758 -14.704  0.00  0.00    +0.250 C 
ATOM     14  H   UNL     1      35.897 -24.526 -16.508  0.00  0.00    +0.150 HD
BRANCH  13  15
ATOM     15  C   UNL     1      37.756 -24.611 -14.829  0.00  0.00    +0.198 C 
BRANCH  15  16
ATOM     16  O   UNL     1      38.768 -23.839 -15.462  0.00  0.00    -0.375 OA
ATOM     17  H   UNL     1      38.362 -23.083 -15.914  0.00  0.00    +0.211 HD
ENDBRANCH  15  16
BRANCH  15  18
ATOM     18  C   UNL     1      38.245 -25.090 -13.461  0.00  0.00    +0.148 C 
BRANCH  18  20
ATOM     19  O   UNL     1      36.832 -26.087 -11.742  0.00  0.00    -0.250 OA
ATOM     20  C   UNL     1      37.328 -26.134 -12.859  0.00  0.00    +0.317 C 
BRANCH  20  21
ATOM     21  O   UNL     1      37.103 -27.155 -13.727  0.00  0.00    -0.480 OA
ATOM     22  H   UNL     1      36.276 -27.228 -14.160  0.00  0.00    +0.295 HD
ENDBRANCH  20  21
ENDBRANCH  18  20
ENDBRANCH  15  18
ENDBRANCH  13  15
ENDBRANCH   1  12
BRANCH   1  23
ATOM     23  C   UNL     1      33.288 -23.834 -15.064  0.00  0.00    +0.034 C 
BRANCH  23  24
ATOM     24  C   UNL     1      32.181 -22.857 -14.642  0.00  0.00    +0.029 C 
BRANCH  24  25
ATOM     25  C   UNL     1      30.830 -23.306 -15.145  0.00  0.00    -0.022 C 
ATOM     26  C   UNL     1      30.206 -24.415 -14.574  0.00  0.00    -0.004 C 
ATOM     27  C   UNL     1      30.206 -22.610 -16.181  0.00  0.00    -0.004 C 
ATOM     28  C   UNL     1      28.958 -24.829 -15.039  0.00  0.00    -0.000 C 
ATOM     29  C   UNL     1      28.957 -23.025 -16.646  0.00  0.00    -0.000 C 
ATOM     30  C   UNL     1      28.333 -24.134 -16.075  0.00  0.00    -0.000 C 
ENDBRANCH  24  25
ENDBRANCH  23  24
ENDBRANCH   1  23
TORSDOF 13
ENDMDL
MODEL 9
REMARK VINA RESULT:      -8.9      2.066      3.113
REMARK  Name = 5289258
REMARK  13 active torsions:
REMARK  status: ('A' for Active; 'I' for Inactive)
REMARK    1  A    between atoms: C_1  and  C_4
REMARK    2  A    between atoms: C_1  and  N_12
REMARK    3  A    between atoms: C_1  and  C_23
REMARK    4  A    between atoms: N_3  and  C_6
REMARK    5  A    between atoms: C_6  and  C_7
REMARK    6  A    between atoms: C_7  and  C_8
REMARK    7  A    between atoms: C_13  and  C_15
REMARK    8  A    between atoms: C_15  and  O_16
REMARK    9  A    between atoms: C_15  and  C_18
REMARK   10  A    between atoms: C_18  and  C_20
REMARK   11  A    between atoms: C_20  and  O_21
REMARK   12  A    between atoms: C_23  and  C_24
REMARK   13  A    between atoms: C_24  and  C_25
REMARK                            x       y       z     vdW  Elec       q    Type
REMARK                         _______ _______ _______ _____ _____    ______ ____
ROOT
ATOM      1  C   UNL     1      35.549 -22.962 -16.959  0.00  0.00    +0.149 C 
ENDROOT
BRANCH   1   4
ATOM      2  O   UNL     1      33.756 -23.654 -18.436  0.00  0.00    -0.273 OA
ATOM      3  N   UNL     1      33.244 -23.107 -16.240  0.00  0.00    -0.303 N 
ATOM      4  C   UNL     1      34.104 -23.295 -17.313  0.00  0.00    +0.240 C 
ATOM      5  H   UNL     1      33.622 -22.818 -15.379  0.00  0.00    +0.149 HD
BRANCH   3   6
ATOM      6  C   UNL     1      31.819 -23.321 -16.333  0.00  0.00    +0.089 C 
BRANCH   6   7
ATOM      7  C   UNL     1      31.081 -22.904 -15.063  0.00  0.00    +0.021 C 
BRANCH   7   8
ATOM      8  C   UNL     1      29.778 -23.679 -14.782  0.00  0.00    +0.002 C 
ATOM      9  C   UNL     1      30.024 -25.181 -14.951  0.00  0.00    +0.000 C 
ATOM     10  C   UNL     1      28.629 -23.241 -15.691  0.00  0.00    +0.000 C 
ENDBRANCH   7   8
ENDBRANCH   6   7
ENDBRANCH   3   6
ENDBRANCH   1   4
BRANCH   1  12
ATOM     11  O   UNL     1      37.965 -23.400 -15.453  0.00  0.00    -0.272 OA
ATOM     12  N   UNL     1      35.688 -22.952 -15.526  0.00  0.00    -0.296 N 
ATOM     13  C   UNL     1      36.899 -23.175 -14.884  0.00  0.00    +0.250 C 
ATOM     14  H   UNL     1      34.888 -22.779 -14.978  0.00  0.00    +0.150 HD
BRANCH  13  15
ATOM     15  C   UNL     1      36.776 -23.129 -13.367  0.00  0.00    +0.198 C 
BRANCH  15  16
ATOM     16  O   UNL     1      35.404 -23.251 -13.018  0.00  0.00    -0.375 OA
ATOM     17  H   UNL     1      35.318 -23.824 -12.241  0.00  0.00    +0.211 HD
ENDBRANCH  15  16
BRANCH  15  18
ATOM     18  C   UNL     1      37.583 -24.249 -12.705  0.00  0.00    +0.148 C 
BRANCH  18  20
ATOM     19  O   UNL     1      36.152 -25.360 -11.074  0.00  0.00    -0.250 OA
ATOM     20  C   UNL     1      36.695 -25.352 -12.170  0.00  0.00    +0.317 C 
BRANCH  20  21
ATOM     21  O   UNL     1      36.559 -26.360 -13.071  0.00  0.00    -0.480 OA
ATOM     22  H   UNL     1      36.258 -26.175 -13.938  0.00  0.00    +0.295 HD
ENDBRANCH  20  21
ENDBRANCH  18  20
ENDBRANCH  15  18
ENDBRANCH  13  15
ENDBRANCH   1  12
BRANCH   1  23
ATOM     23  C   UNL     1      36.030 -21.650 -17.591  0.00  0.00    +0.034 C 
BRANCH  23  24
ATOM     24  C   UNL     1      36.418 -21.776 -19.071  0.00  0.00    +0.029 C 
BRANCH  24  25
ATOM     25  C   UNL     1      35.770 -20.698 -19.905  0.00  0.00    -0.022 C 
ATOM     26  C   UNL     1      36.548 -19.681 -20.458  0.00  0.00    -0.004 C 
ATOM     27  C   UNL     1      34.392 -20.719 -20.122  0.00  0.00    -0.004 C 
ATOM     28  C   UNL     1      35.949 -18.685 -21.229  0.00  0.00    -0.000 C 
ATOM     29  C   UNL     1      33.793 -19.723 -20.893  0.00  0.00    -0.000 C 
ATOM     30  C   UNL     1      34.571 -18.706 -21.447  0.00  0.00    -0.000 C 
ENDBRANCH  24  25
ENDBRANCH  23  24
ENDBRANCH   1  23
TORSDOF 13
ENDMDL
