MODEL 1
REMARK VINA RESULT:     -12.3      0.000      0.000
REMARK  Name = 44563262
REMARK  2 active torsions:
REMARK  status: ('A' for Active; 'I' for Inactive)
REMARK    1  A    between atoms: N_2  and  C_13
REMARK    2  A    between atoms: C_6  and  C_19
REMARK                            x       y       z     vdW  Elec       q    Type
REMARK                         _______ _______ _______ _____ _____    ______ ____
ROOT
ATOM      1  N   UNL     1      34.596 -17.247 -23.446  0.00  0.00    -0.243 N 
ATOM      2  N   UNL     1      33.919 -13.625 -23.889  0.00  0.00    -0.296 N 
ATOM      3  N   UNL     1      34.315 -14.904 -21.981  0.00  0.00    -0.226 NA
ATOM      4  N   UNL     1      34.487 -17.687 -25.626  0.00  0.00    -0.224 NA
ATOM      5  C   UNL     1      34.329 -16.051 -24.072  0.00  0.00    +0.108 C 
ATOM      6  C   UNL     1      34.728 -17.297 -22.061  0.00  0.00    +0.076 C 
ATOM      7  C   UNL     1      34.185 -14.835 -23.290  0.00  0.00    +0.148 C 
ATOM      8  C   UNL     1      34.583 -16.130 -21.394  0.00  0.00    +0.115 C 
ATOM      9  C   UNL     1      34.687 -18.198 -24.429  0.00  0.00    +0.172 C 
ATOM     10  C   UNL     1      34.263 -16.350 -25.412  0.00  0.00    +0.118 C 
ATOM     11  H   UNL     1      34.263 -13.500 -24.803  0.00  0.00    +0.154 HD
ENDROOT
BRANCH   2  13
ATOM     12 CL   UNL     1      34.592 -10.875 -24.981  0.00  0.00    -0.081 Cl
ATOM     13  C   UNL     1      33.211 -12.561 -23.338  0.00  0.00    +0.060 C 
ATOM     14  C   UNL     1      33.432 -11.249 -23.756  0.00  0.00    +0.071 C 
ATOM     15  C   UNL     1      32.267 -12.827 -22.346  0.00  0.00    +0.015 C 
ATOM     16  C   UNL     1      32.709 -10.203 -23.183  0.00  0.00    +0.013 C 
ATOM     17  C   UNL     1      31.544 -11.781 -21.773  0.00  0.00    +0.001 C 
ATOM     18  C   UNL     1      31.764 -10.469 -22.192  0.00  0.00    +0.001 C 
ENDBRANCH   2  13
BRANCH   6  19
ATOM     19  C   UNL     1      35.000 -18.541 -21.325  0.00  0.00    +0.016 C 
ATOM     20  C   UNL     1      33.943 -19.354 -20.916  0.00  0.00    +0.001 C 
ATOM     21  C   UNL     1      36.313 -18.908 -21.036  0.00  0.00    +0.001 C 
ATOM     22  C   UNL     1      34.200 -20.533 -20.218  0.00  0.00    +0.000 C 
ATOM     23  C   UNL     1      36.571 -20.089 -20.339  0.00  0.00    +0.000 C 
ATOM     24  C   UNL     1      35.513 -20.901 -19.929  0.00  0.00    +0.000 C 
ENDBRANCH   6  19
TORSDOF 2
ENDMDL
MODEL 2
REMARK VINA RESULT:     -10.4      2.394      7.214
REMARK  Name = 44563262
REMARK  2 active torsions:
REMARK  status: ('A' for Active; 'I' for Inactive)
REMARK    1  A    between atoms: N_2  and  C_13
REMARK    2  A    between atoms: C_6  and  C_19
REMARK                            x       y       z     vdW  Elec       q    Type
REMARK                         _______ _______ _______ _____ _____    ______ ____
ROOT
ATOM      1  N   UNL     1      33.508 -14.952 -24.115  0.00  0.00    -0.243 N 
ATOM      2  N   UNL     1      34.452 -18.328 -22.898  0.00  0.00    -0.296 N 
ATOM      3  N   UNL     1      33.841 -16.387 -21.760  0.00  0.00    -0.226 NA
ATOM      4  N   UNL     1      33.737 -15.497 -26.261  0.00  0.00    -0.224 NA
ATOM      5  C   UNL     1      33.895 -16.272 -24.142  0.00  0.00    +0.108 C 
ATOM      6  C   UNL     1      33.278 -14.316 -22.898  0.00  0.00    +0.076 C 
ATOM      7  C   UNL     1      34.066 -17.008 -22.901  0.00  0.00    +0.148 C 
ATOM      8  C   UNL     1      33.454 -15.057 -21.781  0.00  0.00    +0.115 C 
ATOM      9  C   UNL     1      33.422 -14.536 -25.418  0.00  0.00    +0.172 C 
ATOM     10  C   UNL     1      34.033 -16.582 -25.474  0.00  0.00    +0.118 C 
ATOM     11  H   UNL     1      34.180 -18.870 -23.674  0.00  0.00    +0.154 HD
ENDROOT
BRANCH   2  13
ATOM     12 CL   UNL     1      32.879 -20.153 -21.052  0.00  0.00    -0.081 Cl
ATOM     13  C   UNL     1      35.188 -18.978 -21.912  0.00  0.00    +0.060 C 
ATOM     14  C   UNL     1      34.578 -19.842 -21.002  0.00  0.00    +0.071 C 
ATOM     15  C   UNL     1      36.562 -18.749 -21.843  0.00  0.00    +0.015 C 
ATOM     16  C   UNL     1      35.343 -20.478 -20.024  0.00  0.00    +0.013 C 
ATOM     17  C   UNL     1      37.327 -19.385 -20.864  0.00  0.00    +0.001 C 
ATOM     18  C   UNL     1      36.717 -20.249 -19.955  0.00  0.00    +0.001 C 
ENDBRANCH   2  13
BRANCH   6  19
ATOM     19  C   UNL     1      32.874 -12.905 -22.793  0.00  0.00    +0.016 C 
ATOM     20  C   UNL     1      31.905 -12.525 -21.865  0.00  0.00    +0.001 C 
ATOM     21  C   UNL     1      33.460 -11.948 -23.621  0.00  0.00    +0.001 C 
ATOM     22  C   UNL     1      31.521 -11.188 -21.766  0.00  0.00    +0.000 C 
ATOM     23  C   UNL     1      33.077 -10.610 -23.521  0.00  0.00    +0.000 C 
ATOM     24  C   UNL     1      32.107 -10.230 -22.594  0.00  0.00    +0.000 C 
ENDBRANCH   6  19
TORSDOF 2
ENDMDL
MODEL 3
REMARK VINA RESULT:     -10.4      6.254      9.529
REMARK  Name = 44563262
REMARK  2 active torsions:
REMARK  status: ('A' for Active; 'I' for Inactive)
REMARK    1  A    between atoms: N_2  and  C_13
REMARK    2  A    between atoms: C_6  and  C_19
REMARK                            x       y       z     vdW  Elec       q    Type
REMARK                         _______ _______ _______ _____ _____    ______ ____
ROOT
ATOM      1  N   UNL     1      34.975 -23.349 -15.822  0.00  0.00    -0.243 N 
ATOM      2  N   UNL     1      34.744 -21.830 -19.200  0.00  0.00    -0.296 N 
ATOM      3  N   UNL     1      36.547 -22.107 -17.747  0.00  0.00    -0.226 NA
ATOM      4  N   UNL     1      32.813 -23.873 -15.746  0.00  0.00    -0.224 NA
ATOM      5  C   UNL     1      34.428 -22.919 -17.009  0.00  0.00    +0.108 C 
ATOM      6  C   UNL     1      36.332 -23.164 -15.571  0.00  0.00    +0.076 C 
ATOM      7  C   UNL     1      35.264 -22.270 -18.006  0.00  0.00    +0.148 C 
ATOM      8  C   UNL     1      37.053 -22.556 -16.538  0.00  0.00    +0.115 C 
ATOM      9  C   UNL     1      33.960 -23.922 -15.102  0.00  0.00    +0.172 C 
ATOM     10  C   UNL     1      33.096 -23.250 -16.936  0.00  0.00    +0.118 C 
ATOM     11  H   UNL     1      33.975 -22.329 -19.558  0.00  0.00    +0.154 HD
ENDROOT
BRANCH   2  13
ATOM     12 CL   UNL     1      32.591 -20.097 -20.452  0.00  0.00    -0.081 Cl
ATOM     13  C   UNL     1      35.194 -20.751 -19.956  0.00  0.00    +0.060 C 
ATOM     14  C   UNL     1      34.300 -19.882 -20.582  0.00  0.00    +0.071 C 
ATOM     15  C   UNL     1      36.568 -20.549 -20.082  0.00  0.00    +0.015 C 
ATOM     16  C   UNL     1      34.781 -18.810 -21.334  0.00  0.00    +0.013 C 
ATOM     17  C   UNL     1      37.048 -19.476 -20.835  0.00  0.00    +0.001 C 
ATOM     18  C   UNL     1      36.154 -18.607 -21.460  0.00  0.00    +0.001 C 
ENDBRANCH   2  13
BRANCH   6  19
ATOM     19  C   UNL     1      36.981 -23.588 -14.320  0.00  0.00    +0.016 C 
ATOM     20  C   UNL     1      37.906 -24.632 -14.334  0.00  0.00    +0.001 C 
ATOM     21  C   UNL     1      36.673 -22.946 -13.122  0.00  0.00    +0.001 C 
ATOM     22  C   UNL     1      38.521 -25.035 -13.149  0.00  0.00    +0.000 C 
ATOM     23  C   UNL     1      37.288 -23.348 -11.936  0.00  0.00    +0.000 C 
ATOM     24  C   UNL     1      38.213 -24.393 -11.950  0.00  0.00    +0.000 C 
ENDBRANCH   6  19
TORSDOF 2
ENDMDL
MODEL 4
REMARK VINA RESULT:     -10.4      2.597      7.310
REMARK  Name = 44563262
REMARK  2 active torsions:
REMARK  status: ('A' for Active; 'I' for Inactive)
REMARK    1  A    between atoms: N_2  and  C_13
REMARK    2  A    between atoms: C_6  and  C_19
REMARK                            x       y       z     vdW  Elec       q    Type
REMARK                         _______ _______ _______ _____ _____    ______ ____
ROOT
ATOM      1  N   UNL     1      33.962 -16.044 -23.800  0.00  0.00    -0.243 N 
ATOM      2  N   UNL     1      34.668 -19.347 -22.263  0.00  0.00    -0.296 N 
ATOM      3  N   UNL     1      33.945 -17.331 -21.339  0.00  0.00    -0.226 NA
ATOM      4  N   UNL     1      34.471 -16.725 -25.858  0.00  0.00    -0.224 NA
ATOM      5  C   UNL     1      34.325 -17.367 -23.694  0.00  0.00    +0.108 C 
ATOM      6  C   UNL     1      33.581 -15.330 -22.667  0.00  0.00    +0.076 C 
ATOM      7  C   UNL     1      34.311 -18.026 -22.399  0.00  0.00    +0.148 C 
ATOM      8  C   UNL     1      33.589 -16.002 -21.494  0.00  0.00    +0.115 C 
ATOM      9  C   UNL     1      34.062 -15.710 -25.126  0.00  0.00    +0.172 C 
ATOM     10  C   UNL     1      34.636 -17.761 -24.973  0.00  0.00    +0.118 C 
ATOM     11  H   UNL     1      34.494 -19.933 -23.035  0.00  0.00    +0.154 HD
ENDROOT
BRANCH   2  13
ATOM     12 CL   UNL     1      32.801 -20.943 -20.481  0.00  0.00    -0.081 Cl
ATOM     13  C   UNL     1      35.251 -19.941 -21.147  0.00  0.00    +0.060 C 
ATOM     14  C   UNL     1      34.496 -20.700 -20.252  0.00  0.00    +0.071 C 
ATOM     15  C   UNL     1      36.617 -19.764 -20.932  0.00  0.00    +0.015 C 
ATOM     16  C   UNL     1      35.109 -21.281 -19.142  0.00  0.00    +0.013 C 
ATOM     17  C   UNL     1      37.230 -20.346 -19.822  0.00  0.00    +0.001 C 
ATOM     18  C   UNL     1      36.475 -21.105 -18.927  0.00  0.00    +0.001 C 
ENDBRANCH   2  13
BRANCH   6  19
ATOM     19  C   UNL     1      33.193 -13.911 -22.705  0.00  0.00    +0.016 C 
ATOM     20  C   UNL     1      32.222 -13.431 -21.826  0.00  0.00    +0.001 C 
ATOM     21  C   UNL     1      33.796 -13.048 -23.618  0.00  0.00    +0.001 C 
ATOM     22  C   UNL     1      31.854 -12.087 -21.862  0.00  0.00    +0.000 C 
ATOM     23  C   UNL     1      33.428 -11.702 -23.653  0.00  0.00    +0.000 C 
ATOM     24  C   UNL     1      32.456 -11.222 -22.775  0.00  0.00    +0.000 C 
ENDBRANCH   6  19
TORSDOF 2
ENDMDL
MODEL 5
REMARK VINA RESULT:     -10.0      2.991      8.617
REMARK  Name = 44563262
REMARK  2 active torsions:
REMARK  status: ('A' for Active; 'I' for Inactive)
REMARK    1  A    between atoms: N_2  and  C_13
REMARK    2  A    between atoms: C_6  and  C_19
REMARK                            x       y       z     vdW  Elec       q    Type
REMARK                         _______ _______ _______ _____ _____    ______ ____
ROOT
ATOM      1  N   UNL     1      32.162 -10.740 -22.354  0.00  0.00    -0.243 N 
ATOM      2  N   UNL     1      33.426 -14.224 -22.529  0.00  0.00    -0.296 N 
ATOM      3  N   UNL     1      33.959 -12.320 -23.765  0.00  0.00    -0.226 NA
ATOM      4  N   UNL     1      30.767 -11.171 -20.673  0.00  0.00    -0.224 NA
ATOM      5  C   UNL     1      32.312 -12.075 -22.056  0.00  0.00    +0.108 C 
ATOM      6  C   UNL     1      32.914 -10.162 -23.373  0.00  0.00    +0.076 C 
ATOM      7  C   UNL     1      33.256 -12.887 -22.805  0.00  0.00    +0.148 C 
ATOM      8  C   UNL     1      33.774 -10.973 -24.029  0.00  0.00    +0.115 C 
ATOM      9  C   UNL     1      31.224 -10.243 -21.486  0.00  0.00    +0.172 C 
ATOM     10  C   UNL     1      31.440 -12.316 -21.021  0.00  0.00    +0.118 C 
ATOM     11  H   UNL     1      33.274 -14.507 -21.598  0.00  0.00    +0.154 HD
ENDROOT
BRANCH   2  13
ATOM     12 CL   UNL     1      34.979 -16.561 -21.372  0.00  0.00    -0.081 Cl
ATOM     13  C   UNL     1      33.791 -15.220 -23.431  0.00  0.00    +0.060 C 
ATOM     14  C   UNL     1      34.507 -16.344 -23.020  0.00  0.00    +0.071 C 
ATOM     15  C   UNL     1      33.426 -15.076 -24.770  0.00  0.00    +0.015 C 
ATOM     16  C   UNL     1      34.859 -17.325 -23.948  0.00  0.00    +0.013 C 
ATOM     17  C   UNL     1      33.778 -16.057 -25.697  0.00  0.00    +0.001 C 
ATOM     18  C   UNL     1      34.494 -17.181 -25.286  0.00  0.00    +0.001 C 
ENDBRANCH   2  13
BRANCH   6  19
ATOM     19  C   UNL     1      32.797  -8.745 -23.752  0.00  0.00    +0.016 C 
ATOM     20  C   UNL     1      33.946  -7.977 -23.938  0.00  0.00    +0.001 C 
ATOM     21  C   UNL     1      31.539  -8.171 -23.927  0.00  0.00    +0.001 C 
ATOM     22  C   UNL     1      33.836  -6.634 -24.297  0.00  0.00    +0.000 C 
ATOM     23  C   UNL     1      31.428  -6.828 -24.287  0.00  0.00    +0.000 C 
ATOM     24  C   UNL     1      32.577  -6.059 -24.471  0.00  0.00    +0.000 C 
ENDBRANCH   6  19
TORSDOF 2
ENDMDL
MODEL 6
REMARK VINA RESULT:      -9.9      2.442      7.597
REMARK  Name = 44563262
REMARK  2 active torsions:
REMARK  status: ('A' for Active; 'I' for Inactive)
REMARK    1  A    between atoms: N_2  and  C_13
REMARK    2  A    between atoms: C_6  and  C_19
REMARK                            x       y       z     vdW  Elec       q    Type
REMARK                         _______ _______ _______ _____ _____    ______ ____
ROOT
ATOM      1  N   UNL     1      33.548 -12.636 -25.270  0.00  0.00    -0.243 N 
ATOM      2  N   UNL     1      33.698 -16.147 -24.076  0.00  0.00    -0.296 N 
ATOM      3  N   UNL     1      33.742 -14.117 -22.929  0.00  0.00    -0.226 NA
ATOM      4  N   UNL     1      33.397 -13.214 -27.415  0.00  0.00    -0.224 NA
ATOM      5  C   UNL     1      33.571 -14.011 -25.305  0.00  0.00    +0.108 C 
ATOM      6  C   UNL     1      33.624 -11.967 -24.051  0.00  0.00    +0.076 C 
ATOM      7  C   UNL     1      33.673 -14.771 -24.071  0.00  0.00    +0.148 C 
ATOM      8  C   UNL     1      33.717 -12.733 -22.942  0.00  0.00    +0.115 C 
ATOM      9  C   UNL     1      33.436 -12.208 -26.567  0.00  0.00    +0.172 C 
ATOM     10  C   UNL     1      33.480 -14.341 -26.636  0.00  0.00    +0.118 C 
ATOM     11  H   UNL     1      33.213 -16.594 -24.807  0.00  0.00    +0.154 HD
ENDROOT
BRANCH   2  13
ATOM     12 CL   UNL     1      34.393 -18.936 -25.050  0.00  0.00    -0.081 Cl
ATOM     13  C   UNL     1      34.339 -16.971 -23.156  0.00  0.00    +0.060 C 
ATOM     14  C   UNL     1      34.709 -18.275 -23.485  0.00  0.00    +0.071 C 
ATOM     15  C   UNL     1      34.609 -16.469 -21.883  0.00  0.00    +0.015 C 
ATOM     16  C   UNL     1      35.349 -19.078 -22.541  0.00  0.00    +0.013 C 
ATOM     17  C   UNL     1      35.249 -17.272 -20.939  0.00  0.00    +0.001 C 
ATOM     18  C   UNL     1      35.619 -18.576 -21.268  0.00  0.00    +0.001 C 
ENDBRANCH   2  13
BRANCH   6  19
ATOM     19  C   UNL     1      33.618 -10.500 -23.940  0.00  0.00    +0.016 C 
ATOM     20  C   UNL     1      34.758  -9.771 -24.277  0.00  0.00    +0.001 C 
ATOM     21  C   UNL     1      32.473  -9.839 -23.498  0.00  0.00    +0.001 C 
ATOM     22  C   UNL     1      34.753  -8.380 -24.171  0.00  0.00    +0.000 C 
ATOM     23  C   UNL     1      32.467  -8.447 -23.392  0.00  0.00    +0.000 C 
ATOM     24  C   UNL     1      33.608  -7.718 -23.729  0.00  0.00    +0.000 C 
ENDBRANCH   6  19
TORSDOF 2
ENDMDL
MODEL 7
REMARK VINA RESULT:      -9.8      5.369      9.260
REMARK  Name = 44563262
REMARK  2 active torsions:
REMARK  status: ('A' for Active; 'I' for Inactive)
REMARK    1  A    between atoms: N_2  and  C_13
REMARK    2  A    between atoms: C_6  and  C_19
REMARK                            x       y       z     vdW  Elec       q    Type
REMARK                         _______ _______ _______ _____ _____    ______ ____
ROOT
ATOM      1  N   UNL     1      35.264 -20.673 -20.008  0.00  0.00    -0.243 N 
ATOM      2  N   UNL     1      33.447 -22.915 -17.676  0.00  0.00    -0.296 N 
ATOM      3  N   UNL     1      32.686 -21.346 -19.224  0.00  0.00    -0.226 NA
ATOM      4  N   UNL     1      37.273 -21.397 -19.377  0.00  0.00    -0.224 NA
ATOM      5  C   UNL     1      35.048 -21.627 -19.040  0.00  0.00    +0.108 C 
ATOM      6  C   UNL     1      34.185 -20.030 -20.609  0.00  0.00    +0.076 C 
ATOM      7  C   UNL     1      33.693 -21.966 -18.641  0.00  0.00    +0.148 C 
ATOM      8  C   UNL     1      32.952 -20.393 -20.193  0.00  0.00    +0.115 C 
ATOM      9  C   UNL     1      36.622 -20.579 -20.176  0.00  0.00    +0.172 C 
ATOM     10  C   UNL     1      36.299 -22.054 -18.665  0.00  0.00    +0.118 C 
ATOM     11  H   UNL     1      34.104 -23.643 -17.594  0.00  0.00    +0.154 HD
ENDROOT
BRANCH   2  13
ATOM     12 CL   UNL     1      34.100 -23.548 -14.780  0.00  0.00    -0.081 Cl
ATOM     13  C   UNL     1      32.365 -22.951 -16.801  0.00  0.00    +0.060 C 
ATOM     14  C   UNL     1      32.537 -23.232 -15.445  0.00  0.00    +0.071 C 
ATOM     15  C   UNL     1      31.089 -22.701 -17.304  0.00  0.00    +0.015 C 
ATOM     16  C   UNL     1      31.433 -23.262 -14.593  0.00  0.00    +0.013 C 
ATOM     17  C   UNL     1      29.984 -22.731 -16.452  0.00  0.00    +0.001 C 
ATOM     18  C   UNL     1      30.157 -23.012 -15.097  0.00  0.00    +0.001 C 
ENDBRANCH   2  13
BRANCH   6  19
ATOM     19  C   UNL     1      34.343 -18.993 -21.641  0.00  0.00    +0.016 C 
ATOM     20  C   UNL     1      34.245 -17.646 -21.295  0.00  0.00    +0.001 C 
ATOM     21  C   UNL     1      34.590 -19.357 -22.964  0.00  0.00    +0.001 C 
ATOM     22  C   UNL     1      34.394 -16.662 -22.273  0.00  0.00    +0.000 C 
ATOM     23  C   UNL     1      34.740 -18.374 -23.942  0.00  0.00    +0.000 C 
ATOM     24  C   UNL     1      34.641 -17.026 -23.597  0.00  0.00    +0.000 C 
ENDBRANCH   6  19
TORSDOF 2
ENDMDL
MODEL 8
REMARK VINA RESULT:      -9.7      2.815      4.836
REMARK  Name = 44563262
REMARK  2 active torsions:
REMARK  status: ('A' for Active; 'I' for Inactive)
REMARK    1  A    between atoms: N_2  and  C_13
REMARK    2  A    between atoms: C_6  and  C_19
REMARK                            x       y       z     vdW  Elec       q    Type
REMARK                         _______ _______ _______ _____ _____    ______ ____
ROOT
ATOM      1  N   UNL     1      32.974 -13.620 -22.354  0.00  0.00    -0.243 N 
ATOM      2  N   UNL     1      32.363 -10.009 -22.954  0.00  0.00    -0.296 N 
ATOM      3  N   UNL     1      33.403 -11.641 -24.255  0.00  0.00    -0.226 NA
ATOM      4  N   UNL     1      31.990 -13.608 -20.357  0.00  0.00    -0.224 NA
ATOM      5  C   UNL     1      32.546 -12.330 -22.138  0.00  0.00    +0.108 C 
ATOM      6  C   UNL     1      33.632 -13.949 -23.536  0.00  0.00    +0.076 C 
ATOM      7  C   UNL     1      32.779 -11.306 -23.143  0.00  0.00    +0.148 C 
ATOM      8  C   UNL     1      33.816 -12.952 -24.428  0.00  0.00    +0.115 C 
ATOM      9  C   UNL     1      32.607 -14.349 -21.252  0.00  0.00    +0.172 C 
ATOM     10  C   UNL     1      31.948 -12.349 -20.901  0.00  0.00    +0.118 C 
ATOM     11  H   UNL     1      31.560  -9.879 -22.399  0.00  0.00    +0.154 HD
ENDROOT
BRANCH   2  13
ATOM     12 CL   UNL     1      30.481  -7.742 -23.677  0.00  0.00    -0.081 Cl
ATOM     13  C   UNL     1      32.961  -8.861 -23.465  0.00  0.00    +0.060 C 
ATOM     14  C   UNL     1      32.201  -7.751 -23.834  0.00  0.00    +0.071 C 
ATOM     15  C   UNL     1      34.348  -8.834 -23.605  0.00  0.00    +0.015 C 
ATOM     16  C   UNL     1      32.829  -6.614 -24.344  0.00  0.00    +0.013 C 
ATOM     17  C   UNL     1      34.976  -7.697 -24.115  0.00  0.00    +0.001 C 
ATOM     18  C   UNL     1      34.216  -6.587 -24.484  0.00  0.00    +0.001 C 
ENDBRANCH   2  13
BRANCH   6  19
ATOM     19  C   UNL     1      34.127 -15.304 -23.828  0.00  0.00    +0.016 C 
ATOM     20  C   UNL     1      33.822 -15.909 -25.047  0.00  0.00    +0.001 C 
ATOM     21  C   UNL     1      34.900 -15.982 -22.887  0.00  0.00    +0.001 C 
ATOM     22  C   UNL     1      34.290 -17.193 -25.324  0.00  0.00    +0.000 C 
ATOM     23  C   UNL     1      35.369 -17.267 -23.164  0.00  0.00    +0.000 C 
ATOM     24  C   UNL     1      35.063 -17.873 -24.383  0.00  0.00    +0.000 C 
ENDBRANCH   6  19
TORSDOF 2
ENDMDL
MODEL 9
REMARK VINA RESULT:      -9.6      2.726      8.493
REMARK  Name = 44563262
REMARK  2 active torsions:
REMARK  status: ('A' for Active; 'I' for Inactive)
REMARK    1  A    between atoms: N_2  and  C_13
REMARK    2  A    between atoms: C_6  and  C_19
REMARK                            x       y       z     vdW  Elec       q    Type
REMARK                         _______ _______ _______ _____ _____    ______ ____
ROOT
ATOM      1  N   UNL     1      33.687  -9.667 -23.846  0.00  0.00    -0.243 N 
ATOM      2  N   UNL     1      34.109 -13.352 -23.979  0.00  0.00    -0.296 N 
ATOM      3  N   UNL     1      32.695 -12.000 -22.711  0.00  0.00    -0.226 NA
ATOM      4  N   UNL     1      35.242  -9.283 -25.392  0.00  0.00    -0.224 NA
ATOM      5  C   UNL     1      34.173 -10.898 -24.224  0.00  0.00    +0.108 C 
ATOM      6  C   UNL     1      32.687  -9.577 -22.882  0.00  0.00    +0.076 C 
ATOM      7  C   UNL     1      33.643 -12.109 -23.620  0.00  0.00    +0.148 C 
ATOM      8  C   UNL     1      32.237 -10.740 -22.361  0.00  0.00    +0.115 C 
ATOM      9  C   UNL     1      34.362  -8.730 -24.585  0.00  0.00    +0.172 C 
ATOM     10  C   UNL     1      35.131 -10.633 -25.174  0.00  0.00    +0.118 C 
ATOM     11  H   UNL     1      34.437 -13.451 -24.902  0.00  0.00    +0.154 HD
ENDROOT
BRANCH   2  13
ATOM     12 CL   UNL     1      33.973 -16.019 -25.419  0.00  0.00    -0.081 Cl
ATOM     13  C   UNL     1      34.167 -14.484 -23.171  0.00  0.00    +0.060 C 
ATOM     14  C   UNL     1      34.113 -15.767 -23.716  0.00  0.00    +0.071 C 
ATOM     15  C   UNL     1      34.280 -14.316 -21.791  0.00  0.00    +0.015 C 
ATOM     16  C   UNL     1      34.172 -16.883 -22.880  0.00  0.00    +0.013 C 
ATOM     17  C   UNL     1      34.338 -15.432 -20.956  0.00  0.00    +0.001 C 
ATOM     18  C   UNL     1      34.284 -16.715 -21.501  0.00  0.00    +0.001 C 
ENDBRANCH   2  13
BRANCH   6  19
ATOM     19  C   UNL     1      32.130  -8.295 -22.421  0.00  0.00    +0.016 C 
ATOM     20  C   UNL     1      32.514  -7.772 -21.187  0.00  0.00    +0.001 C 
ATOM     21  C   UNL     1      31.219  -7.604 -23.218  0.00  0.00    +0.001 C 
ATOM     22  C   UNL     1      31.986  -6.558 -20.749  0.00  0.00    +0.000 C 
ATOM     23  C   UNL     1      30.691  -6.388 -22.781  0.00  0.00    +0.000 C 
ATOM     24  C   UNL     1      31.075  -5.866 -21.546  0.00  0.00    +0.000 C 
ENDBRANCH   6  19
TORSDOF 2
ENDMDL
