MODEL 1
REMARK VINA RESULT:      -8.5      0.000      0.000
REMARK  Name = 179340
REMARK  8 active torsions:
REMARK  status: ('A' for Active; 'I' for Inactive)
REMARK    1  A    between atoms: N_2  and  C_5
REMARK    2  A    between atoms: C_3  and  C_21
REMARK    3  A    between atoms: C_5  and  C_6
REMARK    4  A    between atoms: C_5  and  C_12
REMARK    5  A    between atoms: C_12  and  N_13
REMARK    6  A    between atoms: C_16  and  O_19
REMARK    7  A    between atoms: C_21  and  C_22
REMARK    8  A    between atoms: C_21  and  C_28
REMARK                            x       y       z     vdW  Elec       q    Type
REMARK                         _______ _______ _______ _____ _____    ______ ____
ROOT
ATOM      1  O   UNL     1      35.930 -22.351 -15.989  0.00  0.00    -0.274 OA
ATOM      2  N   UNL     1      35.606 -24.608 -15.532  0.00  0.00    -0.277 N 
ATOM      3  C   UNL     1      35.260 -23.380 -16.129  0.00  0.00    +0.234 C 
ATOM      4  C   UNL     1      34.799 -25.817 -15.709  0.00  0.00    +0.115 C 
ENDROOT
BRANCH   2   5
ATOM      5  C   UNL     1      36.782 -24.758 -14.703  0.00  0.00    +0.077 C 
BRANCH   5   6
ATOM      6  C   UNL     1      36.507 -24.268 -13.295  0.00  0.00    -0.006 C 
ATOM      7  C   UNL     1      35.419 -24.772 -12.606  0.00  0.00    -0.003 C 
ATOM      8  C   UNL     1      37.352 -23.329 -12.733  0.00  0.00    -0.003 C 
ATOM      9  C   UNL     1      35.167 -24.320 -11.312  0.00  0.00    -0.000 C 
ATOM     10  C   UNL     1      37.100 -22.877 -11.438  0.00  0.00    -0.000 C 
ATOM     11  C   UNL     1      36.007 -23.373 -10.727  0.00  0.00    -0.000 C 
ENDBRANCH   5   6
BRANCH   5  12
ATOM     12  C   UNL     1      37.296 -26.207 -14.706  0.00  0.00    -0.052 C 
BRANCH  12  13
ATOM     13  N   UNL     1      38.748 -26.248 -14.793  0.00  0.00    +0.390 N 
ATOM     14  C   UNL     1      39.388 -26.288 -13.474  0.00  0.00    -0.047 C 
ATOM     15  C   UNL     1      39.302 -25.068 -15.454  0.00  0.00    -0.075 C 
ATOM     16  C   UNL     1      40.829 -25.889 -13.774  0.00  0.00    +0.088 C 
ATOM     17  C   UNL     1      40.783 -25.164 -15.118  0.00  0.00    +0.004 C 
ATOM     18  H   UNL     1      38.939 -27.097 -15.325  0.00  0.00    -0.080 HD
BRANCH  16  19
ATOM     19  O   UNL     1      41.639 -27.053 -13.872  0.00  0.00    -0.387 OA
ATOM     20  H   UNL     1      41.085 -27.842 -13.762  0.00  0.00    +0.210 HD
ENDBRANCH  16  19
ENDBRANCH  12  13
ENDBRANCH   5  12
ENDBRANCH   2   5
BRANCH   3  21
ATOM     21  C   UNL     1      33.989 -23.358 -16.996  0.00  0.00    +0.121 C 
BRANCH  21  22
ATOM     22  C   UNL     1      34.131 -22.379 -18.162  0.00  0.00    -0.010 C 
ATOM     23  C   UNL     1      35.393 -22.081 -18.624  0.00  0.00    -0.003 C 
ATOM     24  C   UNL     1      32.991 -21.831 -18.706  0.00  0.00    -0.003 C 
ATOM     25  C   UNL     1      35.522 -21.188 -19.688  0.00  0.00    -0.000 C 
ATOM     26  C   UNL     1      33.121 -20.939 -19.771  0.00  0.00    -0.000 C 
ATOM     27  C   UNL     1      34.388 -20.618 -20.261  0.00  0.00    -0.000 C 
ENDBRANCH  21  22
BRANCH  21  28
ATOM     28  C   UNL     1      32.709 -23.138 -16.195  0.00  0.00    -0.010 C 
ATOM     29  C   UNL     1      32.803 -22.947 -14.834  0.00  0.00    -0.003 C 
ATOM     30  C   UNL     1      31.502 -23.137 -16.862  0.00  0.00    -0.003 C 
ATOM     31  C   UNL     1      31.633 -22.746 -14.102  0.00  0.00    -0.000 C 
ATOM     32  C   UNL     1      30.332 -22.935 -16.128  0.00  0.00    -0.000 C 
ATOM     33  C   UNL     1      30.398 -22.740 -14.750  0.00  0.00    -0.000 C 
ENDBRANCH  21  28
ENDBRANCH   3  21
TORSDOF 8
ENDMDL
MODEL 2
REMARK VINA RESULT:      -8.3     11.567     16.231
REMARK  Name = 179340
REMARK  8 active torsions:
REMARK  status: ('A' for Active; 'I' for Inactive)
REMARK    1  A    between atoms: N_2  and  C_5
REMARK    2  A    between atoms: C_3  and  C_21
REMARK    3  A    between atoms: C_5  and  C_6
REMARK    4  A    between atoms: C_5  and  C_12
REMARK    5  A    between atoms: C_12  and  N_13
REMARK    6  A    between atoms: C_16  and  O_19
REMARK    7  A    between atoms: C_21  and  C_22
REMARK    8  A    between atoms: C_21  and  C_28
REMARK                            x       y       z     vdW  Elec       q    Type
REMARK                         _______ _______ _______ _____ _____    ______ ____
ROOT
ATOM      1  O   UNL     1      31.820 -12.437 -22.600  0.00  0.00    -0.274 OA
ATOM      2  N   UNL     1      33.183 -10.658 -23.219  0.00  0.00    -0.277 N 
ATOM      3  C   UNL     1      32.868 -12.026 -23.111  0.00  0.00    +0.234 C 
ATOM      4  C   UNL     1      34.430 -10.189 -23.828  0.00  0.00    +0.115 C 
ENDROOT
BRANCH   2   5
ATOM      5  C   UNL     1      32.296  -9.621 -22.736  0.00  0.00    +0.077 C 
BRANCH   5   6
ATOM      6  C   UNL     1      31.851  -9.920 -21.318  0.00  0.00    -0.006 C 
ATOM      7  C   UNL     1      30.717 -10.684 -21.114  0.00  0.00    -0.003 C 
ATOM      8  C   UNL     1      32.592  -9.423 -20.262  0.00  0.00    -0.003 C 
ATOM      9  C   UNL     1      30.308 -10.959 -19.810  0.00  0.00    -0.000 C 
ATOM     10  C   UNL     1      32.184  -9.698 -18.956  0.00  0.00    -0.000 C 
ATOM     11  C   UNL     1      31.041 -10.466 -18.730  0.00  0.00    -0.000 C 
ENDBRANCH   5   6
BRANCH   5  12
ATOM     12  C   UNL     1      32.939  -8.230 -22.844  0.00  0.00    -0.052 C 
BRANCH  12  13
ATOM     13  N   UNL     1      31.934  -7.205 -23.085  0.00  0.00    +0.390 N 
ATOM     14  C   UNL     1      32.404  -6.162 -24.001  0.00  0.00    -0.047 C 
ATOM     15  C   UNL     1      31.551  -6.500 -21.862  0.00  0.00    -0.075 C 
ATOM     16  C   UNL     1      31.419  -5.021 -23.766  0.00  0.00    +0.088 C 
ATOM     17  C   UNL     1      30.796  -5.293 -22.399  0.00  0.00    +0.004 C 
ATOM     18  H   UNL     1      31.146  -7.720 -23.479  0.00  0.00    -0.080 HD
BRANCH  16  19
ATOM     19  O   UNL     1      30.417  -5.037 -24.775  0.00  0.00    -0.387 OA
ATOM     20  H   UNL     1      29.771  -5.733 -24.577  0.00  0.00    +0.210 HD
ENDBRANCH  16  19
ENDBRANCH  12  13
ENDBRANCH   5  12
ENDBRANCH   2   5
BRANCH   3  21
ATOM     21  C   UNL     1      33.893 -13.026 -23.674  0.00  0.00    +0.121 C 
BRANCH  21  22
ATOM     22  C   UNL     1      33.503 -13.484 -25.081  0.00  0.00    -0.010 C 
ATOM     23  C   UNL     1      33.017 -14.761 -25.248  0.00  0.00    -0.003 C 
ATOM     24  C   UNL     1      33.654 -12.602 -26.127  0.00  0.00    -0.003 C 
ATOM     25  C   UNL     1      32.661 -15.178 -26.531  0.00  0.00    -0.000 C 
ATOM     26  C   UNL     1      33.297 -13.020 -27.410  0.00  0.00    -0.000 C 
ATOM     27  C   UNL     1      32.801 -14.308 -27.611  0.00  0.00    -0.000 C 
ENDBRANCH  21  22
BRANCH  21  28
ATOM     28  C   UNL     1      34.186 -14.192 -22.735  0.00  0.00    -0.010 C 
ATOM     29  C   UNL     1      33.830 -14.081 -21.408  0.00  0.00    -0.003 C 
ATOM     30  C   UNL     1      34.796 -15.317 -23.246  0.00  0.00    -0.003 C 
ATOM     31  C   UNL     1      34.098 -15.146 -20.550  0.00  0.00    -0.000 C 
ATOM     32  C   UNL     1      35.064 -16.383 -22.386  0.00  0.00    -0.000 C 
ATOM     33  C   UNL     1      34.715 -16.298 -21.039  0.00  0.00    -0.000 C 
ENDBRANCH  21  28
ENDBRANCH   3  21
TORSDOF 8
ENDMDL
MODEL 3
REMARK VINA RESULT:      -8.2     12.288     16.929
REMARK  Name = 179340
REMARK  8 active torsions:
REMARK  status: ('A' for Active; 'I' for Inactive)
REMARK    1  A    between atoms: N_2  and  C_5
REMARK    2  A    between atoms: C_3  and  C_21
REMARK    3  A    between atoms: C_5  and  C_6
REMARK    4  A    between atoms: C_5  and  C_12
REMARK    5  A    between atoms: C_12  and  N_13
REMARK    6  A    between atoms: C_16  and  O_19
REMARK    7  A    between atoms: C_21  and  C_22
REMARK    8  A    between atoms: C_21  and  C_28
REMARK                            x       y       z     vdW  Elec       q    Type
REMARK                         _______ _______ _______ _____ _____    ______ ____
ROOT
ATOM      1  O   UNL     1      31.715 -11.377 -23.135  0.00  0.00    -0.274 OA
ATOM      2  N   UNL     1      33.570 -10.072 -23.648  0.00  0.00    -0.277 N 
ATOM      3  C   UNL     1      32.908 -11.299 -23.447  0.00  0.00    +0.234 C 
ATOM      4  C   UNL     1      34.985 -10.000 -24.018  0.00  0.00    +0.115 C 
ENDROOT
BRANCH   2   5
ATOM      5  C   UNL     1      32.896  -8.800 -23.505  0.00  0.00    +0.077 C 
BRANCH   5   6
ATOM      6  C   UNL     1      32.668  -8.481 -22.041  0.00  0.00    -0.006 C 
ATOM      7  C   UNL     1      31.912  -9.346 -21.273  0.00  0.00    -0.003 C 
ATOM      8  C   UNL     1      33.223  -7.332 -21.508  0.00  0.00    -0.003 C 
ATOM      9  C   UNL     1      31.702  -9.053 -19.926  0.00  0.00    -0.000 C 
ATOM     10  C   UNL     1      33.014  -7.037 -20.161  0.00  0.00    -0.000 C 
ATOM     11  C   UNL     1      32.253  -7.898 -19.369  0.00  0.00    -0.000 C 
ENDBRANCH   5   6
BRANCH   5  12
ATOM     12  C   UNL     1      33.660  -7.671 -24.216  0.00  0.00    -0.052 C 
BRANCH  12  13
ATOM     13  N   UNL     1      32.893  -6.435 -24.210  0.00  0.00    +0.390 N 
ATOM     14  C   UNL     1      31.450  -6.668 -24.332  0.00  0.00    -0.047 C 
ATOM     15  C   UNL     1      33.237  -5.558 -25.329  0.00  0.00    -0.075 C 
ATOM     16  C   UNL     1      30.909  -5.302 -24.741  0.00  0.00    +0.088 C 
ATOM     17  C   UNL     1      32.104  -4.543 -25.315  0.00  0.00    +0.004 C 
ATOM     18  H   UNL     1      33.126  -6.004 -23.316  0.00  0.00    -0.080 HD
BRANCH  16  19
ATOM     19  O   UNL     1      30.401  -4.626 -23.599  0.00  0.00    -0.387 OA
ATOM     20  H   UNL     1      29.475  -4.879 -23.459  0.00  0.00    +0.210 HD
ENDBRANCH  16  19
ENDBRANCH  12  13
ENDBRANCH   5  12
ENDBRANCH   2   5
BRANCH   3  21
ATOM     21  C   UNL     1      33.737 -12.581 -23.642  0.00  0.00    +0.121 C 
BRANCH  21  22
ATOM     22  C   UNL     1      33.450 -13.224 -25.000  0.00  0.00    -0.010 C 
ATOM     23  C   UNL     1      33.560 -12.452 -26.133  0.00  0.00    -0.003 C 
ATOM     24  C   UNL     1      33.093 -14.553 -25.037  0.00  0.00    -0.003 C 
ATOM     25  C   UNL     1      33.299 -13.039 -27.371  0.00  0.00    -0.000 C 
ATOM     26  C   UNL     1      32.833 -15.141 -26.276  0.00  0.00    -0.000 C 
ATOM     27  C   UNL     1      32.936 -14.383 -27.442  0.00  0.00    -0.000 C 
ENDBRANCH  21  22
BRANCH  21  28
ATOM     28  C   UNL     1      33.614 -13.567 -22.485  0.00  0.00    -0.010 C 
ATOM     29  C   UNL     1      34.611 -14.501 -22.301  0.00  0.00    -0.003 C 
ATOM     30  C   UNL     1      32.511 -13.491 -21.663  0.00  0.00    -0.003 C 
ATOM     31  C   UNL     1      34.499 -15.403 -21.243  0.00  0.00    -0.000 C 
ATOM     32  C   UNL     1      32.399 -14.393 -20.605  0.00  0.00    -0.000 C 
ATOM     33  C   UNL     1      33.393 -15.349 -20.395  0.00  0.00    -0.000 C 
ENDBRANCH  21  28
ENDBRANCH   3  21
TORSDOF 8
ENDMDL
MODEL 4
REMARK VINA RESULT:      -8.0     12.461     17.066
REMARK  Name = 179340
REMARK  8 active torsions:
REMARK  status: ('A' for Active; 'I' for Inactive)
REMARK    1  A    between atoms: N_2  and  C_5
REMARK    2  A    between atoms: C_3  and  C_21
REMARK    3  A    between atoms: C_5  and  C_6
REMARK    4  A    between atoms: C_5  and  C_12
REMARK    5  A    between atoms: C_12  and  N_13
REMARK    6  A    between atoms: C_16  and  O_19
REMARK    7  A    between atoms: C_21  and  C_22
REMARK    8  A    between atoms: C_21  and  C_28
REMARK                            x       y       z     vdW  Elec       q    Type
REMARK                         _______ _______ _______ _____ _____    ______ ____
ROOT
ATOM      1  O   UNL     1      31.821 -11.153 -23.181  0.00  0.00    -0.274 OA
ATOM      2  N   UNL     1      33.738  -9.927 -23.658  0.00  0.00    -0.277 N 
ATOM      3  C   UNL     1      33.020 -11.125 -23.482  0.00  0.00    +0.234 C 
ATOM      4  C   UNL     1      35.158  -9.913 -24.015  0.00  0.00    +0.115 C 
ENDROOT
BRANCH   2   5
ATOM      5  C   UNL     1      33.121  -8.627 -23.501  0.00  0.00    +0.077 C 
BRANCH   5   6
ATOM      6  C   UNL     1      32.728  -8.397 -22.055  0.00  0.00    -0.006 C 
ATOM      7  C   UNL     1      33.025  -7.184 -21.461  0.00  0.00    -0.003 C 
ATOM      8  C   UNL     1      32.082  -9.406 -21.365  0.00  0.00    -0.003 C 
ATOM      9  C   UNL     1      32.663  -6.973 -20.131  0.00  0.00    -0.000 C 
ATOM     10  C   UNL     1      31.719  -9.195 -20.034  0.00  0.00    -0.000 C 
ATOM     11  C   UNL     1      32.011  -7.978 -19.417  0.00  0.00    -0.000 C 
ENDBRANCH   5   6
BRANCH   5  12
ATOM     12  C   UNL     1      34.027  -7.502 -24.025  0.00  0.00    -0.052 C 
BRANCH  12  13
ATOM     13  N   UNL     1      33.330  -6.679 -25.001  0.00  0.00    +0.390 N 
ATOM     14  C   UNL     1      34.241  -5.823 -25.767  0.00  0.00    -0.047 C 
ATOM     15  C   UNL     1      32.375  -5.763 -24.379  0.00  0.00    -0.075 C 
ATOM     16  C   UNL     1      33.311  -4.777 -26.374  0.00  0.00    +0.088 C 
ATOM     17  C   UNL     1      32.050  -4.802 -25.513  0.00  0.00    +0.004 C 
ATOM     18  H   UNL     1      32.859  -7.354 -25.603  0.00  0.00    -0.080 HD
BRANCH  16  19
ATOM     19  O   UNL     1      32.998  -5.134 -27.714  0.00  0.00    -0.387 OA
ATOM     20  H   UNL     1      32.698  -6.056 -27.741  0.00  0.00    +0.210 HD
ENDBRANCH  16  19
ENDBRANCH  12  13
ENDBRANCH   5  12
ENDBRANCH   2   5
BRANCH   3  21
ATOM     21  C   UNL     1      33.792 -12.440 -23.690  0.00  0.00    +0.121 C 
BRANCH  21  22
ATOM     22  C   UNL     1      33.477 -13.056 -25.054  0.00  0.00    -0.010 C 
ATOM     23  C   UNL     1      33.640 -12.284 -26.181  0.00  0.00    -0.003 C 
ATOM     24  C   UNL     1      33.044 -14.362 -25.103  0.00  0.00    -0.003 C 
ATOM     25  C   UNL     1      33.353 -12.847 -27.425  0.00  0.00    -0.000 C 
ATOM     26  C   UNL     1      32.758 -14.925 -26.347  0.00  0.00    -0.000 C 
ATOM     27  C   UNL     1      32.913 -14.166 -27.508  0.00  0.00    -0.000 C 
ENDBRANCH  21  22
BRANCH  21  28
ATOM     28  C   UNL     1      33.626 -13.432 -22.543  0.00  0.00    -0.010 C 
ATOM     29  C   UNL     1      34.588 -14.401 -22.359  0.00  0.00    -0.003 C 
ATOM     30  C   UNL     1      32.518 -13.324 -21.729  0.00  0.00    -0.003 C 
ATOM     31  C   UNL     1      34.436 -15.308 -21.311  0.00  0.00    -0.000 C 
ATOM     32  C   UNL     1      32.367 -14.232 -20.680  0.00  0.00    -0.000 C 
ATOM     33  C   UNL     1      33.326 -15.223 -20.471  0.00  0.00    -0.000 C 
ENDBRANCH  21  28
ENDBRANCH   3  21
TORSDOF 8
ENDMDL
MODEL 5
REMARK VINA RESULT:      -7.5     15.961     19.562
REMARK  Name = 179340
REMARK  8 active torsions:
REMARK  status: ('A' for Active; 'I' for Inactive)
REMARK    1  A    between atoms: N_2  and  C_5
REMARK    2  A    between atoms: C_3  and  C_21
REMARK    3  A    between atoms: C_5  and  C_6
REMARK    4  A    between atoms: C_5  and  C_12
REMARK    5  A    between atoms: C_12  and  N_13
REMARK    6  A    between atoms: C_16  and  O_19
REMARK    7  A    between atoms: C_21  and  C_22
REMARK    8  A    between atoms: C_21  and  C_28
REMARK                            x       y       z     vdW  Elec       q    Type
REMARK                         _______ _______ _______ _____ _____    ______ ____
ROOT
ATOM      1  O   UNL     1      34.458  -6.337 -24.370  0.00  0.00    -0.274 OA
ATOM      2  N   UNL     1      32.488  -7.527 -24.044  0.00  0.00    -0.277 N 
ATOM      3  C   UNL     1      33.246  -6.466 -24.575  0.00  0.00    +0.234 C 
ATOM      4  C   UNL     1      31.052  -7.664 -24.298  0.00  0.00    +0.115 C 
ENDROOT
BRANCH   2   5
ATOM      5  C   UNL     1      33.075  -8.555 -23.212  0.00  0.00    +0.077 C 
BRANCH   5   6
ATOM      6  C   UNL     1      32.647  -8.380 -21.768  0.00  0.00    -0.006 C 
ATOM      7  C   UNL     1      32.775  -7.139 -21.173  0.00  0.00    -0.003 C 
ATOM      8  C   UNL     1      32.138  -9.466 -21.081  0.00  0.00    -0.003 C 
ATOM      9  C   UNL     1      32.381  -6.978 -19.846  0.00  0.00    -0.000 C 
ATOM     10  C   UNL     1      31.743  -9.307 -19.753  0.00  0.00    -0.000 C 
ATOM     11  C   UNL     1      31.865  -8.062 -19.135  0.00  0.00    -0.000 C 
ENDBRANCH   5   6
BRANCH   5  12
ATOM     12  C   UNL     1      32.744  -9.963 -23.732  0.00  0.00    -0.052 C 
BRANCH  12  13
ATOM     13  N   UNL     1      33.527 -10.283 -24.916  0.00  0.00    +0.390 N 
ATOM     14  C   UNL     1      33.683 -11.727 -25.113  0.00  0.00    -0.047 C 
ATOM     15  C   UNL     1      34.890  -9.756 -24.844  0.00  0.00    -0.075 C 
ATOM     16  C   UNL     1      34.850 -11.823 -26.090  0.00  0.00    +0.088 C 
ATOM     17  C   UNL     1      35.590 -10.492 -25.976  0.00  0.00    +0.004 C 
ATOM     18  H   UNL     1      33.004  -9.857 -25.681  0.00  0.00    -0.080 HD
BRANCH  16  19
ATOM     19  O   UNL     1      34.356 -11.998 -27.412  0.00  0.00    -0.387 OA
ATOM     20  H   UNL     1      34.866 -11.445 -28.024  0.00  0.00    +0.210 HD
ENDBRANCH  16  19
ENDBRANCH  12  13
ENDBRANCH   5  12
ENDBRANCH   2   5
BRANCH   3  21
ATOM     21  C   UNL     1      32.502  -5.446 -25.454  0.00  0.00    +0.121 C 
BRANCH  21  22
ATOM     22  C   UNL     1      33.334  -5.056 -26.676  0.00  0.00    -0.010 C 
ATOM     23  C   UNL     1      32.681  -4.668 -27.823  0.00  0.00    -0.003 C 
ATOM     24  C   UNL     1      34.707  -5.109 -26.583  0.00  0.00    -0.003 C 
ATOM     25  C   UNL     1      33.440  -4.313 -28.938  0.00  0.00    -0.000 C 
ATOM     26  C   UNL     1      35.466  -4.752 -27.698  0.00  0.00    -0.000 C 
ATOM     27  C   UNL     1      34.832  -4.354 -28.875  0.00  0.00    -0.000 C 
ENDBRANCH  21  22
BRANCH  21  28
ATOM     28  C   UNL     1      31.990  -4.234 -24.679  0.00  0.00    -0.010 C 
ATOM     29  C   UNL     1      31.456  -4.427 -23.424  0.00  0.00    -0.003 C 
ATOM     30  C   UNL     1      32.081  -2.989 -25.263  0.00  0.00    -0.003 C 
ATOM     31  C   UNL     1      30.988  -3.320 -22.716  0.00  0.00    -0.000 C 
ATOM     32  C   UNL     1      31.613  -1.882 -24.554  0.00  0.00    -0.000 C 
ATOM     33  C   UNL     1      31.067  -2.047 -23.281  0.00  0.00    -0.000 C 
ENDBRANCH  21  28
ENDBRANCH   3  21
TORSDOF 8
ENDMDL
MODEL 6
REMARK VINA RESULT:      -7.4     13.187     18.022
REMARK  Name = 179340
REMARK  8 active torsions:
REMARK  status: ('A' for Active; 'I' for Inactive)
REMARK    1  A    between atoms: N_2  and  C_5
REMARK    2  A    between atoms: C_3  and  C_21
REMARK    3  A    between atoms: C_5  and  C_6
REMARK    4  A    between atoms: C_5  and  C_12
REMARK    5  A    between atoms: C_12  and  N_13
REMARK    6  A    between atoms: C_16  and  O_19
REMARK    7  A    between atoms: C_21  and  C_22
REMARK    8  A    between atoms: C_21  and  C_28
REMARK                            x       y       z     vdW  Elec       q    Type
REMARK                         _______ _______ _______ _____ _____    ______ ____
ROOT
ATOM      1  O   UNL     1      34.930  -9.660 -23.597  0.00  0.00    -0.274 OA
ATOM      2  N   UNL     1      32.911  -8.557 -23.936  0.00  0.00    -0.277 N 
ATOM      3  C   UNL     1      33.745  -9.692 -23.950  0.00  0.00    +0.234 C 
ATOM      4  C   UNL     1      31.509  -8.614 -24.358  0.00  0.00    +0.115 C 
ENDROOT
BRANCH   2   5
ATOM      5  C   UNL     1      33.380  -7.259 -23.503  0.00  0.00    +0.077 C 
BRANCH   5   6
ATOM      6  C   UNL     1      33.532  -6.326 -24.688  0.00  0.00    -0.006 C 
ATOM      7  C   UNL     1      34.682  -6.392 -25.454  0.00  0.00    -0.003 C 
ATOM      8  C   UNL     1      32.518  -5.432 -24.976  0.00  0.00    -0.003 C 
ATOM      9  C   UNL     1      34.822  -5.534 -26.544  0.00  0.00    -0.000 C 
ATOM     10  C   UNL     1      32.656  -4.574 -26.066  0.00  0.00    -0.000 C 
ATOM     11  C   UNL     1      33.809  -4.625 -26.851  0.00  0.00    -0.000 C 
ENDBRANCH   5   6
BRANCH   5  12
ATOM     12  C   UNL     1      32.466  -6.656 -22.425  0.00  0.00    -0.052 C 
BRANCH  12  13
ATOM     13  N   UNL     1      32.633  -7.342 -21.152  0.00  0.00    +0.390 N 
ATOM     14  C   UNL     1      31.814  -8.554 -21.055  0.00  0.00    -0.047 C 
ATOM     15  C   UNL     1      32.232  -6.514 -20.015  0.00  0.00    -0.075 C 
ATOM     16  C   UNL     1      31.797  -8.845 -19.558  0.00  0.00    +0.088 C 
ATOM     17  C   UNL     1      32.158  -7.525 -18.880  0.00  0.00    +0.004 C 
ATOM     18  H   UNL     1      33.629  -7.561 -21.119  0.00  0.00    -0.080 HD
BRANCH  16  19
ATOM     19  O   UNL     1      32.769  -9.836 -19.251  0.00  0.00    -0.387 OA
ATOM     20  H   UNL     1      32.715 -10.061 -18.309  0.00  0.00    +0.210 HD
ENDBRANCH  16  19
ENDBRANCH  12  13
ENDBRANCH   5  12
ENDBRANCH   2   5
BRANCH   3  21
ATOM     21  C   UNL     1      33.119 -11.015 -24.423  0.00  0.00    +0.121 C 
BRANCH  21  22
ATOM     22  C   UNL     1      33.022 -12.022 -23.275  0.00  0.00    -0.010 C 
ATOM     23  C   UNL     1      32.072 -11.823 -22.300  0.00  0.00    -0.003 C 
ATOM     24  C   UNL     1      33.889 -13.091 -23.262  0.00  0.00    -0.003 C 
ATOM     25  C   UNL     1      31.983 -12.742 -21.255  0.00  0.00    -0.000 C 
ATOM     26  C   UNL     1      33.799 -14.011 -22.216  0.00  0.00    -0.000 C 
ATOM     27  C   UNL     1      32.846 -13.835 -21.213  0.00  0.00    -0.000 C 
ENDBRANCH  21  22
BRANCH  21  28
ATOM     28  C   UNL     1      33.790 -11.598 -25.663  0.00  0.00    -0.010 C 
ATOM     29  C   UNL     1      34.912 -10.975 -26.165  0.00  0.00    -0.003 C 
ATOM     30  C   UNL     1      33.251 -12.728 -26.238  0.00  0.00    -0.003 C 
ATOM     31  C   UNL     1      35.525 -11.507 -27.298  0.00  0.00    -0.000 C 
ATOM     32  C   UNL     1      33.865 -13.261 -27.372  0.00  0.00    -0.000 C 
ATOM     33  C   UNL     1      35.002 -12.651 -27.902  0.00  0.00    -0.000 C 
ENDBRANCH  21  28
ENDBRANCH   3  21
TORSDOF 8
ENDMDL
MODEL 7
REMARK VINA RESULT:      -7.3     15.148     19.393
REMARK  Name = 179340
REMARK  8 active torsions:
REMARK  status: ('A' for Active; 'I' for Inactive)
REMARK    1  A    between atoms: N_2  and  C_5
REMARK    2  A    between atoms: C_3  and  C_21
REMARK    3  A    between atoms: C_5  and  C_6
REMARK    4  A    between atoms: C_5  and  C_12
REMARK    5  A    between atoms: C_12  and  N_13
REMARK    6  A    between atoms: C_16  and  O_19
REMARK    7  A    between atoms: C_21  and  C_22
REMARK    8  A    between atoms: C_21  and  C_28
REMARK                            x       y       z     vdW  Elec       q    Type
REMARK                         _______ _______ _______ _____ _____    ______ ____
ROOT
ATOM      1  O   UNL     1      33.676  -6.410 -23.622  0.00  0.00    -0.274 OA
ATOM      2  N   UNL     1      31.761  -7.667 -24.023  0.00  0.00    -0.277 N 
ATOM      3  C   UNL     1      32.563  -6.516 -24.150  0.00  0.00    +0.234 C 
ATOM      4  C   UNL     1      30.445  -7.775 -24.656  0.00  0.00    +0.115 C 
ENDROOT
BRANCH   2   5
ATOM      5  C   UNL     1      32.183  -8.821 -23.259  0.00  0.00    +0.077 C 
BRANCH   5   6
ATOM      6  C   UNL     1      33.215  -9.621 -24.031  0.00  0.00    -0.006 C 
ATOM      7  C   UNL     1      34.464  -9.071 -24.255  0.00  0.00    -0.003 C 
ATOM      8  C   UNL     1      32.882 -10.881 -24.492  0.00  0.00    -0.003 C 
ATOM      9  C   UNL     1      35.412  -9.807 -24.965  0.00  0.00    -0.000 C 
ATOM     10  C   UNL     1      33.829 -11.618 -25.201  0.00  0.00    -0.000 C 
ATOM     11  C   UNL     1      35.095 -11.081 -25.438  0.00  0.00    -0.000 C 
ENDBRANCH   5   6
BRANCH   5  12
ATOM     12  C   UNL     1      32.703  -8.422 -21.869  0.00  0.00    -0.052 C 
BRANCH  12  13
ATOM     13  N   UNL     1      32.490  -9.489 -20.903  0.00  0.00    +0.390 N 
ATOM     14  C   UNL     1      31.531 -10.492 -21.377  0.00  0.00    -0.047 C 
ATOM     15  C   UNL     1      31.940  -8.998 -19.640  0.00  0.00    -0.075 C 
ATOM     16  C   UNL     1      31.135 -11.227 -20.101  0.00  0.00    +0.088 C 
ATOM     17  C   UNL     1      31.486 -10.279 -18.956  0.00  0.00    +0.004 C 
ATOM     18  H   UNL     1      33.417  -9.894 -20.773  0.00  0.00    -0.080 HD
BRANCH  16  19
ATOM     19  O   UNL     1      31.883 -12.431 -19.989  0.00  0.00    -0.387 OA
ATOM     20  H   UNL     1      31.276 -13.187 -19.962  0.00  0.00    +0.210 HD
ENDBRANCH  16  19
ENDBRANCH  12  13
ENDBRANCH   5  12
ENDBRANCH   2   5
BRANCH   3  21
ATOM     21  C   UNL     1      32.002  -5.363 -25.000  0.00  0.00    +0.121 C 
BRANCH  21  22
ATOM     22  C   UNL     1      32.955  -4.999 -26.138  0.00  0.00    -0.010 C 
ATOM     23  C   UNL     1      34.261  -5.426 -26.068  0.00  0.00    -0.003 C 
ATOM     24  C   UNL     1      32.471  -4.258 -27.193  0.00  0.00    -0.003 C 
ATOM     25  C   UNL     1      35.131  -5.094 -27.107  0.00  0.00    -0.000 C 
ATOM     26  C   UNL     1      33.341  -3.927 -28.233  0.00  0.00    -0.000 C 
ATOM     27  C   UNL     1      34.671  -4.346 -28.189  0.00  0.00    -0.000 C 
ENDBRANCH  21  22
BRANCH  21  28
ATOM     28  C   UNL     1      31.578  -4.150 -24.176  0.00  0.00    -0.010 C 
ATOM     29  C   UNL     1      30.850  -4.353 -23.023  0.00  0.00    -0.003 C 
ATOM     30  C   UNL     1      31.938  -2.894 -24.613  0.00  0.00    -0.003 C 
ATOM     31  C   UNL     1      30.463  -3.245 -22.271  0.00  0.00    -0.000 C 
ATOM     32  C   UNL     1      31.550  -1.786 -23.859  0.00  0.00    -0.000 C 
ATOM     33  C   UNL     1      30.813  -1.961 -22.689  0.00  0.00    -0.000 C 
ENDBRANCH  21  28
ENDBRANCH   3  21
TORSDOF 8
ENDMDL
MODEL 8
REMARK VINA RESULT:      -7.2     15.111     19.653
REMARK  Name = 179340
REMARK  8 active torsions:
REMARK  status: ('A' for Active; 'I' for Inactive)
REMARK    1  A    between atoms: N_2  and  C_5
REMARK    2  A    between atoms: C_3  and  C_21
REMARK    3  A    between atoms: C_5  and  C_6
REMARK    4  A    between atoms: C_5  and  C_12
REMARK    5  A    between atoms: C_12  and  N_13
REMARK    6  A    between atoms: C_16  and  O_19
REMARK    7  A    between atoms: C_21  and  C_22
REMARK    8  A    between atoms: C_21  and  C_28
REMARK                            x       y       z     vdW  Elec       q    Type
REMARK                         _______ _______ _______ _____ _____    ______ ____
ROOT
ATOM      1  O   UNL     1      31.035  -8.508 -23.966  0.00  0.00    -0.274 OA
ATOM      2  N   UNL     1      32.967  -7.214 -23.983  0.00  0.00    -0.277 N 
ATOM      3  C   UNL     1      32.219  -8.358 -23.644  0.00  0.00    +0.234 C 
ATOM      4  C   UNL     1      34.369  -7.054 -23.592  0.00  0.00    +0.115 C 
ENDROOT
BRANCH   2   5
ATOM      5  C   UNL     1      32.402  -6.120 -24.742  0.00  0.00    +0.077 C 
BRANCH   5   6
ATOM      6  C   UNL     1      31.675  -5.156 -23.825  0.00  0.00    -0.006 C 
ATOM      7  C   UNL     1      31.599  -3.821 -24.175  0.00  0.00    -0.003 C 
ATOM      8  C   UNL     1      31.104  -5.636 -22.661  0.00  0.00    -0.003 C 
ATOM      9  C   UNL     1      30.930  -2.935 -23.331  0.00  0.00    -0.000 C 
ATOM     10  C   UNL     1      30.435  -4.751 -21.816  0.00  0.00    -0.000 C 
ATOM     11  C   UNL     1      30.348  -3.399 -22.152  0.00  0.00    -0.000 C 
ENDBRANCH   5   6
BRANCH   5  12
ATOM     12  C   UNL     1      33.469  -5.402 -25.583  0.00  0.00    -0.052 C 
BRANCH  12  13
ATOM     13  N   UNL     1      32.939  -5.009 -26.880  0.00  0.00    +0.390 N 
ATOM     14  C   UNL     1      33.914  -5.183 -27.961  0.00  0.00    -0.047 C 
ATOM     15  C   UNL     1      32.563  -3.597 -26.925  0.00  0.00    -0.075 C 
ATOM     16  C   UNL     1      33.340  -4.333 -29.089  0.00  0.00    +0.088 C 
ATOM     17  C   UNL     1      32.386  -3.348 -28.416  0.00  0.00    +0.004 C 
ATOM     18  H   UNL     1      32.128  -5.614 -27.009  0.00  0.00    -0.080 HD
BRANCH  16  19
ATOM     19  O   UNL     1      32.628  -5.160 -30.000  0.00  0.00    -0.387 OA
ATOM     20  H   UNL     1      31.996  -4.621 -30.501  0.00  0.00    +0.210 HD
ENDBRANCH  16  19
ENDBRANCH  12  13
ENDBRANCH   5  12
ENDBRANCH   2   5
BRANCH   3  21
ATOM     21  C   UNL     1      32.942  -9.455 -22.843  0.00  0.00    +0.121 C 
BRANCH  21  22
ATOM     22  C   UNL     1      33.250 -10.669 -23.720  0.00  0.00    -0.010 C 
ATOM     23  C   UNL     1      33.803 -10.463 -24.963  0.00  0.00    -0.003 C 
ATOM     24  C   UNL     1      32.961 -11.924 -23.233  0.00  0.00    -0.003 C 
ATOM     25  C   UNL     1      34.083 -11.571 -25.763  0.00  0.00    -0.000 C 
ATOM     26  C   UNL     1      33.243 -13.033 -24.033  0.00  0.00    -0.000 C 
ATOM     27  C   UNL     1      33.804 -12.855 -25.298  0.00  0.00    -0.000 C 
ENDBRANCH  21  22
BRANCH  21  28
ATOM     28  C   UNL     1      32.233  -9.830 -21.545  0.00  0.00    -0.010 C 
ATOM     29  C   UNL     1      32.439  -9.051 -20.427  0.00  0.00    -0.003 C 
ATOM     30  C   UNL     1      31.410 -10.935 -21.536  0.00  0.00    -0.003 C 
ATOM     31  C   UNL     1      31.791  -9.393 -19.241  0.00  0.00    -0.000 C 
ATOM     32  C   UNL     1      30.761 -11.278 -20.348  0.00  0.00    -0.000 C 
ATOM     33  C   UNL     1      30.951 -10.507 -19.202  0.00  0.00    -0.000 C 
ENDBRANCH  21  28
ENDBRANCH   3  21
TORSDOF 8
ENDMDL
MODEL 9
REMARK VINA RESULT:      -7.2     15.171     18.774
REMARK  Name = 179340
REMARK  8 active torsions:
REMARK  status: ('A' for Active; 'I' for Inactive)
REMARK    1  A    between atoms: N_2  and  C_5
REMARK    2  A    between atoms: C_3  and  C_21
REMARK    3  A    between atoms: C_5  and  C_6
REMARK    4  A    between atoms: C_5  and  C_12
REMARK    5  A    between atoms: C_12  and  N_13
REMARK    6  A    between atoms: C_16  and  O_19
REMARK    7  A    between atoms: C_21  and  C_22
REMARK    8  A    between atoms: C_21  and  C_28
REMARK                            x       y       z     vdW  Elec       q    Type
REMARK                         _______ _______ _______ _____ _____    ______ ____
ROOT
ATOM      1  O   UNL     1      34.095  -6.893 -23.417  0.00  0.00    -0.274 OA
ATOM      2  N   UNL     1      32.309  -8.363 -23.654  0.00  0.00    -0.277 N 
ATOM      3  C   UNL     1      32.962  -7.132 -23.852  0.00  0.00    +0.234 C 
ATOM      4  C   UNL     1      30.966  -8.627 -24.176  0.00  0.00    +0.115 C 
ENDROOT
BRANCH   2   5
ATOM      5  C   UNL     1      32.919  -9.452 -22.922  0.00  0.00    +0.077 C 
BRANCH   5   6
ATOM      6  C   UNL     1      32.321  -9.561 -21.534  0.00  0.00    -0.006 C 
ATOM      7  C   UNL     1      31.623 -10.703 -21.188  0.00  0.00    -0.003 C 
ATOM      8  C   UNL     1      32.489  -8.515 -20.645  0.00  0.00    -0.003 C 
ATOM      9  C   UNL     1      31.073 -10.803 -19.911  0.00  0.00    -0.000 C 
ATOM     10  C   UNL     1      31.940  -8.614 -19.367  0.00  0.00    -0.000 C 
ATOM     11  C   UNL     1      31.231  -9.758 -19.000  0.00  0.00    -0.000 C 
ENDBRANCH   5   6
BRANCH   5  12
ATOM     12  C   UNL     1      32.813 -10.780 -23.688  0.00  0.00    -0.052 C 
BRANCH  12  13
ATOM     13  N   UNL     1      33.993 -11.009 -24.508  0.00  0.00    +0.390 N 
ATOM     14  C   UNL     1      34.667  -9.762 -24.883  0.00  0.00    -0.047 C 
ATOM     15  C   UNL     1      33.674 -11.670 -25.773  0.00  0.00    -0.075 C 
ATOM     16  C   UNL     1      35.557 -10.183 -26.048  0.00  0.00    +0.088 C 
ATOM     17  C   UNL     1      34.954 -11.483 -26.576  0.00  0.00    +0.004 C 
ATOM     18  H   UNL     1      34.590 -11.594 -23.924  0.00  0.00    -0.080 HD
BRANCH  16  19
ATOM     19  O   UNL     1      36.881 -10.409 -25.582  0.00  0.00    -0.387 OA
ATOM     20  H   UNL     1      37.289  -9.561 -25.345  0.00  0.00    +0.210 HD
ENDBRANCH  16  19
ENDBRANCH  12  13
ENDBRANCH   5  12
ENDBRANCH   2   5
BRANCH   3  21
ATOM     21  C   UNL     1      32.206  -6.060 -24.657  0.00  0.00    +0.121 C 
BRANCH  21  22
ATOM     22  C   UNL     1      33.085  -5.480 -25.767  0.00  0.00    -0.010 C 
ATOM     23  C   UNL     1      32.524  -4.593 -26.657  0.00  0.00    -0.003 C 
ATOM     24  C   UNL     1      34.404  -5.868 -25.834  0.00  0.00    -0.003 C 
ATOM     25  C   UNL     1      33.326  -4.064 -27.668  0.00  0.00    -0.000 C 
ATOM     26  C   UNL     1      35.206  -5.338 -26.846  0.00  0.00    -0.000 C 
ATOM     27  C   UNL     1      34.666  -4.436 -27.763  0.00  0.00    -0.000 C 
ENDBRANCH  21  22
BRANCH  21  28
ATOM     28  C   UNL     1      31.568  -4.982 -23.788  0.00  0.00    -0.010 C 
ATOM     29  C   UNL     1      31.713  -3.661 -24.155  0.00  0.00    -0.003 C 
ATOM     30  C   UNL     1      30.867  -5.365 -22.665  0.00  0.00    -0.003 C 
ATOM     31  C   UNL     1      31.129  -2.676 -23.360  0.00  0.00    -0.000 C 
ATOM     32  C   UNL     1      30.283  -4.378 -21.870  0.00  0.00    -0.000 C 
ATOM     33  C   UNL     1      30.413  -3.034 -22.217  0.00  0.00    -0.000 C 
ENDBRANCH  21  28
ENDBRANCH   3  21
TORSDOF 8
ENDMDL
