MODEL 1
REMARK VINA RESULT:     -11.7      0.000      0.000
REMARK  Name = 10089048
REMARK  4 active torsions:
REMARK  status: ('A' for Active; 'I' for Inactive)
REMARK    1  A    between atoms: C_1  and  C_23
REMARK    2  A    between atoms: C_3  and  C_8
REMARK    3  A    between atoms: C_12  and  C_18
REMARK    4  A    between atoms: N_22  and  C_25
REMARK                            x       y       z     vdW  Elec       q    Type
REMARK                         _______ _______ _______ _____ _____    ______ ____
ROOT
ATOM      1  C   UNL     1      34.382 -15.694 -23.334  0.00  0.00    +0.053 C 
ATOM      2  C   UNL     1      34.281 -16.693 -22.367  0.00  0.00    +0.004 C 
ATOM      3  C   UNL     1      34.442 -18.031 -22.728  0.00  0.00    -0.004 C 
ATOM      4  C   UNL     1      34.642 -16.032 -24.663  0.00  0.00    +0.004 C 
ATOM      5  C   UNL     1      34.702 -18.369 -24.055  0.00  0.00    -0.022 C 
ATOM      6  C   UNL     1      34.803 -17.370 -25.023  0.00  0.00    -0.004 C 
ATOM      7  C   UNL     1      34.880 -19.792 -24.479  0.00  0.00    +0.031 C 
ENDROOT
BRANCH   3   8
ATOM      8  C   UNL     1      34.333 -19.051 -21.704  0.00  0.00    -0.004 C 
ATOM      9  C   UNL     1      35.467 -19.559 -21.069  0.00  0.00    -0.022 C 
ATOM     10  C   UNL     1      33.068 -19.525 -21.355  0.00  0.00    -0.000 C 
ATOM     11  C   UNL     1      35.336 -20.539 -20.086  0.00  0.00    +0.000 C 
ATOM     12  C   UNL     1      34.071 -21.013 -19.737  0.00  0.00    +0.055 C 
ATOM     13  C   UNL     1      32.937 -20.505 -20.371  0.00  0.00    +0.005 C 
ATOM     14  C   UNL     1      36.838 -19.076 -21.418  0.00  0.00    +0.031 C 
BRANCH  12  18
ATOM     15  O   UNL     1      32.691 -22.170 -18.195  0.00  0.00    -0.420 OA
ATOM     16  N   UNL     1      34.825 -22.841 -18.217  0.00  0.00    -0.107 NA
ATOM     17  N   UNL     1      34.149 -23.597 -17.279  0.00  0.00    -0.111 NA
ATOM     18  C   UNL     1      33.934 -22.028 -18.721  0.00  0.00    +0.250 A 
ATOM     19  C   UNL     1      32.907 -23.172 -17.300  0.00  0.00    +0.227 A 
ATOM     20  C   UNL     1      31.751 -23.616 -16.511  0.00  0.00    +0.097 C 
ENDBRANCH  12  18
ENDBRANCH   3   8
BRANCH   1  23
ATOM     21  O   UNL     1      34.119 -13.969 -21.765  0.00  0.00    -0.270 OA
ATOM     22  N   UNL     1      34.151 -13.363 -24.001  0.00  0.00    -0.302 N 
ATOM     23  C   UNL     1      34.215 -14.299 -22.961  0.00  0.00    +0.246 C 
ATOM     24  H   UNL     1      34.233 -13.688 -24.928  0.00  0.00    +0.150 HD
BRANCH  22  25
ATOM     25  C   UNL     1      33.967 -11.955 -23.787  0.00  0.00    +0.072 C 
ATOM     26  C   UNL     1      33.129 -11.143 -24.719  0.00  0.00    +0.021 C 
ATOM     27  C   UNL     1      34.618 -10.955 -24.686  0.00  0.00    +0.021 C 
ENDBRANCH  22  25
ENDBRANCH   1  23
TORSDOF 4
ENDMDL
MODEL 2
REMARK VINA RESULT:     -11.4      1.305      1.535
REMARK  Name = 10089048
REMARK  4 active torsions:
REMARK  status: ('A' for Active; 'I' for Inactive)
REMARK    1  A    between atoms: C_1  and  C_23
REMARK    2  A    between atoms: C_3  and  C_8
REMARK    3  A    between atoms: C_12  and  C_18
REMARK    4  A    between atoms: N_22  and  C_25
REMARK                            x       y       z     vdW  Elec       q    Type
REMARK                         _______ _______ _______ _____ _____    ______ ____
ROOT
ATOM      1  C   UNL     1      34.132 -15.729 -23.439  0.00  0.00    +0.053 C 
ATOM      2  C   UNL     1      34.062 -16.718 -22.458  0.00  0.00    +0.004 C 
ATOM      3  C   UNL     1      34.331 -18.047 -22.788  0.00  0.00    -0.004 C 
ATOM      4  C   UNL     1      34.468 -16.069 -24.750  0.00  0.00    +0.004 C 
ATOM      5  C   UNL     1      34.668 -18.386 -24.098  0.00  0.00    -0.022 C 
ATOM      6  C   UNL     1      34.737 -17.397 -25.079  0.00  0.00    -0.004 C 
ATOM      7  C   UNL     1      34.962 -19.799 -24.487  0.00  0.00    +0.031 C 
ENDROOT
BRANCH   3   8
ATOM      8  C   UNL     1      34.253 -19.055 -21.750  0.00  0.00    -0.004 C 
ATOM      9  C   UNL     1      35.400 -19.504 -21.095  0.00  0.00    -0.022 C 
ATOM     10  C   UNL     1      33.005 -19.578 -21.409  0.00  0.00    -0.000 C 
ATOM     11  C   UNL     1      35.299 -20.476 -20.098  0.00  0.00    +0.000 C 
ATOM     12  C   UNL     1      34.051 -20.998 -19.758  0.00  0.00    +0.055 C 
ATOM     13  C   UNL     1      32.904 -20.549 -20.413  0.00  0.00    +0.005 C 
ATOM     14  C   UNL     1      36.754 -18.968 -21.433  0.00  0.00    +0.031 C 
BRANCH  12  18
ATOM     15  O   UNL     1      32.707 -22.172 -18.196  0.00  0.00    -0.420 OA
ATOM     16  N   UNL     1      34.859 -22.786 -18.217  0.00  0.00    -0.107 NA
ATOM     17  N   UNL     1      34.207 -23.548 -17.267  0.00  0.00    -0.111 NA
ATOM     18  C   UNL     1      33.945 -22.004 -18.728  0.00  0.00    +0.250 A 
ATOM     19  C   UNL     1      32.954 -23.156 -17.289  0.00  0.00    +0.227 A 
ATOM     20  C   UNL     1      31.813 -23.621 -16.490  0.00  0.00    +0.097 C 
ENDBRANCH  12  18
ENDBRANCH   3   8
BRANCH   1  23
ATOM     21  O   UNL     1      34.220 -13.420 -23.845  0.00  0.00    -0.270 OA
ATOM     22  N   UNL     1      33.177 -14.107 -21.894  0.00  0.00    -0.302 N 
ATOM     23  C   UNL     1      33.853 -14.344 -23.098  0.00  0.00    +0.246 C 
ATOM     24  H   UNL     1      32.913 -14.882 -21.347  0.00  0.00    +0.150 HD
BRANCH  22  25
ATOM     25  C   UNL     1      32.852 -12.792 -21.417  0.00  0.00    +0.072 C 
ATOM     26  C   UNL     1      31.840 -12.601 -20.335  0.00  0.00    +0.021 C 
ATOM     27  C   UNL     1      31.534 -12.168 -21.739  0.00  0.00    +0.021 C 
ENDBRANCH  22  25
ENDBRANCH   1  23
TORSDOF 4
ENDMDL
MODEL 3
REMARK VINA RESULT:     -11.4      1.130      8.920
REMARK  Name = 10089048
REMARK  4 active torsions:
REMARK  status: ('A' for Active; 'I' for Inactive)
REMARK    1  A    between atoms: C_1  and  C_23
REMARK    2  A    between atoms: C_3  and  C_8
REMARK    3  A    between atoms: C_12  and  C_18
REMARK    4  A    between atoms: N_22  and  C_25
REMARK                            x       y       z     vdW  Elec       q    Type
REMARK                         _______ _______ _______ _____ _____    ______ ____
ROOT
ATOM      1  C   UNL     1      34.678 -21.166 -19.808  0.00  0.00    +0.053 C 
ATOM      2  C   UNL     1      34.343 -20.035 -20.552  0.00  0.00    +0.004 C 
ATOM      3  C   UNL     1      35.348 -19.254 -21.124  0.00  0.00    -0.004 C 
ATOM      4  C   UNL     1      36.018 -21.515 -19.635  0.00  0.00    +0.004 C 
ATOM      5  C   UNL     1      36.686 -19.604 -20.951  0.00  0.00    -0.022 C 
ATOM      6  C   UNL     1      37.021 -20.735 -20.207  0.00  0.00    -0.004 C 
ATOM      7  C   UNL     1      37.790 -18.791 -21.549  0.00  0.00    +0.031 C 
ENDROOT
BRANCH   3   8
ATOM      8  C   UNL     1      34.973 -18.084 -21.894  0.00  0.00    -0.004 C 
ATOM      9  C   UNL     1      34.803 -18.156 -23.276  0.00  0.00    -0.022 C 
ATOM     10  C   UNL     1      34.783 -16.872 -21.230  0.00  0.00    -0.000 C 
ATOM     11  C   UNL     1      34.441 -17.016 -23.995  0.00  0.00    +0.000 C 
ATOM     12  C   UNL     1      34.251 -15.804 -23.331  0.00  0.00    +0.055 C 
ATOM     13  C   UNL     1      34.422 -15.732 -21.948  0.00  0.00    +0.005 C 
ATOM     14  C   UNL     1      34.999 -19.437 -24.022  0.00  0.00    +0.031 C 
BRANCH  12  18
ATOM     15  O   UNL     1      34.146 -13.439 -23.467  0.00  0.00    -0.420 OA
ATOM     16  N   UNL     1      33.315 -14.511 -25.247  0.00  0.00    -0.107 NA
ATOM     17  N   UNL     1      33.187 -13.152 -25.467  0.00  0.00    -0.111 NA
ATOM     18  C   UNL     1      33.878 -14.624 -24.072  0.00  0.00    +0.250 A 
ATOM     19  C   UNL     1      33.684 -12.567 -24.402  0.00  0.00    +0.227 A 
ATOM     20  C   UNL     1      33.807 -11.136 -24.092  0.00  0.00    +0.097 C 
ENDBRANCH  12  18
ENDBRANCH   3   8
BRANCH   1  23
ATOM     21  O   UNL     1      32.522 -22.091 -19.760  0.00  0.00    -0.270 OA
ATOM     22  N   UNL     1      33.930 -22.610 -17.996  0.00  0.00    -0.302 N 
ATOM     23  C   UNL     1      33.633 -21.981 -19.211  0.00  0.00    +0.246 C 
ATOM     24  H   UNL     1      34.829 -22.483 -17.611  0.00  0.00    +0.150 HD
BRANCH  22  25
ATOM     25  C   UNL     1      32.992 -23.428 -17.279  0.00  0.00    +0.072 C 
ATOM     26  C   UNL     1      31.817 -22.817 -16.589  0.00  0.00    +0.021 C 
ATOM     27  C   UNL     1      32.942 -23.403 -15.786  0.00  0.00    +0.021 C 
ENDBRANCH  22  25
ENDBRANCH   1  23
TORSDOF 4
ENDMDL
MODEL 4
REMARK VINA RESULT:     -10.8      2.591      4.538
REMARK  Name = 10089048
REMARK  4 active torsions:
REMARK  status: ('A' for Active; 'I' for Inactive)
REMARK    1  A    between atoms: C_1  and  C_23
REMARK    2  A    between atoms: C_3  and  C_8
REMARK    3  A    between atoms: C_12  and  C_18
REMARK    4  A    between atoms: N_22  and  C_25
REMARK                            x       y       z     vdW  Elec       q    Type
REMARK                         _______ _______ _______ _____ _____    ______ ____
ROOT
ATOM      1  C   UNL     1      33.829 -11.657 -24.547  0.00  0.00    +0.053 C 
ATOM      2  C   UNL     1      34.073 -12.790 -23.772  0.00  0.00    +0.004 C 
ATOM      3  C   UNL     1      33.832 -14.060 -24.298  0.00  0.00    -0.004 C 
ATOM      4  C   UNL     1      33.343 -11.793 -25.848  0.00  0.00    +0.004 C 
ATOM      5  C   UNL     1      33.346 -14.195 -25.598  0.00  0.00    -0.022 C 
ATOM      6  C   UNL     1      33.102 -13.062 -26.373  0.00  0.00    -0.004 C 
ATOM      7  C   UNL     1      33.076 -15.539 -26.195  0.00  0.00    +0.031 C 
ENDROOT
BRANCH   3   8
ATOM      8  C   UNL     1      34.094 -15.222 -23.472  0.00  0.00    -0.004 C 
ATOM      9  C   UNL     1      33.445 -15.398 -22.250  0.00  0.00    -0.022 C 
ATOM     10  C   UNL     1      35.013 -16.172 -23.917  0.00  0.00    -0.000 C 
ATOM     11  C   UNL     1      33.714 -16.525 -21.474  0.00  0.00    +0.000 C 
ATOM     12  C   UNL     1      34.633 -17.476 -21.919  0.00  0.00    +0.055 C 
ATOM     13  C   UNL     1      35.282 -17.299 -23.140  0.00  0.00    +0.005 C 
ATOM     14  C   UNL     1      32.455 -14.400 -21.741  0.00  0.00    +0.031 C 
BRANCH  12  18
ATOM     15  O   UNL     1      33.851 -19.449 -20.862  0.00  0.00    -0.420 OA
ATOM     16  N   UNL     1      36.036 -19.050 -20.587  0.00  0.00    -0.107 NA
ATOM     17  N   UNL     1      35.728 -20.221 -19.921  0.00  0.00    -0.111 NA
ATOM     18  C   UNL     1      34.912 -18.642 -21.116  0.00  0.00    +0.250 A 
ATOM     19  C   UNL     1      34.443 -20.415 -20.108  0.00  0.00    +0.227 A 
ATOM     20  C   UNL     1      33.580 -21.502 -19.628  0.00  0.00    +0.097 C 
ENDBRANCH  12  18
ENDBRANCH   3   8
BRANCH   1  23
ATOM     21  O   UNL     1      35.217  -9.830 -24.055  0.00  0.00    -0.270 OA
ATOM     22  N   UNL     1      32.999  -9.674 -23.405  0.00  0.00    -0.302 N 
ATOM     23  C   UNL     1      34.081 -10.333 -24.002  0.00  0.00    +0.246 C 
ATOM     24  H   UNL     1      32.124 -10.126 -23.394  0.00  0.00    +0.150 HD
BRANCH  22  25
ATOM     25  C   UNL     1      33.100  -8.372 -22.806  0.00  0.00    +0.072 C 
ATOM     26  C   UNL     1      32.778  -8.169 -21.362  0.00  0.00    +0.021 C 
ATOM     27  C   UNL     1      31.874  -7.611 -22.422  0.00  0.00    +0.021 C 
ENDBRANCH  22  25
ENDBRANCH   1  23
TORSDOF 4
ENDMDL
MODEL 5
REMARK VINA RESULT:     -10.8      1.597      2.219
REMARK  Name = 10089048
REMARK  4 active torsions:
REMARK  status: ('A' for Active; 'I' for Inactive)
REMARK    1  A    between atoms: C_1  and  C_23
REMARK    2  A    between atoms: C_3  and  C_8
REMARK    3  A    between atoms: C_12  and  C_18
REMARK    4  A    between atoms: N_22  and  C_25
REMARK                            x       y       z     vdW  Elec       q    Type
REMARK                         _______ _______ _______ _____ _____    ______ ____
ROOT
ATOM      1  C   UNL     1      34.425 -15.968 -23.557  0.00  0.00    +0.053 C 
ATOM      2  C   UNL     1      34.606 -16.858 -22.498  0.00  0.00    +0.004 C 
ATOM      3  C   UNL     1      34.808 -18.214 -22.755  0.00  0.00    -0.004 C 
ATOM      4  C   UNL     1      34.445 -16.435 -24.872  0.00  0.00    +0.004 C 
ATOM      5  C   UNL     1      34.828 -18.681 -24.068  0.00  0.00    -0.022 C 
ATOM      6  C   UNL     1      34.647 -17.791 -25.127  0.00  0.00    -0.004 C 
ATOM      7  C   UNL     1      35.042 -20.127 -24.381  0.00  0.00    +0.031 C 
ENDROOT
BRANCH   3   8
ATOM      8  C   UNL     1      34.995 -19.118 -21.637  0.00  0.00    -0.004 C 
ATOM      9  C   UNL     1      33.905 -19.725 -21.012  0.00  0.00    -0.022 C 
ATOM     10  C   UNL     1      36.289 -19.377 -21.187  0.00  0.00    -0.000 C 
ATOM     11  C   UNL     1      34.110 -20.592 -19.939  0.00  0.00    +0.000 C 
ATOM     12  C   UNL     1      35.405 -20.851 -19.489  0.00  0.00    +0.055 C 
ATOM     13  C   UNL     1      36.495 -20.244 -20.113  0.00  0.00    +0.005 C 
ATOM     14  C   UNL     1      32.503 -19.470 -21.466  0.00  0.00    +0.031 C 
BRANCH  12  18
ATOM     15  O   UNL     1      36.800 -21.602 -17.725  0.00  0.00    -0.420 OA
ATOM     16  N   UNL     1      34.850 -22.687 -17.895  0.00  0.00    -0.107 NA
ATOM     17  N   UNL     1      35.550 -23.229 -16.834  0.00  0.00    -0.111 NA
ATOM     18  C   UNL     1      35.619 -21.747 -18.378  0.00  0.00    +0.250 A 
ATOM     19  C   UNL     1      36.681 -22.566 -16.772  0.00  0.00    +0.227 A 
ATOM     20  C   UNL     1      37.806 -22.717 -15.840  0.00  0.00    +0.097 C 
ENDBRANCH  12  18
ENDBRANCH   3   8
BRANCH   1  23
ATOM     21  O   UNL     1      34.432 -14.080 -22.164  0.00  0.00    -0.270 OA
ATOM     22  N   UNL     1      33.743 -13.771 -24.354  0.00  0.00    -0.302 N 
ATOM     23  C   UNL     1      34.214 -14.554 -23.293  0.00  0.00    +0.246 C 
ATOM     24  H   UNL     1      33.590 -14.206 -25.225  0.00  0.00    +0.150 HD
BRANCH  22  25
ATOM     25  C   UNL     1      33.469 -12.366 -24.237  0.00  0.00    +0.072 C 
ATOM     26  C   UNL     1      33.616 -11.458 -25.414  0.00  0.00    +0.021 C 
ATOM     27  C   UNL     1      34.579 -11.367 -24.266  0.00  0.00    +0.021 C 
ENDBRANCH  22  25
ENDBRANCH   1  23
TORSDOF 4
ENDMDL
MODEL 6
REMARK VINA RESULT:     -10.4      2.987      9.341
REMARK  Name = 10089048
REMARK  4 active torsions:
REMARK  status: ('A' for Active; 'I' for Inactive)
REMARK    1  A    between atoms: C_1  and  C_23
REMARK    2  A    between atoms: C_3  and  C_8
REMARK    3  A    between atoms: C_12  and  C_18
REMARK    4  A    between atoms: N_22  and  C_25
REMARK                            x       y       z     vdW  Elec       q    Type
REMARK                         _______ _______ _______ _____ _____    ______ ____
ROOT
ATOM      1  C   UNL     1      35.129 -17.580 -23.125  0.00  0.00    +0.053 C 
ATOM      2  C   UNL     1      34.685 -16.290 -22.837  0.00  0.00    +0.004 C 
ATOM      3  C   UNL     1      34.018 -15.548 -23.812  0.00  0.00    -0.004 C 
ATOM      4  C   UNL     1      34.907 -18.129 -24.389  0.00  0.00    +0.004 C 
ATOM      5  C   UNL     1      33.796 -16.097 -25.075  0.00  0.00    -0.022 C 
ATOM      6  C   UNL     1      34.241 -17.387 -25.363  0.00  0.00    -0.004 C 
ATOM      7  C   UNL     1      33.086 -15.332 -26.145  0.00  0.00    +0.031 C 
ENDROOT
BRANCH   3   8
ATOM      8  C   UNL     1      33.566 -14.210 -23.488  0.00  0.00    -0.004 C 
ATOM      9  C   UNL     1      32.769 -13.971 -22.368  0.00  0.00    -0.022 C 
ATOM     10  C   UNL     1      33.940 -13.152 -24.316  0.00  0.00    -0.000 C 
ATOM     11  C   UNL     1      32.347 -12.673 -22.077  0.00  0.00    +0.000 C 
ATOM     12  C   UNL     1      32.722 -11.615 -22.905  0.00  0.00    +0.055 C 
ATOM     13  C   UNL     1      33.519 -11.854 -24.025  0.00  0.00    +0.005 C 
ATOM     14  C   UNL     1      32.347 -15.080 -21.458  0.00  0.00    +0.031 C 
BRANCH  12  18
ATOM     15  O   UNL     1      31.966  -9.505 -23.678  0.00  0.00    -0.420 OA
ATOM     16  N   UNL     1      32.148  -9.670 -21.454  0.00  0.00    -0.107 NA
ATOM     17  N   UNL     1      31.703  -8.396 -21.753  0.00  0.00    -0.111 NA
ATOM     18  C   UNL     1      32.286 -10.273 -22.605  0.00  0.00    +0.250 A 
ATOM     19  C   UNL     1      31.612  -8.345 -23.062  0.00  0.00    +0.227 A 
ATOM     20  C   UNL     1      31.190  -7.237 -23.928  0.00  0.00    +0.097 C 
ENDBRANCH  12  18
ENDBRANCH   3   8
BRANCH   1  23
ATOM     21  O   UNL     1      37.065 -18.332 -22.032  0.00  0.00    -0.270 OA
ATOM     22  N   UNL     1      35.036 -19.131 -21.250  0.00  0.00    -0.302 N 
ATOM     23  C   UNL     1      35.824 -18.355 -22.110  0.00  0.00    +0.246 C 
ATOM     24  H   UNL     1      34.057 -19.107 -21.363  0.00  0.00    +0.150 HD
BRANCH  22  25
ATOM     25  C   UNL     1      35.581 -19.963 -20.215  0.00  0.00    +0.072 C 
ATOM     26  C   UNL     1      36.106 -21.326 -20.527  0.00  0.00    +0.021 C 
ATOM     27  C   UNL     1      34.841 -21.168 -19.734  0.00  0.00    +0.021 C 
ENDBRANCH  22  25
ENDBRANCH   1  23
TORSDOF 4
ENDMDL
MODEL 7
REMARK VINA RESULT:     -10.1      3.479     10.400
REMARK  Name = 10089048
REMARK  4 active torsions:
REMARK  status: ('A' for Active; 'I' for Inactive)
REMARK    1  A    between atoms: C_1  and  C_23
REMARK    2  A    between atoms: C_3  and  C_8
REMARK    3  A    between atoms: C_12  and  C_18
REMARK    4  A    between atoms: N_22  and  C_25
REMARK                            x       y       z     vdW  Elec       q    Type
REMARK                         _______ _______ _______ _____ _____    ______ ____
ROOT
ATOM      1  C   UNL     1      34.454 -15.682 -22.733  0.00  0.00    +0.053 C 
ATOM      2  C   UNL     1      34.179 -14.317 -22.651  0.00  0.00    +0.004 C 
ATOM      3  C   UNL     1      33.720 -13.630 -23.775  0.00  0.00    -0.004 C 
ATOM      4  C   UNL     1      34.271 -16.359 -23.940  0.00  0.00    +0.004 C 
ATOM      5  C   UNL     1      33.537 -14.307 -24.980  0.00  0.00    -0.022 C 
ATOM      6  C   UNL     1      33.812 -15.671 -25.063  0.00  0.00    -0.004 C 
ATOM      7  C   UNL     1      33.047 -13.603 -26.205  0.00  0.00    +0.031 C 
ENDROOT
BRANCH   3   8
ATOM      8  C   UNL     1      33.441 -12.212 -23.663  0.00  0.00    -0.004 C 
ATOM      9  C   UNL     1      32.457 -11.738 -22.796  0.00  0.00    -0.022 C 
ATOM     10  C   UNL     1      34.176 -11.316 -24.440  0.00  0.00    -0.000 C 
ATOM     11  C   UNL     1      32.207 -10.368 -22.706  0.00  0.00    +0.000 C 
ATOM     12  C   UNL     1      32.942  -9.472 -23.483  0.00  0.00    +0.055 C 
ATOM     13  C   UNL     1      33.927  -9.946 -24.350  0.00  0.00    +0.005 C 
ATOM     14  C   UNL     1      31.649 -12.667 -21.949  0.00  0.00    +0.031 C 
BRANCH  12  18
ATOM     15  O   UNL     1      31.716  -7.689 -22.514  0.00  0.00    -0.420 OA
ATOM     16  N   UNL     1      33.239  -7.056 -24.026  0.00  0.00    -0.107 NA
ATOM     17  N   UNL     1      32.609  -5.921 -23.553  0.00  0.00    -0.111 NA
ATOM     18  C   UNL     1      32.685  -8.056 -23.392  0.00  0.00    +0.250 A 
ATOM     19  C   UNL     1      31.728  -6.338 -22.673  0.00  0.00    +0.227 A 
ATOM     20  C   UNL     1      30.780  -5.567 -21.859  0.00  0.00    +0.097 C 
ENDBRANCH  12  18
ENDBRANCH   3   8
BRANCH   1  23
ATOM     21  O   UNL     1      34.979 -15.844 -20.453  0.00  0.00    -0.270 OA
ATOM     22  N   UNL     1      35.347 -17.725 -21.755  0.00  0.00    -0.302 N 
ATOM     23  C   UNL     1      34.932 -16.401 -21.563  0.00  0.00    +0.246 C 
ATOM     24  H   UNL     1      35.285 -18.108 -22.660  0.00  0.00    +0.150 HD
BRANCH  22  25
ATOM     25  C   UNL     1      35.861 -18.551 -20.698  0.00  0.00    +0.072 C 
ATOM     26  C   UNL     1      37.020 -19.463 -20.937  0.00  0.00    +0.021 C 
ATOM     27  C   UNL     1      35.647 -20.029 -20.713  0.00  0.00    +0.021 C 
ENDBRANCH  22  25
ENDBRANCH   1  23
TORSDOF 4
ENDMDL
MODEL 8
REMARK VINA RESULT:     -10.1      5.257     10.166
REMARK  Name = 10089048
REMARK  4 active torsions:
REMARK  status: ('A' for Active; 'I' for Inactive)
REMARK    1  A    between atoms: C_1  and  C_23
REMARK    2  A    between atoms: C_3  and  C_8
REMARK    3  A    between atoms: C_12  and  C_18
REMARK    4  A    between atoms: N_22  and  C_25
REMARK                            x       y       z     vdW  Elec       q    Type
REMARK                         _______ _______ _______ _____ _____    ______ ____
ROOT
ATOM      1  C   UNL     1      31.723  -5.831 -23.398  0.00  0.00    +0.053 C 
ATOM      2  C   UNL     1      32.046  -7.158 -23.683  0.00  0.00    +0.004 C 
ATOM      3  C   UNL     1      32.298  -8.053 -22.643  0.00  0.00    -0.004 C 
ATOM      4  C   UNL     1      31.653  -5.400 -22.072  0.00  0.00    +0.004 C 
ATOM      5  C   UNL     1      32.228  -7.621 -21.319  0.00  0.00    -0.022 C 
ATOM      6  C   UNL     1      31.905  -6.295 -21.034  0.00  0.00    -0.004 C 
ATOM      7  C   UNL     1      32.492  -8.552 -20.179  0.00  0.00    +0.031 C 
ENDROOT
BRANCH   3   8
ATOM      8  C   UNL     1      32.631  -9.426 -22.966  0.00  0.00    -0.004 C 
ATOM      9  C   UNL     1      33.790  -9.738 -23.677  0.00  0.00    -0.022 C 
ATOM     10  C   UNL     1      31.770 -10.444 -22.554  0.00  0.00    -0.000 C 
ATOM     11  C   UNL     1      34.089 -11.067 -23.975  0.00  0.00    +0.000 C 
ATOM     12  C   UNL     1      33.228 -12.085 -23.563  0.00  0.00    +0.055 C 
ATOM     13  C   UNL     1      32.069 -11.773 -22.852  0.00  0.00    +0.005 C 
ATOM     14  C   UNL     1      34.735  -8.674 -24.135  0.00  0.00    +0.031 C 
BRANCH  12  18
ATOM     15  O   UNL     1      34.258 -14.126 -22.934  0.00  0.00    -0.420 OA
ATOM     16  N   UNL     1      33.230 -14.178 -24.921  0.00  0.00    -0.107 NA
ATOM     17  N   UNL     1      33.779 -15.425 -24.691  0.00  0.00    -0.111 NA
ATOM     18  C   UNL     1      33.536 -13.461 -23.871  0.00  0.00    +0.250 A 
ATOM     19  C   UNL     1      34.369 -15.349 -23.521  0.00  0.00    +0.227 A 
ATOM     20  C   UNL     1      35.112 -16.375 -22.778  0.00  0.00    +0.097 C 
ENDBRANCH  12  18
ENDBRANCH   3   8
BRANCH   1  23
ATOM     21  O   UNL     1      30.445  -4.176 -24.463  0.00  0.00    -0.270 OA
ATOM     22  N   UNL     1      32.381  -4.865 -25.533  0.00  0.00    -0.302 N 
ATOM     23  C   UNL     1      31.459  -4.897 -24.480  0.00  0.00    +0.246 C 
ATOM     24  H   UNL     1      33.164  -5.461 -25.488  0.00  0.00    +0.150 HD
BRANCH  22  25
ATOM     25  C   UNL     1      32.241  -4.010 -26.679  0.00  0.00    +0.072 C 
ATOM     26  C   UNL     1      32.969  -4.309 -27.949  0.00  0.00    +0.021 C 
ATOM     27  C   UNL     1      33.365  -3.126 -27.113  0.00  0.00    +0.021 C 
ENDBRANCH  22  25
ENDBRANCH   1  23
TORSDOF 4
ENDMDL
MODEL 9
REMARK VINA RESULT:      -9.6      3.698     10.728
REMARK  Name = 10089048
REMARK  4 active torsions:
REMARK  status: ('A' for Active; 'I' for Inactive)
REMARK    1  A    between atoms: C_1  and  C_23
REMARK    2  A    between atoms: C_3  and  C_8
REMARK    3  A    between atoms: C_12  and  C_18
REMARK    4  A    between atoms: N_22  and  C_25
REMARK                            x       y       z     vdW  Elec       q    Type
REMARK                         _______ _______ _______ _____ _____    ______ ____
ROOT
ATOM      1  C   UNL     1      34.219 -15.115 -22.829  0.00  0.00    +0.053 C 
ATOM      2  C   UNL     1      33.862 -13.780 -22.642  0.00  0.00    +0.004 C 
ATOM      3  C   UNL     1      33.402 -13.024 -23.720  0.00  0.00    -0.004 C 
ATOM      4  C   UNL     1      34.118 -15.693 -24.095  0.00  0.00    +0.004 C 
ATOM      5  C   UNL     1      33.301 -13.602 -24.985  0.00  0.00    -0.022 C 
ATOM      6  C   UNL     1      33.659 -14.937 -25.173  0.00  0.00    -0.004 C 
ATOM      7  C   UNL     1      32.813 -12.822 -26.164  0.00  0.00    +0.031 C 
ENDROOT
BRANCH   3   8
ATOM      8  C   UNL     1      33.036 -11.639 -23.499  0.00  0.00    -0.004 C 
ATOM      9  C   UNL     1      33.787 -10.599 -24.046  0.00  0.00    -0.022 C 
ATOM     10  C   UNL     1      31.911 -11.354 -22.724  0.00  0.00    -0.000 C 
ATOM     11  C   UNL     1      33.414  -9.274 -23.820  0.00  0.00    +0.000 C 
ATOM     12  C   UNL     1      32.290  -8.989 -23.045  0.00  0.00    +0.055 C 
ATOM     13  C   UNL     1      31.538 -10.029 -22.498  0.00  0.00    +0.005 C 
ATOM     14  C   UNL     1      34.999 -10.867 -24.881  0.00  0.00    +0.031 C 
BRANCH  12  18
ATOM     15  O   UNL     1      31.702  -6.865 -23.920  0.00  0.00    -0.420 OA
ATOM     16  N   UNL     1      31.715  -6.979 -21.685  0.00  0.00    -0.107 NA
ATOM     17  N   UNL     1      31.358  -5.693 -22.046  0.00  0.00    -0.111 NA
ATOM     18  C   UNL     1      31.903  -7.619 -22.809  0.00  0.00    +0.250 A 
ATOM     19  C   UNL     1      31.364  -5.673 -23.359  0.00  0.00    +0.227 A 
ATOM     20  C   UNL     1      31.064  -4.569 -24.280  0.00  0.00    +0.097 C 
ENDBRANCH  12  18
ENDBRANCH   3   8
BRANCH   1  23
ATOM     21  O   UNL     1      34.938 -15.371 -20.610  0.00  0.00    -0.270 OA
ATOM     22  N   UNL     1      34.890 -17.275 -21.928  0.00  0.00    -0.302 N 
ATOM     23  C   UNL     1      34.698 -15.906 -21.707  0.00  0.00    +0.246 C 
ATOM     24  H   UNL     1      34.682 -17.639 -22.820  0.00  0.00    +0.150 HD
BRANCH  22  25
ATOM     25  C   UNL     1      35.378 -18.177 -20.922  0.00  0.00    +0.072 C 
ATOM     26  C   UNL     1      36.602 -18.999 -21.161  0.00  0.00    +0.021 C 
ATOM     27  C   UNL     1      35.253 -19.655 -21.097  0.00  0.00    +0.021 C 
ENDBRANCH  22  25
ENDBRANCH   1  23
TORSDOF 4
ENDMDL
