MODEL 1
REMARK VINA RESULT:      -7.9      0.000      0.000
REMARK  Name = 5288795
REMARK  10 active torsions:
REMARK  status: ('A' for Active; 'I' for Inactive)
REMARK    1  A    between atoms: C_1  and  C_3
REMARK    2  A    between atoms: C_1  and  C_11
REMARK    3  A    between atoms: C_3  and  C_4
REMARK    4  A    between atoms: C_4  and  C_5
REMARK    5  A    between atoms: C_5  and  C_6
REMARK    6  A    between atoms: C_6  and  O_9
REMARK    7  A    between atoms: C_11  and  C_12
REMARK    8  A    between atoms: C_13  and  C_14
REMARK    9  A    between atoms: C_16  and  C_18
REMARK   10  A    between atoms: C_18  and  O_19
REMARK                            x       y       z     vdW  Elec       q    Type
REMARK                         _______ _______ _______ _____ _____    ______ ____
ROOT
ATOM      1  C   UNL     1      34.425 -21.398 -19.327  0.00  0.00    +0.004 C 
ATOM      2  C   UNL     1      35.783 -21.358 -20.043  0.00  0.00    +0.000 C 
ENDROOT
BRANCH   1   3
ATOM      3  C   UNL     1      33.403 -20.584 -20.150  0.00  0.00    +0.000 C 
BRANCH   3   4
ATOM      4  C   UNL     1      34.020 -19.837 -21.339  0.00  0.00    +0.002 C 
BRANCH   4   5
ATOM      5  C   UNL     1      33.774 -18.325 -21.228  0.00  0.00    +0.027 C 
BRANCH   5   6
ATOM      6  C   UNL     1      34.999 -17.451 -21.562  0.00  0.00    +0.093 C 
ATOM      7  C   UNL     1      36.250 -18.283 -21.852  0.00  0.00    +0.030 C 
ATOM      8  C   UNL     1      34.678 -16.554 -22.762  0.00  0.00    +0.030 C 
BRANCH   6   9
ATOM      9  O   UNL     1      35.267 -16.605 -20.442  0.00  0.00    -0.356 OA
ATOM     10  C   UNL     1      34.530 -15.396 -20.522  0.00  0.00    +0.174 C 
ENDBRANCH   6   9
ENDBRANCH   5   6
ENDBRANCH   4   5
ENDBRANCH   3   4
ENDBRANCH   1   3
BRANCH   1  11
ATOM     11  C   UNL     1      33.953 -22.850 -19.098  0.00  0.00    +0.026 C 
BRANCH  11  12
ATOM     12  C   UNL     1      33.517 -23.115 -17.681  0.00  0.00    -0.026 C 
ATOM     13  C   UNL     1      32.248 -22.989 -17.261  0.00  0.00    -0.009 C 
BRANCH  13  14
ATOM     14  C   UNL     1      31.746 -23.223 -15.905  0.00  0.00    -0.016 C 
ATOM     15  C   UNL     1      30.301 -22.890 -15.628  0.00  0.00    +0.031 C 
ATOM     16  C   UNL     1      32.606 -23.691 -14.979  0.00  0.00    +0.077 C 
BRANCH  16  18
ATOM     17  O   UNL     1      31.840 -25.095 -13.218  0.00  0.00    -0.245 OA
ATOM     18  C   UNL     1      32.264 -24.010 -13.582  0.00  0.00    +0.338 C 
BRANCH  18  19
ATOM     19  O   UNL     1      32.388 -22.922 -12.789  0.00  0.00    -0.477 OA
ATOM     20  H   UNL     1      32.360 -22.063 -13.164  0.00  0.00    +0.295 HD
ENDBRANCH  18  19
ENDBRANCH  16  18
ENDBRANCH  13  14
ENDBRANCH  11  12
ENDBRANCH   1  11
TORSDOF 10
ENDMDL
MODEL 2
REMARK VINA RESULT:      -7.8      2.166      3.037
REMARK  Name = 5288795
REMARK  10 active torsions:
REMARK  status: ('A' for Active; 'I' for Inactive)
REMARK    1  A    between atoms: C_1  and  C_3
REMARK    2  A    between atoms: C_1  and  C_11
REMARK    3  A    between atoms: C_3  and  C_4
REMARK    4  A    between atoms: C_4  and  C_5
REMARK    5  A    between atoms: C_5  and  C_6
REMARK    6  A    between atoms: C_6  and  O_9
REMARK    7  A    between atoms: C_11  and  C_12
REMARK    8  A    between atoms: C_13  and  C_14
REMARK    9  A    between atoms: C_16  and  C_18
REMARK   10  A    between atoms: C_18  and  O_19
REMARK                            x       y       z     vdW  Elec       q    Type
REMARK                         _______ _______ _______ _____ _____    ______ ____
ROOT
ATOM      1  C   UNL     1      34.358 -22.422 -18.883  0.00  0.00    +0.004 C 
ATOM      2  C   UNL     1      33.236 -21.535 -19.445  0.00  0.00    +0.000 C 
ENDROOT
BRANCH   1   3
ATOM      3  C   UNL     1      35.681 -21.625 -18.902  0.00  0.00    +0.000 C 
BRANCH   3   4
ATOM      4  C   UNL     1      36.120 -21.189 -20.305  0.00  0.00    +0.002 C 
BRANCH   4   5
ATOM      5  C   UNL     1      36.587 -19.725 -20.307  0.00  0.00    +0.027 C 
BRANCH   5   6
ATOM      6  C   UNL     1      35.797 -18.804 -21.259  0.00  0.00    +0.093 C 
ATOM      7  C   UNL     1      36.614 -18.389 -22.484  0.00  0.00    +0.030 C 
ATOM      8  C   UNL     1      34.510 -19.507 -21.703  0.00  0.00    +0.030 C 
BRANCH   6   9
ATOM      9  O   UNL     1      35.427 -17.625 -20.540  0.00  0.00    -0.356 OA
ATOM     10  C   UNL     1      34.895 -16.639 -21.409  0.00  0.00    +0.174 C 
ENDBRANCH   6   9
ENDBRANCH   5   6
ENDBRANCH   4   5
ENDBRANCH   3   4
ENDBRANCH   1   3
BRANCH   1  11
ATOM     11  C   UNL     1      34.015 -22.934 -17.468  0.00  0.00    +0.026 C 
BRANCH  11  12
ATOM     12  C   UNL     1      32.548 -23.221 -17.281  0.00  0.00    -0.026 C 
ATOM     13  C   UNL     1      31.936 -23.200 -16.087  0.00  0.00    -0.009 C 
BRANCH  13  14
ATOM     14  C   UNL     1      30.521 -23.469 -15.821  0.00  0.00    -0.016 C 
ATOM     15  C   UNL     1      30.189 -24.403 -14.683  0.00  0.00    +0.031 C 
ATOM     16  C   UNL     1      29.602 -22.896 -16.623  0.00  0.00    +0.077 C 
BRANCH  16  18
ATOM     17  O   UNL     1      27.486 -22.465 -15.623  0.00  0.00    -0.245 OA
ATOM     18  C   UNL     1      28.142 -23.036 -16.481  0.00  0.00    +0.338 C 
BRANCH  18  19
ATOM     19  O   UNL     1      27.651 -23.943 -17.354  0.00  0.00    -0.477 OA
ATOM     20  H   UNL     1      26.918 -24.476 -17.114  0.00  0.00    +0.295 HD
ENDBRANCH  18  19
ENDBRANCH  16  18
ENDBRANCH  13  14
ENDBRANCH  11  12
ENDBRANCH   1  11
TORSDOF 10
ENDMDL
MODEL 3
REMARK VINA RESULT:      -7.7      5.296      7.802
REMARK  Name = 5288795
REMARK  10 active torsions:
REMARK  status: ('A' for Active; 'I' for Inactive)
REMARK    1  A    between atoms: C_1  and  C_3
REMARK    2  A    between atoms: C_1  and  C_11
REMARK    3  A    between atoms: C_3  and  C_4
REMARK    4  A    between atoms: C_4  and  C_5
REMARK    5  A    between atoms: C_5  and  C_6
REMARK    6  A    between atoms: C_6  and  O_9
REMARK    7  A    between atoms: C_11  and  C_12
REMARK    8  A    between atoms: C_13  and  C_14
REMARK    9  A    between atoms: C_16  and  C_18
REMARK   10  A    between atoms: C_18  and  O_19
REMARK                            x       y       z     vdW  Elec       q    Type
REMARK                         _______ _______ _______ _____ _____    ______ ____
ROOT
ATOM      1  C   UNL     1      34.587 -23.558 -16.111  0.00  0.00    +0.004 C 
ATOM      2  C   UNL     1      34.135 -22.985 -17.463  0.00  0.00    +0.000 C 
ENDROOT
BRANCH   1   3
ATOM      3  C   UNL     1      35.998 -23.018 -15.788  0.00  0.00    +0.000 C 
BRANCH   3   4
ATOM      4  C   UNL     1      36.627 -23.643 -14.537  0.00  0.00    +0.002 C 
BRANCH   4   5
ATOM      5  C   UNL     1      37.843 -24.507 -14.904  0.00  0.00    +0.027 C 
BRANCH   5   6
ATOM      6  C   UNL     1      37.761 -25.967 -14.414  0.00  0.00    +0.093 C 
ATOM      7  C   UNL     1      37.440 -26.067 -12.922  0.00  0.00    +0.030 C 
ATOM      8  C   UNL     1      36.704 -26.723 -15.228  0.00  0.00    +0.030 C 
BRANCH   6   9
ATOM      9  O   UNL     1      39.025 -26.593 -14.649  0.00  0.00    -0.356 OA
ATOM     10  C   UNL     1      40.079 -25.645 -14.628  0.00  0.00    +0.174 C 
ENDBRANCH   6   9
ENDBRANCH   5   6
ENDBRANCH   4   5
ENDBRANCH   3   4
ENDBRANCH   1   3
BRANCH   1  11
ATOM     11  C   UNL     1      33.575 -23.228 -14.993  0.00  0.00    +0.026 C 
BRANCH  11  12
ATOM     12  C   UNL     1      32.179 -23.705 -15.298  0.00  0.00    -0.026 C 
ATOM     13  C   UNL     1      31.098 -22.911 -15.248  0.00  0.00    -0.009 C 
BRANCH  13  14
ATOM     14  C   UNL     1      29.713 -23.296 -15.526  0.00  0.00    -0.016 C 
ATOM     15  C   UNL     1      29.255 -24.651 -15.047  0.00  0.00    +0.031 C 
ATOM     16  C   UNL     1      28.938 -22.436 -16.217  0.00  0.00    +0.077 C 
BRANCH  16  18
ATOM     17  O   UNL     1      26.595 -22.383 -15.804  0.00  0.00    -0.245 OA
ATOM     18  C   UNL     1      27.520 -22.649 -16.556  0.00  0.00    +0.338 C 
BRANCH  18  19
ATOM     19  O   UNL     1      27.392 -23.263 -17.754  0.00  0.00    -0.477 OA
ATOM     20  H   UNL     1      27.822 -22.911 -18.508  0.00  0.00    +0.295 HD
ENDBRANCH  18  19
ENDBRANCH  16  18
ENDBRANCH  13  14
ENDBRANCH  11  12
ENDBRANCH   1  11
TORSDOF 10
ENDMDL
MODEL 4
REMARK VINA RESULT:      -7.7      2.905      5.212
REMARK  Name = 5288795
REMARK  10 active torsions:
REMARK  status: ('A' for Active; 'I' for Inactive)
REMARK    1  A    between atoms: C_1  and  C_3
REMARK    2  A    between atoms: C_1  and  C_11
REMARK    3  A    between atoms: C_3  and  C_4
REMARK    4  A    between atoms: C_4  and  C_5
REMARK    5  A    between atoms: C_5  and  C_6
REMARK    6  A    between atoms: C_6  and  O_9
REMARK    7  A    between atoms: C_11  and  C_12
REMARK    8  A    between atoms: C_13  and  C_14
REMARK    9  A    between atoms: C_16  and  C_18
REMARK   10  A    between atoms: C_18  and  O_19
REMARK                            x       y       z     vdW  Elec       q    Type
REMARK                         _______ _______ _______ _____ _____    ______ ____
ROOT
ATOM      1  C   UNL     1      35.180 -18.208 -24.077  0.00  0.00    +0.004 C 
ATOM      2  C   UNL     1      34.424 -19.374 -24.732  0.00  0.00    +0.000 C 
ENDROOT
BRANCH   1   3
ATOM      3  C   UNL     1      34.834 -16.904 -24.828  0.00  0.00    +0.000 C 
BRANCH   3   4
ATOM      4  C   UNL     1      34.853 -15.654 -23.939  0.00  0.00    +0.002 C 
BRANCH   4   5
ATOM      5  C   UNL     1      33.440 -15.078 -23.766  0.00  0.00    +0.027 C 
BRANCH   5   6
ATOM      6  C   UNL     1      33.210 -14.339 -22.433  0.00  0.00    +0.093 C 
ATOM      7  C   UNL     1      34.418 -14.425 -21.499  0.00  0.00    +0.030 C 
ATOM      8  C   UNL     1      32.868 -12.871 -22.712  0.00  0.00    +0.030 C 
BRANCH   6   9
ATOM      9  O   UNL     1      32.087 -14.933 -21.777  0.00  0.00    -0.356 OA
ATOM     10  C   UNL     1      32.500 -15.867 -20.794  0.00  0.00    +0.174 C 
ENDBRANCH   6   9
ENDBRANCH   5   6
ENDBRANCH   4   5
ENDBRANCH   3   4
ENDBRANCH   1   3
BRANCH   1  11
ATOM     11  C   UNL     1      34.860 -18.107 -22.570  0.00  0.00    +0.026 C 
BRANCH  11  12
ATOM     12  C   UNL     1      35.156 -19.376 -21.815  0.00  0.00    -0.026 C 
ATOM     13  C   UNL     1      34.499 -19.747 -20.704  0.00  0.00    -0.009 C 
BRANCH  13  14
ATOM     14  C   UNL     1      34.727 -20.958 -19.913  0.00  0.00    -0.016 C 
ATOM     15  C   UNL     1      36.156 -21.367 -19.658  0.00  0.00    +0.031 C 
ATOM     16  C   UNL     1      33.653 -21.651 -19.487  0.00  0.00    +0.077 C 
BRANCH  16  18
ATOM     17  O   UNL     1      33.671 -22.862 -17.438  0.00  0.00    -0.245 OA
ATOM     18  C   UNL     1      33.699 -22.870 -18.659  0.00  0.00    +0.338 C 
BRANCH  18  19
ATOM     19  O   UNL     1      33.873 -23.972 -19.422  0.00  0.00    -0.477 OA
ATOM     20  H   UNL     1      34.077 -23.884 -20.333  0.00  0.00    +0.295 HD
ENDBRANCH  18  19
ENDBRANCH  16  18
ENDBRANCH  13  14
ENDBRANCH  11  12
ENDBRANCH   1  11
TORSDOF 10
ENDMDL
MODEL 5
REMARK VINA RESULT:      -7.7      2.071      8.805
REMARK  Name = 5288795
REMARK  10 active torsions:
REMARK  status: ('A' for Active; 'I' for Inactive)
REMARK    1  A    between atoms: C_1  and  C_3
REMARK    2  A    between atoms: C_1  and  C_11
REMARK    3  A    between atoms: C_3  and  C_4
REMARK    4  A    between atoms: C_4  and  C_5
REMARK    5  A    between atoms: C_5  and  C_6
REMARK    6  A    between atoms: C_6  and  O_9
REMARK    7  A    between atoms: C_11  and  C_12
REMARK    8  A    between atoms: C_13  and  C_14
REMARK    9  A    between atoms: C_16  and  C_18
REMARK   10  A    between atoms: C_18  and  O_19
REMARK                            x       y       z     vdW  Elec       q    Type
REMARK                         _______ _______ _______ _____ _____    ______ ____
ROOT
ATOM      1  C   UNL     1      34.262 -22.145 -19.384  0.00  0.00    +0.004 C 
ATOM      2  C   UNL     1      35.682 -21.670 -19.041  0.00  0.00    +0.000 C 
ENDROOT
BRANCH   1   3
ATOM      3  C   UNL     1      33.771 -23.097 -18.271  0.00  0.00    +0.000 C 
BRANCH   3   4
ATOM      4  C   UNL     1      32.486 -22.627 -17.577  0.00  0.00    +0.002 C 
BRANCH   4   5
ATOM      5  C   UNL     1      32.141 -23.531 -16.385  0.00  0.00    +0.027 C 
BRANCH   5   6
ATOM      6  C   UNL     1      30.673 -23.447 -15.922  0.00  0.00    +0.093 C 
ATOM      7  C   UNL     1      30.019 -24.824 -15.795  0.00  0.00    +0.030 C 
ATOM      8  C   UNL     1      30.599 -22.706 -14.582  0.00  0.00    +0.030 C 
BRANCH   6   9
ATOM      9  O   UNL     1      29.941 -22.684 -16.885  0.00  0.00    -0.356 OA
ATOM     10  C   UNL     1      28.552 -22.693 -16.599  0.00  0.00    +0.174 C 
ENDBRANCH   6   9
ENDBRANCH   5   6
ENDBRANCH   4   5
ENDBRANCH   3   4
ENDBRANCH   1   3
BRANCH   1  11
ATOM     11  C   UNL     1      33.303 -20.951 -19.584  0.00  0.00    +0.026 C 
BRANCH  11  12
ATOM     12  C   UNL     1      33.507 -20.241 -20.896  0.00  0.00    -0.026 C 
ATOM     13  C   UNL     1      34.210 -19.103 -21.021  0.00  0.00    -0.009 C 
BRANCH  13  14
ATOM     14  C   UNL     1      34.451 -18.352 -22.255  0.00  0.00    -0.016 C 
ATOM     15  C   UNL     1      34.842 -19.133 -23.484  0.00  0.00    +0.031 C 
ATOM     16  C   UNL     1      34.340 -17.009 -22.214  0.00  0.00    +0.077 C 
BRANCH  16  18
ATOM     17  O   UNL     1      33.595 -15.549 -23.940  0.00  0.00    -0.245 OA
ATOM     18  C   UNL     1      34.518 -16.104 -23.364  0.00  0.00    +0.338 C 
BRANCH  18  19
ATOM     19  O   UNL     1      35.813 -16.053 -23.748  0.00  0.00    -0.477 OA
ATOM     20  H   UNL     1      36.493 -16.223 -23.126  0.00  0.00    +0.295 HD
ENDBRANCH  18  19
ENDBRANCH  16  18
ENDBRANCH  13  14
ENDBRANCH  11  12
ENDBRANCH   1  11
TORSDOF 10
ENDMDL
MODEL 6
REMARK VINA RESULT:      -7.6      0.787      1.411
REMARK  Name = 5288795
REMARK  10 active torsions:
REMARK  status: ('A' for Active; 'I' for Inactive)
REMARK    1  A    between atoms: C_1  and  C_3
REMARK    2  A    between atoms: C_1  and  C_11
REMARK    3  A    between atoms: C_3  and  C_4
REMARK    4  A    between atoms: C_4  and  C_5
REMARK    5  A    between atoms: C_5  and  C_6
REMARK    6  A    between atoms: C_6  and  O_9
REMARK    7  A    between atoms: C_11  and  C_12
REMARK    8  A    between atoms: C_13  and  C_14
REMARK    9  A    between atoms: C_16  and  C_18
REMARK   10  A    between atoms: C_18  and  O_19
REMARK                            x       y       z     vdW  Elec       q    Type
REMARK                         _______ _______ _______ _____ _____    ______ ____
ROOT
ATOM      1  C   UNL     1      34.397 -21.412 -19.323  0.00  0.00    +0.004 C 
ATOM      2  C   UNL     1      35.790 -21.295 -19.960  0.00  0.00    +0.000 C 
ENDROOT
BRANCH   1   3
ATOM      3  C   UNL     1      33.390 -20.606 -20.173  0.00  0.00    +0.000 C 
BRANCH   3   4
ATOM      4  C   UNL     1      34.039 -19.814 -21.315  0.00  0.00    +0.002 C 
BRANCH   4   5
ATOM      5  C   UNL     1      33.594 -18.345 -21.290  0.00  0.00    +0.027 C 
BRANCH   5   6
ATOM      6  C   UNL     1      34.664 -17.344 -21.769  0.00  0.00    +0.093 C 
ATOM      7  C   UNL     1      34.839 -16.167 -20.806  0.00  0.00    +0.030 C 
ATOM      8  C   UNL     1      36.001 -18.071 -21.954  0.00  0.00    +0.030 C 
BRANCH   6   9
ATOM      9  O   UNL     1      34.264 -16.831 -23.042  0.00  0.00    -0.356 OA
ATOM     10  C   UNL     1      34.918 -17.514 -24.099  0.00  0.00    +0.174 C 
ENDBRANCH   6   9
ENDBRANCH   5   6
ENDBRANCH   4   5
ENDBRANCH   3   4
ENDBRANCH   1   3
BRANCH   1  11
ATOM     11  C   UNL     1      33.970 -22.887 -19.170  0.00  0.00    +0.026 C 
BRANCH  11  12
ATOM     12  C   UNL     1      33.517 -23.232 -17.776  0.00  0.00    -0.026 C 
ATOM     13  C   UNL     1      32.309 -22.907 -17.288  0.00  0.00    -0.009 C 
BRANCH  13  14
ATOM     14  C   UNL     1      31.796 -23.201 -15.948  0.00  0.00    -0.016 C 
ATOM     15  C   UNL     1      30.326 -22.976 -15.698  0.00  0.00    +0.031 C 
ATOM     16  C   UNL     1      32.668 -23.623 -15.011  0.00  0.00    +0.077 C 
BRANCH  16  18
ATOM     17  O   UNL     1      31.910 -25.094 -13.300  0.00  0.00    -0.245 OA
ATOM     18  C   UNL     1      32.320 -23.990 -13.627  0.00  0.00    +0.338 C 
BRANCH  18  19
ATOM     19  O   UNL     1      32.421 -22.926 -12.800  0.00  0.00    -0.477 OA
ATOM     20  H   UNL     1      31.778 -22.790 -12.132  0.00  0.00    +0.295 HD
ENDBRANCH  18  19
ENDBRANCH  16  18
ENDBRANCH  13  14
ENDBRANCH  11  12
ENDBRANCH   1  11
TORSDOF 10
ENDMDL
MODEL 7
REMARK VINA RESULT:      -7.6      3.813      8.670
REMARK  Name = 5288795
REMARK  10 active torsions:
REMARK  status: ('A' for Active; 'I' for Inactive)
REMARK    1  A    between atoms: C_1  and  C_3
REMARK    2  A    between atoms: C_1  and  C_11
REMARK    3  A    between atoms: C_3  and  C_4
REMARK    4  A    between atoms: C_4  and  C_5
REMARK    5  A    between atoms: C_5  and  C_6
REMARK    6  A    between atoms: C_6  and  O_9
REMARK    7  A    between atoms: C_11  and  C_12
REMARK    8  A    between atoms: C_13  and  C_14
REMARK    9  A    between atoms: C_16  and  C_18
REMARK   10  A    between atoms: C_18  and  O_19
REMARK                            x       y       z     vdW  Elec       q    Type
REMARK                         _______ _______ _______ _____ _____    ______ ____
ROOT
ATOM      1  C   UNL     1      34.230 -23.104 -15.987  0.00  0.00    +0.004 C 
ATOM      2  C   UNL     1      33.750 -24.049 -14.876  0.00  0.00    +0.000 C 
ENDROOT
BRANCH   1   3
ATOM      3  C   UNL     1      35.771 -23.014 -15.934  0.00  0.00    +0.000 C 
BRANCH   3   4
ATOM      4  C   UNL     1      36.383 -23.618 -14.664  0.00  0.00    +0.002 C 
BRANCH   4   5
ATOM      5  C   UNL     1      37.720 -24.309 -14.970  0.00  0.00    +0.027 C 
BRANCH   5   6
ATOM      6  C   UNL     1      37.791 -25.786 -14.532  0.00  0.00    +0.093 C 
ATOM      7  C   UNL     1      37.712 -25.951 -13.013  0.00  0.00    +0.030 C 
ATOM      8  C   UNL     1      36.662 -26.576 -15.204  0.00  0.00    +0.030 C 
BRANCH   6   9
ATOM      9  O   UNL     1      39.034 -26.329 -14.983  0.00  0.00    -0.356 OA
ATOM     10  C   UNL     1      40.091 -25.398 -14.824  0.00  0.00    +0.174 C 
ENDBRANCH   6   9
ENDBRANCH   5   6
ENDBRANCH   4   5
ENDBRANCH   3   4
ENDBRANCH   1   3
BRANCH   1  11
ATOM     11  C   UNL     1      33.728 -23.564 -17.372  0.00  0.00    +0.026 C 
BRANCH  11  12
ATOM     12  C   UNL     1      33.461 -22.420 -18.315  0.00  0.00    -0.026 C 
ATOM     13  C   UNL     1      34.407 -21.859 -19.085  0.00  0.00    -0.009 C 
BRANCH  13  14
ATOM     14  C   UNL     1      34.231 -20.746 -20.021  0.00  0.00    -0.016 C 
ATOM     15  C   UNL     1      32.820 -20.334 -20.359  0.00  0.00    +0.031 C 
ATOM     16  C   UNL     1      35.333 -20.178 -20.549  0.00  0.00    +0.077 C 
BRANCH  16  18
ATOM     17  O   UNL     1      35.259 -19.148 -22.693  0.00  0.00    -0.245 OA
ATOM     18  C   UNL     1      35.340 -19.035 -21.480  0.00  0.00    +0.338 C 
BRANCH  18  19
ATOM     19  O   UNL     1      35.545 -17.872 -20.823  0.00  0.00    -0.477 OA
ATOM     20  H   UNL     1      36.143 -17.238 -21.168  0.00  0.00    +0.295 HD
ENDBRANCH  18  19
ENDBRANCH  16  18
ENDBRANCH  13  14
ENDBRANCH  11  12
ENDBRANCH   1  11
TORSDOF 10
ENDMDL
MODEL 8
REMARK VINA RESULT:      -7.5      3.212      5.683
REMARK  Name = 5288795
REMARK  10 active torsions:
REMARK  status: ('A' for Active; 'I' for Inactive)
REMARK    1  A    between atoms: C_1  and  C_3
REMARK    2  A    between atoms: C_1  and  C_11
REMARK    3  A    between atoms: C_3  and  C_4
REMARK    4  A    between atoms: C_4  and  C_5
REMARK    5  A    between atoms: C_5  and  C_6
REMARK    6  A    between atoms: C_6  and  O_9
REMARK    7  A    between atoms: C_11  and  C_12
REMARK    8  A    between atoms: C_13  and  C_14
REMARK    9  A    between atoms: C_16  and  C_18
REMARK   10  A    between atoms: C_18  and  O_19
REMARK                            x       y       z     vdW  Elec       q    Type
REMARK                         _______ _______ _______ _____ _____    ______ ____
ROOT
ATOM      1  C   UNL     1      35.133 -16.820 -23.171  0.00  0.00    +0.004 C 
ATOM      2  C   UNL     1      34.765 -17.199 -24.613  0.00  0.00    +0.000 C 
ENDROOT
BRANCH   1   3
ATOM      3  C   UNL     1      33.849 -16.399 -22.423  0.00  0.00    +0.000 C 
BRANCH   3   4
ATOM      4  C   UNL     1      33.909 -14.982 -21.840  0.00  0.00    +0.002 C 
BRANCH   4   5
ATOM      5  C   UNL     1      34.349 -13.966 -22.903  0.00  0.00    +0.027 C 
BRANCH   5   6
ATOM      6  C   UNL     1      33.194 -13.177 -23.551  0.00  0.00    +0.093 C 
ATOM      7  C   UNL     1      32.156 -12.711 -22.528  0.00  0.00    +0.030 C 
ATOM      8  C   UNL     1      33.758 -11.971 -24.310  0.00  0.00    +0.030 C 
BRANCH   6   9
ATOM      9  O   UNL     1      32.545 -14.027 -24.500  0.00  0.00    -0.356 OA
ATOM     10  C   UNL     1      33.137 -13.913 -25.783  0.00  0.00    +0.174 C 
ENDBRANCH   6   9
ENDBRANCH   5   6
ENDBRANCH   4   5
ENDBRANCH   3   4
ENDBRANCH   1   3
BRANCH   1  11
ATOM     11  C   UNL     1      35.864 -17.976 -22.455  0.00  0.00    +0.026 C 
BRANCH  11  12
ATOM     12  C   UNL     1      34.940 -18.855 -21.654  0.00  0.00    -0.026 C 
ATOM     13  C   UNL     1      35.363 -19.889 -20.908  0.00  0.00    -0.009 C 
BRANCH  13  14
ATOM     14  C   UNL     1      34.533 -20.790 -20.107  0.00  0.00    -0.016 C 
ATOM     15  C   UNL     1      33.052 -20.511 -20.050  0.00  0.00    +0.031 C 
ATOM     16  C   UNL     1      35.141 -21.795 -19.444  0.00  0.00    +0.077 C 
BRANCH  16  18
ATOM     17  O   UNL     1      34.506 -22.833 -17.399  0.00  0.00    -0.245 OA
ATOM     18  C   UNL     1      34.458 -22.807 -18.619  0.00  0.00    +0.338 C 
BRANCH  18  19
ATOM     19  O   UNL     1      33.863 -23.745 -19.390  0.00  0.00    -0.477 OA
ATOM     20  H   UNL     1      33.074 -23.540 -19.852  0.00  0.00    +0.295 HD
ENDBRANCH  18  19
ENDBRANCH  16  18
ENDBRANCH  13  14
ENDBRANCH  11  12
ENDBRANCH   1  11
TORSDOF 10
ENDMDL
MODEL 9
REMARK VINA RESULT:      -7.5      2.946      4.039
REMARK  Name = 5288795
REMARK  10 active torsions:
REMARK  status: ('A' for Active; 'I' for Inactive)
REMARK    1  A    between atoms: C_1  and  C_3
REMARK    2  A    between atoms: C_1  and  C_11
REMARK    3  A    between atoms: C_3  and  C_4
REMARK    4  A    between atoms: C_4  and  C_5
REMARK    5  A    between atoms: C_5  and  C_6
REMARK    6  A    between atoms: C_6  and  O_9
REMARK    7  A    between atoms: C_11  and  C_12
REMARK    8  A    between atoms: C_13  and  C_14
REMARK    9  A    between atoms: C_16  and  C_18
REMARK   10  A    between atoms: C_18  and  O_19
REMARK                            x       y       z     vdW  Elec       q    Type
REMARK                         _______ _______ _______ _____ _____    ______ ____
ROOT
ATOM      1  C   UNL     1      34.523 -20.304 -21.215  0.00  0.00    +0.004 C 
ATOM      2  C   UNL     1      33.274 -20.202 -20.326  0.00  0.00    +0.000 C 
ENDROOT
BRANCH   1   3
ATOM      3  C   UNL     1      34.600 -19.050 -22.112  0.00  0.00    +0.000 C 
BRANCH   3   4
ATOM      4  C   UNL     1      34.823 -17.746 -21.336  0.00  0.00    +0.002 C 
BRANCH   4   5
ATOM      5  C   UNL     1      34.615 -16.522 -22.241  0.00  0.00    +0.027 C 
BRANCH   5   6
ATOM      6  C   UNL     1      33.705 -15.432 -21.643  0.00  0.00    +0.093 C 
ATOM      7  C   UNL     1      32.481 -16.014 -20.933  0.00  0.00    +0.030 C 
ATOM      8  C   UNL     1      34.512 -14.567 -20.668  0.00  0.00    +0.030 C 
BRANCH   6   9
ATOM      9  O   UNL     1      33.253 -14.589 -22.705  0.00  0.00    -0.356 OA
ATOM     10  C   UNL     1      33.579 -15.138 -23.971  0.00  0.00    +0.174 C 
ENDBRANCH   6   9
ENDBRANCH   5   6
ENDBRANCH   4   5
ENDBRANCH   3   4
ENDBRANCH   1   3
BRANCH   1  11
ATOM     11  C   UNL     1      35.801 -20.486 -20.369  0.00  0.00    +0.026 C 
BRANCH  11  12
ATOM     12  C   UNL     1      35.613 -21.420 -19.203  0.00  0.00    -0.026 C 
ATOM     13  C   UNL     1      36.450 -21.475 -18.155  0.00  0.00    -0.009 C 
BRANCH  13  14
ATOM     14  C   UNL     1      36.340 -22.353 -16.988  0.00  0.00    -0.016 C 
ATOM     15  C   UNL     1      34.967 -22.859 -16.621  0.00  0.00    +0.031 C 
ATOM     16  C   UNL     1      37.461 -22.633 -16.294  0.00  0.00    +0.077 C 
BRANCH  16  18
ATOM     17  O   UNL     1      37.638 -23.113 -13.970  0.00  0.00    -0.245 OA
ATOM     18  C   UNL     1      37.536 -23.518 -15.118  0.00  0.00    +0.338 C 
BRANCH  18  19
ATOM     19  O   UNL     1      37.576 -24.818 -15.486  0.00  0.00    -0.477 OA
ATOM     20  H   UNL     1      37.852 -25.470 -14.873  0.00  0.00    +0.295 HD
ENDBRANCH  18  19
ENDBRANCH  16  18
ENDBRANCH  13  14
ENDBRANCH  11  12
ENDBRANCH   1  11
TORSDOF 10
ENDMDL
