MODEL 1
REMARK VINA RESULT:     -10.3      0.000      0.000
REMARK  Name = 3058754
REMARK  6 active torsions:
REMARK  status: ('A' for Active; 'I' for Inactive)
REMARK    1  A    between atoms: N_1  and  C_15
REMARK    2  A    between atoms: C_3  and  C_7
REMARK    3  A    between atoms: C_5  and  C_29
REMARK    4  A    between atoms: C_12  and  O_13
REMARK    5  A    between atoms: C_18  and  S_21
REMARK    6  A    between atoms: S_21  and  N_24
REMARK                            x       y       z     vdW  Elec       q    Type
REMARK                         _______ _______ _______ _____ _____    ______ ____
ROOT
ATOM      1  N   UNL     1      34.217 -24.319 -14.748  0.00  0.00    -0.190 N 
ATOM      2  N   UNL     1      33.402 -24.759 -13.774  0.00  0.00    -0.173 NA
ATOM      3  C   UNL     1      33.579 -23.620 -15.731  0.00  0.00    +0.075 C 
ATOM      4  C   UNL     1      32.252 -23.603 -15.373  0.00  0.00    +0.039 C 
ATOM      5  C   UNL     1      32.202 -24.318 -14.161  0.00  0.00    +0.144 C 
ENDROOT
BRANCH   3   7
ATOM      6  F   UNL     1      37.289 -21.266 -17.720  0.00  0.00    -0.201 F 
ATOM      7  C   UNL     1      34.230 -23.046 -16.883  0.00  0.00    +0.018 C 
ATOM      8  C   UNL     1      35.469 -22.420 -16.745  0.00  0.00    +0.034 C 
ATOM      9  C   UNL     1      33.620 -23.116 -18.136  0.00  0.00    +0.005 C 
ATOM     10  C   UNL     1      36.097 -21.865 -17.859  0.00  0.00    +0.174 C 
ATOM     11  C   UNL     1      34.250 -22.562 -19.251  0.00  0.00    +0.039 C 
ATOM     12  C   UNL     1      35.489 -21.936 -19.112  0.00  0.00    +0.166 C 
BRANCH  12  13
ATOM     13  O   UNL     1      36.102 -21.397 -20.200  0.00  0.00    -0.469 OA
ATOM     14  C   UNL     1      35.685 -20.092 -20.601  0.00  0.00    +0.253 C 
ENDBRANCH  12  13
ENDBRANCH   3   7
BRANCH   1  15
ATOM     15  C   UNL     1      35.583 -24.600 -14.677  0.00  0.00    +0.074 C 
ATOM     16  C   UNL     1      36.434 -23.701 -14.046  0.00  0.00    +0.018 C 
ATOM     17  C   UNL     1      36.072 -25.773 -15.237  0.00  0.00    +0.018 C 
ATOM     18  C   UNL     1      38.300 -25.157 -14.535  0.00  0.00    +0.122 C 
ATOM     19  C   UNL     1      37.799 -23.980 -13.976  0.00  0.00    +0.021 C 
ATOM     20  C   UNL     1      37.436 -26.052 -15.165  0.00  0.00    +0.021 C 
BRANCH  18  21
ATOM     21  S   UNL     1      40.008 -25.507 -14.445  0.00  0.00    +0.057 S 
ATOM     22  O   UNL     1      40.705 -24.294 -14.039  0.00  0.00    -0.153 OA
ATOM     23  O   UNL     1      40.189 -26.735 -13.682  0.00  0.00    -0.153 OA
BRANCH  21  24
ATOM     24  N   UNL     1      40.362 -25.825 -16.086  0.00  0.00    -0.203 NA
ATOM     25  H   UNL     1      41.082 -25.179 -16.410  0.00  0.00    +0.144 HD
ATOM     26  H   UNL     1      39.518 -25.702 -16.646  0.00  0.00    +0.144 HD
ENDBRANCH  21  24
ENDBRANCH  18  21
ENDBRANCH   1  15
BRANCH   5  29
ATOM     27  F   UNL     1      29.987 -25.094 -14.088  0.00  0.00    -0.191 F 
ATOM     28  F   UNL     1      30.535 -23.472 -12.742  0.00  0.00    -0.191 F 
ATOM     29  C   UNL     1      31.017 -24.603 -13.336  0.00  0.00    +0.360 C 
ENDBRANCH   5  29
TORSDOF 6
ENDMDL
MODEL 2
REMARK VINA RESULT:     -10.0      0.900      1.289
REMARK  Name = 3058754
REMARK  6 active torsions:
REMARK  status: ('A' for Active; 'I' for Inactive)
REMARK    1  A    between atoms: N_1  and  C_15
REMARK    2  A    between atoms: C_3  and  C_7
REMARK    3  A    between atoms: C_5  and  C_29
REMARK    4  A    between atoms: C_12  and  O_13
REMARK    5  A    between atoms: C_18  and  S_21
REMARK    6  A    between atoms: S_21  and  N_24
REMARK                            x       y       z     vdW  Elec       q    Type
REMARK                         _______ _______ _______ _____ _____    ______ ____
ROOT
ATOM      1  N   UNL     1      34.223 -24.280 -14.693  0.00  0.00    -0.190 N 
ATOM      2  N   UNL     1      33.404 -24.733 -13.729  0.00  0.00    -0.173 NA
ATOM      3  C   UNL     1      33.589 -23.565 -15.668  0.00  0.00    +0.075 C 
ATOM      4  C   UNL     1      32.260 -23.552 -15.313  0.00  0.00    +0.039 C 
ATOM      5  C   UNL     1      32.206 -24.285 -14.113  0.00  0.00    +0.144 C 
ENDROOT
BRANCH   3   7
ATOM      6  F   UNL     1      33.525 -22.141 -20.275  0.00  0.00    -0.201 F 
ATOM      7  C   UNL     1      34.244 -22.974 -16.809  0.00  0.00    +0.018 C 
ATOM      8  C   UNL     1      33.557 -22.840 -18.015  0.00  0.00    +0.034 C 
ATOM      9  C   UNL     1      35.565 -22.537 -16.706  0.00  0.00    +0.005 C 
ATOM     10  C   UNL     1      34.191 -22.269 -19.118  0.00  0.00    +0.174 C 
ATOM     11  C   UNL     1      36.198 -21.964 -17.809  0.00  0.00    +0.039 C 
ATOM     12  C   UNL     1      35.511 -21.830 -19.016  0.00  0.00    +0.166 C 
BRANCH  12  13
ATOM     13  O   UNL     1      36.129 -21.271 -20.090  0.00  0.00    -0.469 OA
ATOM     14  C   UNL     1      35.677 -19.982 -20.503  0.00  0.00    +0.253 C 
ENDBRANCH  12  13
ENDBRANCH   3   7
BRANCH   1  15
ATOM     15  C   UNL     1      35.588 -24.564 -14.623  0.00  0.00    +0.074 C 
ATOM     16  C   UNL     1      36.438 -23.679 -13.970  0.00  0.00    +0.018 C 
ATOM     17  C   UNL     1      36.078 -25.725 -15.204  0.00  0.00    +0.018 C 
ATOM     18  C   UNL     1      38.304 -25.126 -14.481  0.00  0.00    +0.122 C 
ATOM     19  C   UNL     1      37.802 -23.961 -13.900  0.00  0.00    +0.021 C 
ATOM     20  C   UNL     1      37.442 -26.007 -15.133  0.00  0.00    +0.021 C 
BRANCH  18  21
ATOM     21  S   UNL     1      40.011 -25.480 -14.391  0.00  0.00    +0.057 S 
ATOM     22  O   UNL     1      40.715 -24.258 -14.030  0.00  0.00    -0.153 OA
ATOM     23  O   UNL     1      40.192 -26.684 -13.591  0.00  0.00    -0.153 OA
BRANCH  21  24
ATOM     24  N   UNL     1      40.353 -25.852 -16.023  0.00  0.00    -0.203 NA
ATOM     25  H   UNL     1      39.714 -25.340 -16.630  0.00  0.00    +0.144 HD
ATOM     26  H   UNL     1      40.236 -26.854 -16.175  0.00  0.00    +0.144 HD
ENDBRANCH  21  24
ENDBRANCH  18  21
ENDBRANCH   1  15
BRANCH   5  29
ATOM     27  F   UNL     1      29.995 -25.073 -14.055  0.00  0.00    -0.191 F 
ATOM     28  F   UNL     1      30.527 -23.455 -12.698  0.00  0.00    -0.191 F 
ATOM     29  C   UNL     1      31.018 -24.581 -13.295  0.00  0.00    +0.360 C 
ENDBRANCH   5  29
TORSDOF 6
ENDMDL
MODEL 3
REMARK VINA RESULT:      -9.7      4.334      6.287
REMARK  Name = 3058754
REMARK  6 active torsions:
REMARK  status: ('A' for Active; 'I' for Inactive)
REMARK    1  A    between atoms: N_1  and  C_15
REMARK    2  A    between atoms: C_3  and  C_7
REMARK    3  A    between atoms: C_5  and  C_29
REMARK    4  A    between atoms: C_12  and  O_13
REMARK    5  A    between atoms: C_18  and  S_21
REMARK    6  A    between atoms: S_21  and  N_24
REMARK                            x       y       z     vdW  Elec       q    Type
REMARK                         _______ _______ _______ _____ _____    ______ ____
ROOT
ATOM      1  N   UNL     1      33.596 -23.899 -14.093  0.00  0.00    -0.190 N 
ATOM      2  N   UNL     1      33.773 -24.354 -12.840  0.00  0.00    -0.173 NA
ATOM      3  C   UNL     1      34.760 -23.605 -14.744  0.00  0.00    +0.075 C 
ATOM      4  C   UNL     1      35.767 -23.888 -13.851  0.00  0.00    +0.039 C 
ATOM      5  C   UNL     1      35.100 -24.345 -12.698  0.00  0.00    +0.144 C 
ENDROOT
BRANCH   3   7
ATOM      6  F   UNL     1      37.117 -21.205 -18.199  0.00  0.00    -0.201 F 
ATOM      7  C   UNL     1      34.839 -23.103 -16.094  0.00  0.00    +0.018 C 
ATOM      8  C   UNL     1      35.960 -22.382 -16.505  0.00  0.00    +0.034 C 
ATOM      9  C   UNL     1      33.795 -23.339 -16.988  0.00  0.00    +0.005 C 
ATOM     10  C   UNL     1      36.036 -21.897 -17.810  0.00  0.00    +0.174 C 
ATOM     11  C   UNL     1      33.872 -22.854 -18.294  0.00  0.00    +0.039 C 
ATOM     12  C   UNL     1      34.994 -22.133 -18.705  0.00  0.00    +0.166 C 
BRANCH  12  13
ATOM     13  O   UNL     1      35.068 -21.662 -19.979  0.00  0.00    -0.469 OA
ATOM     14  C   UNL     1      34.315 -20.488 -20.283  0.00  0.00    +0.253 C 
ENDBRANCH  12  13
ENDBRANCH   3   7
BRANCH   1  15
ATOM     15  C   UNL     1      32.302 -23.772 -14.601  0.00  0.00    +0.074 C 
ATOM     16  C   UNL     1      31.692 -22.524 -14.613  0.00  0.00    +0.018 C 
ATOM     17  C   UNL     1      31.643 -24.892 -15.088  0.00  0.00    +0.018 C 
ATOM     18  C   UNL     1      29.728 -23.516 -15.612  0.00  0.00    +0.122 C 
ATOM     19  C   UNL     1      30.399 -22.395 -15.119  0.00  0.00    +0.021 C 
ATOM     20  C   UNL     1      30.351 -24.763 -15.595  0.00  0.00    +0.021 C 
BRANCH  18  21
ATOM     21  S   UNL     1      28.111 -23.355 -16.248  0.00  0.00    +0.057 S 
ATOM     22  O   UNL     1      27.863 -24.463 -17.160  0.00  0.00    -0.153 OA
ATOM     23  O   UNL     1      27.199 -23.113 -15.138  0.00  0.00    -0.153 OA
BRANCH  21  24
ATOM     24  N   UNL     1      28.260 -21.915 -17.156  0.00  0.00    -0.203 NA
ATOM     25  H   UNL     1      28.670 -22.128 -18.066  0.00  0.00    +0.144 HD
ATOM     26  H   UNL     1      28.862 -21.260 -16.658  0.00  0.00    +0.144 HD
ENDBRANCH  21  24
ENDBRANCH  18  21
ENDBRANCH   1  15
BRANCH   5  29
ATOM     27  F   UNL     1      35.299 -24.006 -10.383  0.00  0.00    -0.191 F 
ATOM     28  F   UNL     1      37.065 -24.687 -11.460  0.00  0.00    -0.191 F 
ATOM     29  C   UNL     1      35.703 -24.786 -11.429  0.00  0.00    +0.360 C 
ENDBRANCH   5  29
TORSDOF 6
ENDMDL
MODEL 4
REMARK VINA RESULT:      -9.6      1.679      2.062
REMARK  Name = 3058754
REMARK  6 active torsions:
REMARK  status: ('A' for Active; 'I' for Inactive)
REMARK    1  A    between atoms: N_1  and  C_15
REMARK    2  A    between atoms: C_3  and  C_7
REMARK    3  A    between atoms: C_5  and  C_29
REMARK    4  A    between atoms: C_12  and  O_13
REMARK    5  A    between atoms: C_18  and  S_21
REMARK    6  A    between atoms: S_21  and  N_24
REMARK                            x       y       z     vdW  Elec       q    Type
REMARK                         _______ _______ _______ _____ _____    ______ ____
ROOT
ATOM      1  N   UNL     1      33.251 -23.951 -15.263  0.00  0.00    -0.190 N 
ATOM      2  N   UNL     1      32.139 -24.367 -14.632  0.00  0.00    -0.173 NA
ATOM      3  C   UNL     1      33.011 -23.327 -16.453  0.00  0.00    +0.075 C 
ATOM      4  C   UNL     1      31.645 -23.338 -16.610  0.00  0.00    +0.039 C 
ATOM      5  C   UNL     1      31.161 -23.990 -15.459  0.00  0.00    +0.144 C 
ENDROOT
BRANCH   3   7
ATOM      6  F   UNL     1      37.473 -21.628 -17.130  0.00  0.00    -0.201 F 
ATOM      7  C   UNL     1      34.033 -22.791 -17.318  0.00  0.00    +0.018 C 
ATOM      8  C   UNL     1      35.284 -22.461 -16.799  0.00  0.00    +0.034 C 
ATOM      9  C   UNL     1      33.769 -22.602 -18.675  0.00  0.00    +0.005 C 
ATOM     10  C   UNL     1      36.272 -21.942 -17.636  0.00  0.00    +0.174 C 
ATOM     11  C   UNL     1      34.758 -22.084 -19.513  0.00  0.00    +0.039 C 
ATOM     12  C   UNL     1      36.010 -21.754 -18.992  0.00  0.00    +0.166 C 
BRANCH  12  13
ATOM     13  O   UNL     1      36.973 -21.251 -19.810  0.00  0.00    -0.469 OA
ATOM     14  C   UNL     1      36.757 -19.943 -20.340  0.00  0.00    +0.253 C 
ENDBRANCH  12  13
ENDBRANCH   3   7
BRANCH   1  15
ATOM     15  C   UNL     1      34.498 -24.179 -14.678  0.00  0.00    +0.074 C 
ATOM     16  C   UNL     1      35.279 -25.237 -15.125  0.00  0.00    +0.018 C 
ATOM     17  C   UNL     1      34.940 -23.345 -13.660  0.00  0.00    +0.018 C 
ATOM     18  C   UNL     1      36.979 -24.633 -13.517  0.00  0.00    +0.122 C 
ATOM     19  C   UNL     1      36.525 -25.466 -14.541  0.00  0.00    +0.021 C 
ATOM     20  C   UNL     1      36.186 -23.574 -13.077  0.00  0.00    +0.021 C 
BRANCH  18  21
ATOM     21  S   UNL     1      38.539 -24.919 -12.788  0.00  0.00    +0.057 S 
ATOM     22  O   UNL     1      38.467 -26.151 -12.015  0.00  0.00    -0.153 OA
ATOM     23  O   UNL     1      39.564 -24.766 -13.812  0.00  0.00    -0.153 OA
BRANCH  21  24
ATOM     24  N   UNL     1      38.642 -23.596 -11.710  0.00  0.00    -0.203 NA
ATOM     25  H   UNL     1      39.612 -23.464 -11.426  0.00  0.00    +0.144 HD
ATOM     26  H   UNL     1      38.069 -23.784 -10.887  0.00  0.00    +0.144 HD
ENDBRANCH  21  24
ENDBRANCH  18  21
ENDBRANCH   1  15
BRANCH   5  29
ATOM     27  F   UNL     1      29.067 -24.769 -16.180  0.00  0.00    -0.191 F 
ATOM     28  F   UNL     1      29.097 -23.140 -14.735  0.00  0.00    -0.191 F 
ATOM     29  C   UNL     1      29.759 -24.274 -15.112  0.00  0.00    +0.360 C 
ENDBRANCH   5  29
TORSDOF 6
ENDMDL
MODEL 5
REMARK VINA RESULT:      -9.3      3.041      5.867
REMARK  Name = 3058754
REMARK  6 active torsions:
REMARK  status: ('A' for Active; 'I' for Inactive)
REMARK    1  A    between atoms: N_1  and  C_15
REMARK    2  A    between atoms: C_3  and  C_7
REMARK    3  A    between atoms: C_5  and  C_29
REMARK    4  A    between atoms: C_12  and  O_13
REMARK    5  A    between atoms: C_18  and  S_21
REMARK    6  A    between atoms: S_21  and  N_24
REMARK                            x       y       z     vdW  Elec       q    Type
REMARK                         _______ _______ _______ _____ _____    ______ ____
ROOT
ATOM      1  N   UNL     1      35.056 -22.884 -16.998  0.00  0.00    -0.190 N 
ATOM      2  N   UNL     1      35.971 -22.463 -17.888  0.00  0.00    -0.173 NA
ATOM      3  C   UNL     1      33.766 -22.725 -17.414  0.00  0.00    +0.075 C 
ATOM      4  C   UNL     1      33.846 -22.157 -18.664  0.00  0.00    +0.039 C 
ATOM      5  C   UNL     1      35.226 -22.020 -18.904  0.00  0.00    +0.144 C 
ENDROOT
BRANCH   3   7
ATOM      6  F   UNL     1      28.994 -22.673 -16.719  0.00  0.00    -0.201 F 
ATOM      7  C   UNL     1      32.605 -23.098 -16.644  0.00  0.00    +0.018 C 
ATOM      8  C   UNL     1      31.335 -22.699 -17.059  0.00  0.00    +0.034 C 
ATOM      9  C   UNL     1      32.752 -23.858 -15.483  0.00  0.00    +0.005 C 
ATOM     10  C   UNL     1      30.212 -23.059 -16.313  0.00  0.00    +0.174 C 
ATOM     11  C   UNL     1      31.630 -24.220 -14.738  0.00  0.00    +0.039 C 
ATOM     12  C   UNL     1      30.359 -23.820 -15.154  0.00  0.00    +0.166 C 
BRANCH  12  13
ATOM     13  O   UNL     1      29.265 -24.174 -14.428  0.00  0.00    -0.469 OA
ATOM     14  C   UNL     1      28.786 -25.510 -14.583  0.00  0.00    +0.253 C 
ENDBRANCH  12  13
ENDBRANCH   3   7
BRANCH   1  15
ATOM     15  C   UNL     1      35.480 -23.424 -15.782  0.00  0.00    +0.074 C 
ATOM     16  C   UNL     1      35.663 -24.797 -15.671  0.00  0.00    +0.018 C 
ATOM     17  C   UNL     1      35.712 -22.583 -14.703  0.00  0.00    +0.018 C 
ATOM     18  C   UNL     1      36.322 -24.500 -13.365  0.00  0.00    +0.122 C 
ATOM     19  C   UNL     1      36.085 -25.337 -14.456  0.00  0.00    +0.021 C 
ATOM     20  C   UNL     1      36.136 -23.124 -13.489  0.00  0.00    +0.021 C 
BRANCH  18  21
ATOM     21  S   UNL     1      36.853 -25.177 -11.846  0.00  0.00    +0.057 S 
ATOM     22  O   UNL     1      37.083 -26.603 -12.033  0.00  0.00    -0.153 OA
ATOM     23  O   UNL     1      37.916 -24.336 -11.311  0.00  0.00    -0.153 OA
BRANCH  21  24
ATOM     24  N   UNL     1      35.453 -24.965 -10.888  0.00  0.00    -0.203 NA
ATOM     25  H   UNL     1      35.568 -24.144 -10.295  0.00  0.00    +0.144 HD
ATOM     26  H   UNL     1      35.313 -25.789 -10.304  0.00  0.00    +0.144 HD
ENDBRANCH  21  24
ENDBRANCH  18  21
ENDBRANCH   1  15
BRANCH   5  29
ATOM     27  F   UNL     1      37.239 -21.534 -20.011  0.00  0.00    -0.191 F 
ATOM     28  F   UNL     1      35.584 -20.142 -20.264  0.00  0.00    -0.191 F 
ATOM     29  C   UNL     1      35.878 -21.465 -20.102  0.00  0.00    +0.360 C 
ENDBRANCH   5  29
TORSDOF 6
ENDMDL
MODEL 6
REMARK VINA RESULT:      -9.3      2.677      5.467
REMARK  Name = 3058754
REMARK  6 active torsions:
REMARK  status: ('A' for Active; 'I' for Inactive)
REMARK    1  A    between atoms: N_1  and  C_15
REMARK    2  A    between atoms: C_3  and  C_7
REMARK    3  A    between atoms: C_5  and  C_29
REMARK    4  A    between atoms: C_12  and  O_13
REMARK    5  A    between atoms: C_18  and  S_21
REMARK    6  A    between atoms: S_21  and  N_24
REMARK                            x       y       z     vdW  Elec       q    Type
REMARK                         _______ _______ _______ _____ _____    ______ ____
ROOT
ATOM      1  N   UNL     1      33.206 -23.750 -15.642  0.00  0.00    -0.190 N 
ATOM      2  N   UNL     1      31.863 -23.802 -15.678  0.00  0.00    -0.173 NA
ATOM      3  C   UNL     1      33.755 -24.378 -14.561  0.00  0.00    +0.075 C 
ATOM      4  C   UNL     1      32.693 -24.874 -13.841  0.00  0.00    +0.039 C 
ATOM      5  C   UNL     1      31.556 -24.490 -14.576  0.00  0.00    +0.144 C 
ENDROOT
BRANCH   3   7
ATOM      6  F   UNL     1      37.710 -22.762 -12.324  0.00  0.00    -0.201 F 
ATOM      7  C   UNL     1      35.170 -24.463 -14.293  0.00  0.00    +0.018 C 
ATOM      8  C   UNL     1      35.770 -23.555 -13.422  0.00  0.00    +0.034 C 
ATOM      9  C   UNL     1      35.937 -25.453 -14.906  0.00  0.00    +0.005 C 
ATOM     10  C   UNL     1      37.138 -23.637 -13.164  0.00  0.00    +0.174 C 
ATOM     11  C   UNL     1      37.305 -25.537 -14.647  0.00  0.00    +0.039 C 
ATOM     12  C   UNL     1      37.906 -24.628 -13.775  0.00  0.00    +0.166 C 
BRANCH  12  13
ATOM     13  O   UNL     1      39.240 -24.711 -13.523  0.00  0.00    -0.469 OA
ATOM     14  C   UNL     1      40.020 -25.517 -14.405  0.00  0.00    +0.253 C 
ENDBRANCH  12  13
ENDBRANCH   3   7
BRANCH   1  15
ATOM     15  C   UNL     1      33.895 -23.092 -16.662  0.00  0.00    +0.074 C 
ATOM     16  C   UNL     1      33.254 -22.839 -17.868  0.00  0.00    +0.018 C 
ATOM     17  C   UNL     1      35.210 -22.697 -16.456  0.00  0.00    +0.018 C 
ATOM     18  C   UNL     1      35.264 -21.781 -18.691  0.00  0.00    +0.122 C 
ATOM     19  C   UNL     1      33.942 -22.182 -18.888  0.00  0.00    +0.021 C 
ATOM     20  C   UNL     1      35.897 -22.039 -17.476  0.00  0.00    +0.021 C 
BRANCH  18  21
ATOM     21  S   UNL     1      36.124 -20.956 -19.967  0.00  0.00    +0.057 S 
ATOM     22  O   UNL     1      36.916 -19.889 -19.371  0.00  0.00    -0.153 OA
ATOM     23  O   UNL     1      36.771 -21.953 -20.809  0.00  0.00    -0.153 OA
BRANCH  21  24
ATOM     24  N   UNL     1      34.828 -20.262 -20.837  0.00  0.00    -0.203 NA
ATOM     25  H   UNL     1      35.008 -20.343 -21.837  0.00  0.00    +0.144 HD
ATOM     26  H   UNL     1      34.740 -19.277 -20.586  0.00  0.00    +0.144 HD
ENDBRANCH  21  24
ENDBRANCH  18  21
ENDBRANCH   1  15
BRANCH   5  29
ATOM     27  F   UNL     1      29.761 -25.999 -14.693  0.00  0.00    -0.191 F 
ATOM     28  F   UNL     1      29.309 -23.876 -14.869  0.00  0.00    -0.191 F 
ATOM     29  C   UNL     1      30.145 -24.764 -14.254  0.00  0.00    +0.360 C 
ENDBRANCH   5  29
TORSDOF 6
ENDMDL
MODEL 7
REMARK VINA RESULT:      -8.7      3.752      6.265
REMARK  Name = 3058754
REMARK  6 active torsions:
REMARK  status: ('A' for Active; 'I' for Inactive)
REMARK    1  A    between atoms: N_1  and  C_15
REMARK    2  A    between atoms: C_3  and  C_7
REMARK    3  A    between atoms: C_5  and  C_29
REMARK    4  A    between atoms: C_12  and  O_13
REMARK    5  A    between atoms: C_18  and  S_21
REMARK    6  A    between atoms: S_21  and  N_24
REMARK                            x       y       z     vdW  Elec       q    Type
REMARK                         _______ _______ _______ _____ _____    ______ ____
ROOT
ATOM      1  N   UNL     1      35.394 -23.701 -14.423  0.00  0.00    -0.190 N 
ATOM      2  N   UNL     1      36.576 -23.932 -13.827  0.00  0.00    -0.173 NA
ATOM      3  C   UNL     1      34.315 -24.068 -13.672  0.00  0.00    +0.075 C 
ATOM      4  C   UNL     1      34.831 -24.577 -12.503  0.00  0.00    +0.039 C 
ATOM      5  C   UNL     1      36.226 -24.467 -12.655  0.00  0.00    +0.144 C 
ENDROOT
BRANCH   3   7
ATOM      6  F   UNL     1      30.092 -26.007 -14.965  0.00  0.00    -0.201 F 
ATOM      7  C   UNL     1      32.940 -23.924 -14.086  0.00  0.00    +0.018 C 
ATOM      8  C   UNL     1      32.163 -25.056 -14.332  0.00  0.00    +0.034 C 
ATOM      9  C   UNL     1      32.388 -22.652 -14.241  0.00  0.00    +0.005 C 
ATOM     10  C   UNL     1      30.835 -24.915 -14.732  0.00  0.00    +0.174 C 
ATOM     11  C   UNL     1      31.060 -22.511 -14.641  0.00  0.00    +0.039 C 
ATOM     12  C   UNL     1      30.282 -23.644 -14.886  0.00  0.00    +0.166 C 
BRANCH  12  13
ATOM     13  O   UNL     1      28.986 -23.506 -15.275  0.00  0.00    -0.469 OA
ATOM     14  C   UNL     1      28.743 -22.796 -16.489  0.00  0.00    +0.253 C 
ENDBRANCH  12  13
ENDBRANCH   3   7
BRANCH   1  15
ATOM     15  C   UNL     1      35.367 -23.131 -15.697  0.00  0.00    +0.074 C 
ATOM     16  C   UNL     1      36.443 -22.364 -16.126  0.00  0.00    +0.018 C 
ATOM     17  C   UNL     1      34.268 -23.340 -16.518  0.00  0.00    +0.018 C 
ATOM     18  C   UNL     1      35.317 -21.999 -18.232  0.00  0.00    +0.122 C 
ATOM     19  C   UNL     1      36.417 -21.795 -17.399  0.00  0.00    +0.021 C 
ATOM     20  C   UNL     1      34.243 -22.771 -17.792  0.00  0.00    +0.021 C 
BRANCH  18  21
ATOM     21  S   UNL     1      35.285 -21.288 -19.826  0.00  0.00    +0.057 S 
ATOM     22  O   UNL     1      35.755 -22.282 -20.782  0.00  0.00    -0.153 OA
ATOM     23  O   UNL     1      33.991 -20.650 -20.023  0.00  0.00    -0.153 OA
BRANCH  21  24
ATOM     24  N   UNL     1      36.476 -20.073 -19.664  0.00  0.00    -0.203 NA
ATOM     25  H   UNL     1      36.602 -19.850 -18.677  0.00  0.00    +0.144 HD
ATOM     26  H   UNL     1      36.177 -19.236 -20.166  0.00  0.00    +0.144 HD
ENDBRANCH  21  24
ENDBRANCH  18  21
ENDBRANCH   1  15
BRANCH   5  29
ATOM     27  F   UNL     1      38.270 -23.941 -11.626  0.00  0.00    -0.191 F 
ATOM     28  F   UNL     1      37.866 -26.037 -12.059  0.00  0.00    -0.191 F 
ATOM     29  C   UNL     1      37.267 -24.865 -11.693  0.00  0.00    +0.360 C 
ENDBRANCH   5  29
TORSDOF 6
ENDMDL
MODEL 8
REMARK VINA RESULT:      -8.7      2.676      5.523
REMARK  Name = 3058754
REMARK  6 active torsions:
REMARK  status: ('A' for Active; 'I' for Inactive)
REMARK    1  A    between atoms: N_1  and  C_15
REMARK    2  A    between atoms: C_3  and  C_7
REMARK    3  A    between atoms: C_5  and  C_29
REMARK    4  A    between atoms: C_12  and  O_13
REMARK    5  A    between atoms: C_18  and  S_21
REMARK    6  A    between atoms: S_21  and  N_24
REMARK                            x       y       z     vdW  Elec       q    Type
REMARK                         _______ _______ _______ _____ _____    ______ ____
ROOT
ATOM      1  N   UNL     1      33.406 -23.623 -15.465  0.00  0.00    -0.190 N 
ATOM      2  N   UNL     1      32.112 -23.324 -15.266  0.00  0.00    -0.173 NA
ATOM      3  C   UNL     1      33.907 -24.532 -14.578  0.00  0.00    +0.075 C 
ATOM      4  C   UNL     1      32.863 -24.847 -13.740  0.00  0.00    +0.039 C 
ATOM      5  C   UNL     1      31.785 -24.075 -14.212  0.00  0.00    +0.144 C 
ENDROOT
BRANCH   3   7
ATOM      6  F   UNL     1      37.267 -27.608 -16.162  0.00  0.00    -0.201 F 
ATOM      7  C   UNL     1      35.266 -25.017 -14.580  0.00  0.00    +0.018 C 
ATOM      8  C   UNL     1      35.620 -26.099 -15.384  0.00  0.00    +0.034 C 
ATOM      9  C   UNL     1      36.226 -24.402 -13.776  0.00  0.00    +0.005 C 
ATOM     10  C   UNL     1      36.933 -26.567 -15.385  0.00  0.00    +0.174 C 
ATOM     11  C   UNL     1      37.541 -24.869 -13.778  0.00  0.00    +0.039 C 
ATOM     12  C   UNL     1      37.894 -25.952 -14.583  0.00  0.00    +0.166 C 
BRANCH  12  13
ATOM     13  O   UNL     1      39.176 -26.406 -14.585  0.00  0.00    -0.469 OA
ATOM     14  C   UNL     1      40.164 -25.566 -13.988  0.00  0.00    +0.253 C 
ENDBRANCH  12  13
ENDBRANCH   3   7
BRANCH   1  15
ATOM     15  C   UNL     1      34.100 -23.011 -16.511  0.00  0.00    +0.074 C 
ATOM     16  C   UNL     1      33.478 -22.854 -17.744  0.00  0.00    +0.018 C 
ATOM     17  C   UNL     1      35.398 -22.567 -16.305  0.00  0.00    +0.018 C 
ATOM     18  C   UNL     1      35.476 -21.792 -18.592  0.00  0.00    +0.122 C 
ATOM     19  C   UNL     1      34.170 -22.242 -18.789  0.00  0.00    +0.021 C 
ATOM     20  C   UNL     1      36.089 -21.955 -17.351  0.00  0.00    +0.021 C 
BRANCH  18  21
ATOM     21  S   UNL     1      36.341 -21.025 -19.900  0.00  0.00    +0.057 S 
ATOM     22  O   UNL     1      37.050 -19.870 -19.367  0.00  0.00    -0.153 OA
ATOM     23  O   UNL     1      37.074 -22.048 -20.633  0.00  0.00    -0.153 OA
BRANCH  21  24
ATOM     24  N   UNL     1      35.046 -20.478 -20.871  0.00  0.00    -0.203 NA
ATOM     25  H   UNL     1      34.889 -19.485 -20.701  0.00  0.00    +0.144 HD
ATOM     26  H   UNL     1      34.201 -21.001 -20.636  0.00  0.00    +0.144 HD
ENDBRANCH  21  24
ENDBRANCH  18  21
ENDBRANCH   1  15
BRANCH   5  29
ATOM     27  F   UNL     1      30.369 -24.439 -12.375  0.00  0.00    -0.191 F 
ATOM     28  F   UNL     1      29.579 -24.864 -14.359  0.00  0.00    -0.191 F 
ATOM     29  C   UNL     1      30.414 -24.027 -13.676  0.00  0.00    +0.360 C 
ENDBRANCH   5  29
TORSDOF 6
ENDMDL
MODEL 9
REMARK VINA RESULT:      -8.6      9.770     12.455
REMARK  Name = 3058754
REMARK  6 active torsions:
REMARK  status: ('A' for Active; 'I' for Inactive)
REMARK    1  A    between atoms: N_1  and  C_15
REMARK    2  A    between atoms: C_3  and  C_7
REMARK    3  A    between atoms: C_5  and  C_29
REMARK    4  A    between atoms: C_12  and  O_13
REMARK    5  A    between atoms: C_18  and  S_21
REMARK    6  A    between atoms: S_21  and  N_24
REMARK                            x       y       z     vdW  Elec       q    Type
REMARK                         _______ _______ _______ _____ _____    ______ ____
ROOT
ATOM      1  N   UNL     1      32.476 -13.187 -21.143  0.00  0.00    -0.190 N 
ATOM      2  N   UNL     1      32.007 -12.717 -19.975  0.00  0.00    -0.173 NA
ATOM      3  C   UNL     1      32.337 -12.318 -22.186  0.00  0.00    +0.075 C 
ATOM      4  C   UNL     1      31.733 -11.200 -21.659  0.00  0.00    +0.039 C 
ATOM      5  C   UNL     1      31.555 -11.502 -20.296  0.00  0.00    +0.144 C 
ENDROOT
BRANCH   3   7
ATOM      6  F   UNL     1      32.510 -15.218 -26.035  0.00  0.00    -0.201 F 
ATOM      7  C   UNL     1      32.759 -12.586 -23.539  0.00  0.00    +0.018 C 
ATOM      8  C   UNL     1      32.425 -13.795 -24.148  0.00  0.00    +0.034 C 
ATOM      9  C   UNL     1      33.502 -11.634 -24.239  0.00  0.00    +0.005 C 
ATOM     10  C   UNL     1      32.835 -14.054 -25.455  0.00  0.00    +0.174 C 
ATOM     11  C   UNL     1      33.910 -11.892 -25.548  0.00  0.00    +0.039 C 
ATOM     12  C   UNL     1      33.576 -13.103 -26.156  0.00  0.00    +0.166 C 
BRANCH  12  13
ATOM     13  O   UNL     1      33.973 -13.353 -27.432  0.00  0.00    -0.469 OA
ATOM     14  C   UNL     1      35.159 -12.699 -27.884  0.00  0.00    +0.253 C 
ENDBRANCH  12  13
ENDBRANCH   3   7
BRANCH   1  15
ATOM     15  C   UNL     1      33.038 -14.464 -21.192  0.00  0.00    +0.074 C 
ATOM     16  C   UNL     1      32.245 -15.572 -20.924  0.00  0.00    +0.018 C 
ATOM     17  C   UNL     1      34.382 -14.609 -21.510  0.00  0.00    +0.018 C 
ATOM     18  C   UNL     1      34.156 -17.005 -21.291  0.00  0.00    +0.122 C 
ATOM     19  C   UNL     1      32.806 -16.848 -20.972  0.00  0.00    +0.021 C 
ATOM     20  C   UNL     1      34.942 -15.885 -21.559  0.00  0.00    +0.021 C 
BRANCH  18  21
ATOM     21  S   UNL     1      34.857 -18.602 -21.354  0.00  0.00    +0.057 S 
ATOM     22  O   UNL     1      36.053 -18.611 -20.522  0.00  0.00    -0.153 OA
ATOM     23  O   UNL     1      33.804 -19.580 -21.118  0.00  0.00    -0.153 OA
BRANCH  21  24
ATOM     24  N   UNL     1      35.327 -18.687 -22.994  0.00  0.00    -0.203 NA
ATOM     25  H   UNL     1      36.264 -19.083 -23.060  0.00  0.00    +0.144 HD
ATOM     26  H   UNL     1      35.325 -17.750 -23.397  0.00  0.00    +0.144 HD
ENDBRANCH  21  24
ENDBRANCH  18  21
ENDBRANCH   1  15
BRANCH   5  29
ATOM     27  F   UNL     1      31.389  -9.358 -19.355  0.00  0.00    -0.191 F 
ATOM     28  F   UNL     1      31.296 -11.064 -18.005  0.00  0.00    -0.191 F 
ATOM     29  C   UNL     1      30.952 -10.648 -19.259  0.00  0.00    +0.360 C 
ENDBRANCH   5  29
TORSDOF 6
ENDMDL
