MODEL 1
REMARK VINA RESULT:     -11.3      0.000      0.000
REMARK  Name = 449087
REMARK  3 active torsions:
REMARK  status: ('A' for Active; 'I' for Inactive)
REMARK    1  A    between atoms: C_5  and  C_11
REMARK    2  A    between atoms: C_8  and  C_14
REMARK    3  A    between atoms: C_14  and  C_15
REMARK                            x       y       z     vdW  Elec       q    Type
REMARK                         _______ _______ _______ _____ _____    ______ ____
ROOT
ATOM      1  O   UNL     1      34.905 -15.832 -20.376  0.00  0.00    -0.274 OA
ATOM      2  N   UNL     1      31.683 -12.790 -22.427  0.00  0.00    -0.239 N 
ATOM      3  N   UNL     1      32.260 -13.801 -23.097  0.00  0.00    -0.166 NA
ATOM      4  N   UNL     1      33.847 -15.460 -22.441  0.00  0.00    -0.268 N 
ATOM      5  C   UNL     1      32.082 -12.692 -21.126  0.00  0.00    +0.045 C 
ATOM      6  C   UNL     1      32.980 -13.712 -20.931  0.00  0.00    +0.048 C 
ATOM      7  C   UNL     1      33.041 -14.346 -22.175  0.00  0.00    +0.152 C 
ATOM      8  C   UNL     1      34.700 -16.110 -21.553  0.00  0.00    +0.232 C 
ATOM      9  H   UNL     1      31.034 -12.175 -22.837  0.00  0.00    +0.174 HD
ATOM     10  H   UNL     1      33.806 -15.823 -23.355  0.00  0.00    +0.156 HD
ENDROOT
BRANCH   5  11
ATOM     11  C   UNL     1      31.617 -11.662 -20.106  0.00  0.00    +0.037 C 
ATOM     12  C   UNL     1      31.845 -10.197 -20.383  0.00  0.00    +0.006 C 
ATOM     13  C   UNL     1      30.456 -10.762 -20.445  0.00  0.00    +0.006 C 
ENDBRANCH   5  11
BRANCH   8  14
ATOM     14  C   UNL     1      35.399 -17.284 -22.234  0.00  0.00    +0.112 C 
BRANCH  14  15
ATOM     15  C   UNL     1      35.445 -18.525 -21.407  0.00  0.00    -0.013 C 
ATOM     16  C   UNL     1      34.286 -20.306 -20.223  0.00  0.00    -0.000 C 
ATOM     17  C   UNL     1      34.259 -19.137 -21.002  0.00  0.00    -0.004 C 
ATOM     18  C   UNL     1      35.532 -20.861 -19.851  0.00  0.00    -0.000 C 
ATOM     19  C   UNL     1      36.672 -19.071 -21.040  0.00  0.00    -0.004 C 
ATOM     20  C   UNL     1      36.716 -20.231 -20.267  0.00  0.00    -0.000 C 
ATOM     21  C   UNL     1      33.101 -20.935 -19.806  0.00  0.00    -0.000 C 
ATOM     22  C   UNL     1      35.559 -22.030 -19.072  0.00  0.00    -0.000 C 
ATOM     23  C   UNL     1      33.146 -22.095 -19.033  0.00  0.00    -0.000 C 
ATOM     24  C   UNL     1      34.372 -22.642 -18.666  0.00  0.00    -0.000 C 
ENDBRANCH  14  15
ENDBRANCH   8  14
TORSDOF 3
ENDMDL
MODEL 2
REMARK VINA RESULT:     -10.8      3.042      8.170
REMARK  Name = 449087
REMARK  3 active torsions:
REMARK  status: ('A' for Active; 'I' for Inactive)
REMARK    1  A    between atoms: C_5  and  C_11
REMARK    2  A    between atoms: C_8  and  C_14
REMARK    3  A    between atoms: C_14  and  C_15
REMARK                            x       y       z     vdW  Elec       q    Type
REMARK                         _______ _______ _______ _____ _____    ______ ____
ROOT
ATOM      1  O   UNL     1      34.044 -19.615 -22.000  0.00  0.00    -0.274 OA
ATOM      2  N   UNL     1      35.940 -21.937 -18.146  0.00  0.00    -0.239 N 
ATOM      3  N   UNL     1      36.597 -20.972 -18.812  0.00  0.00    -0.166 NA
ATOM      4  N   UNL     1      36.002 -19.640 -20.702  0.00  0.00    -0.268 N 
ATOM      5  C   UNL     1      34.700 -22.206 -18.647  0.00  0.00    +0.045 C 
ATOM      6  C   UNL     1      34.533 -21.358 -19.714  0.00  0.00    +0.048 C 
ATOM      7  C   UNL     1      35.729 -20.635 -19.756  0.00  0.00    +0.152 C 
ATOM      8  C   UNL     1      35.168 -19.208 -21.731  0.00  0.00    +0.232 C 
ATOM      9  H   UNL     1      36.319 -22.407 -17.369  0.00  0.00    +0.174 HD
ATOM     10  H   UNL     1      36.879 -19.197 -20.632  0.00  0.00    +0.156 HD
ENDROOT
BRANCH   5  11
ATOM     11  C   UNL     1      33.710 -23.237 -18.123  0.00  0.00    +0.037 C 
ATOM     12  C   UNL     1      33.579 -23.440 -16.633  0.00  0.00    +0.006 C 
ATOM     13  C   UNL     1      32.475 -22.767 -17.396  0.00  0.00    +0.006 C 
ENDBRANCH   5  11
BRANCH   8  14
ATOM     14  C   UNL     1      35.838 -18.101 -22.542  0.00  0.00    +0.112 C 
BRANCH  14  15
ATOM     15  C   UNL     1      35.011 -16.866 -22.680  0.00  0.00    -0.013 C 
ATOM     16  C   UNL     1      33.641 -15.131 -21.666  0.00  0.00    -0.000 C 
ATOM     17  C   UNL     1      34.422 -16.293 -21.553  0.00  0.00    -0.004 C 
ATOM     18  C   UNL     1      33.457 -14.542 -22.940  0.00  0.00    -0.000 C 
ATOM     19  C   UNL     1      34.830 -16.287 -23.932  0.00  0.00    -0.004 C 
ATOM     20  C   UNL     1      34.058 -15.133 -24.063  0.00  0.00    -0.000 C 
ATOM     21  C   UNL     1      33.040 -14.540 -20.543  0.00  0.00    -0.000 C 
ATOM     22  C   UNL     1      32.676 -13.380 -23.053  0.00  0.00    -0.000 C 
ATOM     23  C   UNL     1      32.267 -13.386 -20.674  0.00  0.00    -0.000 C 
ATOM     24  C   UNL     1      32.085 -12.807 -21.926  0.00  0.00    -0.000 C 
ENDBRANCH  14  15
ENDBRANCH   8  14
TORSDOF 3
ENDMDL
MODEL 3
REMARK VINA RESULT:     -10.8      4.146      8.370
REMARK  Name = 449087
REMARK  3 active torsions:
REMARK  status: ('A' for Active; 'I' for Inactive)
REMARK    1  A    between atoms: C_5  and  C_11
REMARK    2  A    between atoms: C_8  and  C_14
REMARK    3  A    between atoms: C_14  and  C_15
REMARK                            x       y       z     vdW  Elec       q    Type
REMARK                         _______ _______ _______ _____ _____    ______ ____
ROOT
ATOM      1  O   UNL     1      33.452 -20.810 -20.232  0.00  0.00    -0.274 OA
ATOM      2  N   UNL     1      33.944 -23.677 -16.312  0.00  0.00    -0.239 N 
ATOM      3  N   UNL     1      34.993 -23.196 -17.000  0.00  0.00    -0.166 NA
ATOM      4  N   UNL     1      35.139 -21.794 -18.926  0.00  0.00    -0.268 N 
ATOM      5  C   UNL     1      32.734 -23.292 -16.810  0.00  0.00    +0.045 C 
ATOM      6  C   UNL     1      33.011 -22.502 -17.899  0.00  0.00    +0.048 C 
ATOM      7  C   UNL     1      34.407 -22.489 -17.955  0.00  0.00    +0.152 C 
ATOM      8  C   UNL     1      34.630 -21.023 -19.969  0.00  0.00    +0.232 C 
ATOM      9  H   UNL     1      34.040 -24.256 -15.521  0.00  0.00    +0.174 HD
ATOM     10  H   UNL     1      36.119 -21.856 -18.864  0.00  0.00    +0.156 HD
ENDROOT
BRANCH   5  11
ATOM     11  C   UNL     1      31.363 -23.664 -16.263  0.00  0.00    +0.037 C 
ATOM     12  C   UNL     1      30.816 -22.910 -15.076  0.00  0.00    +0.006 C 
ATOM     13  C   UNL     1      30.216 -22.700 -16.436  0.00  0.00    +0.006 C 
ENDBRANCH   5  11
BRANCH   8  14
ATOM     14  C   UNL     1      35.761 -20.430 -20.806  0.00  0.00    +0.112 C 
BRANCH  14  15
ATOM     15  C   UNL     1      35.370 -19.215 -21.578  0.00  0.00    -0.013 C 
ATOM     16  C   UNL     1      34.834 -16.843 -21.634  0.00  0.00    -0.000 C 
ATOM     17  C   UNL     1      35.202 -17.996 -20.921  0.00  0.00    -0.004 C 
ATOM     18  C   UNL     1      34.635 -16.927 -23.032  0.00  0.00    -0.000 C 
ATOM     19  C   UNL     1      35.174 -19.298 -22.954  0.00  0.00    -0.004 C 
ATOM     20  C   UNL     1      34.809 -18.163 -23.677  0.00  0.00    -0.000 C 
ATOM     21  C   UNL     1      34.659 -15.607 -20.988  0.00  0.00    -0.000 C 
ATOM     22  C   UNL     1      34.267 -15.774 -23.745  0.00  0.00    -0.000 C 
ATOM     23  C   UNL     1      34.293 -14.472 -21.712  0.00  0.00    -0.000 C 
ATOM     24  C   UNL     1      34.098 -14.555 -23.087  0.00  0.00    -0.000 C 
ENDBRANCH  14  15
ENDBRANCH   8  14
TORSDOF 3
ENDMDL
MODEL 4
REMARK VINA RESULT:     -10.8      2.433      3.794
REMARK  Name = 449087
REMARK  3 active torsions:
REMARK  status: ('A' for Active; 'I' for Inactive)
REMARK    1  A    between atoms: C_5  and  C_11
REMARK    2  A    between atoms: C_8  and  C_14
REMARK    3  A    between atoms: C_14  and  C_15
REMARK                            x       y       z     vdW  Elec       q    Type
REMARK                         _______ _______ _______ _____ _____    ______ ____
ROOT
ATOM      1  O   UNL     1      35.186 -19.167 -22.622  0.00  0.00    -0.274 OA
ATOM      2  N   UNL     1      34.195 -14.782 -20.716  0.00  0.00    -0.239 N 
ATOM      3  N   UNL     1      34.912 -15.715 -20.066  0.00  0.00    -0.166 NA
ATOM      4  N   UNL     1      35.585 -17.925 -20.668  0.00  0.00    -0.268 N 
ATOM      5  C   UNL     1      33.772 -15.175 -21.952  0.00  0.00    +0.045 C 
ATOM      6  C   UNL     1      34.245 -16.452 -22.124  0.00  0.00    +0.048 C 
ATOM      7  C   UNL     1      34.930 -16.717 -20.935  0.00  0.00    +0.152 C 
ATOM      8  C   UNL     1      35.668 -19.037 -21.502  0.00  0.00    +0.232 C 
ATOM      9  H   UNL     1      33.994 -13.898 -20.335  0.00  0.00    +0.174 HD
ATOM     10  H   UNL     1      36.036 -17.997 -19.795  0.00  0.00    +0.156 HD
ENDROOT
BRANCH   5  11
ATOM     11  C   UNL     1      32.946 -14.355 -22.934  0.00  0.00    +0.037 C 
ATOM     12  C   UNL     1      33.566 -13.144 -23.586  0.00  0.00    +0.006 C 
ATOM     13  C   UNL     1      33.306 -14.379 -24.398  0.00  0.00    +0.006 C 
ENDBRANCH   5  11
BRANCH   8  14
ATOM     14  C   UNL     1      36.474 -20.152 -20.840  0.00  0.00    +0.112 C 
BRANCH  14  15
ATOM     15  C   UNL     1      35.700 -20.950 -19.845  0.00  0.00    -0.013 C 
ATOM     16  C   UNL     1      35.604 -22.151 -17.732  0.00  0.00    -0.000 C 
ATOM     17  C   UNL     1      36.319 -21.399 -18.678  0.00  0.00    -0.004 C 
ATOM     18  C   UNL     1      34.242 -22.450 -17.971  0.00  0.00    -0.000 C 
ATOM     19  C   UNL     1      34.360 -21.244 -20.080  0.00  0.00    -0.004 C 
ATOM     20  C   UNL     1      33.635 -21.989 -19.151  0.00  0.00    -0.000 C 
ATOM     21  C   UNL     1      36.212 -22.612 -16.552  0.00  0.00    -0.000 C 
ATOM     22  C   UNL     1      33.527 -23.202 -17.024  0.00  0.00    -0.000 C 
ATOM     23  C   UNL     1      35.486 -23.358 -15.622  0.00  0.00    -0.000 C 
ATOM     24  C   UNL     1      34.147 -23.652 -15.858  0.00  0.00    -0.000 C 
ENDBRANCH  14  15
ENDBRANCH   8  14
TORSDOF 3
ENDMDL
MODEL 5
REMARK VINA RESULT:     -10.8      2.674      3.337
REMARK  Name = 449087
REMARK  3 active torsions:
REMARK  status: ('A' for Active; 'I' for Inactive)
REMARK    1  A    between atoms: C_5  and  C_11
REMARK    2  A    between atoms: C_8  and  C_14
REMARK    3  A    between atoms: C_14  and  C_15
REMARK                            x       y       z     vdW  Elec       q    Type
REMARK                         _______ _______ _______ _____ _____    ______ ____
ROOT
ATOM      1  O   UNL     1      35.271 -16.621 -21.661  0.00  0.00    -0.274 OA
ATOM      2  N   UNL     1      33.660 -15.180 -26.039  0.00  0.00    -0.239 N 
ATOM      3  N   UNL     1      34.204 -16.390 -25.823  0.00  0.00    -0.166 NA
ATOM      4  N   UNL     1      35.084 -17.425 -23.860  0.00  0.00    -0.268 N 
ATOM      5  C   UNL     1      33.601 -14.396 -24.924  0.00  0.00    +0.045 C 
ATOM      6  C   UNL     1      34.143 -15.145 -23.909  0.00  0.00    +0.048 C 
ATOM      7  C   UNL     1      34.490 -16.348 -24.529  0.00  0.00    +0.152 C 
ATOM      8  C   UNL     1      35.426 -17.490 -22.512  0.00  0.00    +0.232 C 
ATOM      9  H   UNL     1      33.334 -14.887 -26.920  0.00  0.00    +0.174 HD
ATOM     10  H   UNL     1      35.282 -18.223 -24.402  0.00  0.00    +0.156 HD
ENDROOT
BRANCH   5  11
ATOM     11  C   UNL     1      33.044 -12.982 -24.833  0.00  0.00    +0.037 C 
ATOM     12  C   UNL     1      33.869 -11.908 -24.168  0.00  0.00    +0.006 C 
ATOM     13  C   UNL     1      33.676 -11.888 -25.656  0.00  0.00    +0.006 C 
ENDBRANCH   5  11
BRANCH   8  14
ATOM     14  C   UNL     1      36.052 -18.841 -22.176  0.00  0.00    +0.112 C 
BRANCH  14  15
ATOM     15  C   UNL     1      35.224 -19.681 -21.261  0.00  0.00    -0.013 C 
ATOM     16  C   UNL     1      35.076 -21.260 -19.417  0.00  0.00    -0.000 C 
ATOM     17  C   UNL     1      35.841 -20.464 -20.285  0.00  0.00    -0.004 C 
ATOM     18  C   UNL     1      33.667 -21.261 -19.539  0.00  0.00    -0.000 C 
ATOM     19  C   UNL     1      33.838 -19.682 -21.382  0.00  0.00    -0.004 C 
ATOM     20  C   UNL     1      33.063 -20.466 -20.528  0.00  0.00    -0.000 C 
ATOM     21  C   UNL     1      35.680 -22.055 -18.429  0.00  0.00    -0.000 C 
ATOM     22  C   UNL     1      32.902 -22.057 -18.670  0.00  0.00    -0.000 C 
ATOM     23  C   UNL     1      34.905 -22.840 -17.574  0.00  0.00    -0.000 C 
ATOM     24  C   UNL     1      33.519 -22.840 -17.695  0.00  0.00    -0.000 C 
ENDBRANCH  14  15
ENDBRANCH   8  14
TORSDOF 3
ENDMDL
MODEL 6
REMARK VINA RESULT:     -10.5      3.405      5.734
REMARK  Name = 449087
REMARK  3 active torsions:
REMARK  status: ('A' for Active; 'I' for Inactive)
REMARK    1  A    between atoms: C_5  and  C_11
REMARK    2  A    between atoms: C_8  and  C_14
REMARK    3  A    between atoms: C_14  and  C_15
REMARK                            x       y       z     vdW  Elec       q    Type
REMARK                         _______ _______ _______ _____ _____    ______ ____
ROOT
ATOM      1  O   UNL     1      32.653 -20.657 -19.558  0.00  0.00    -0.274 OA
ATOM      2  N   UNL     1      35.721 -17.640 -21.865  0.00  0.00    -0.239 N 
ATOM      3  N   UNL     1      36.074 -18.873 -21.465  0.00  0.00    -0.166 NA
ATOM      4  N   UNL     1      34.870 -20.596 -20.333  0.00  0.00    -0.268 N 
ATOM      5  C   UNL     1      34.431 -17.312 -21.567  0.00  0.00    +0.045 C 
ATOM      6  C   UNL     1      33.902 -18.406 -20.928  0.00  0.00    +0.048 C 
ATOM      7  C   UNL     1      34.960 -19.319 -20.900  0.00  0.00    +0.152 C 
ATOM      8  C   UNL     1      33.757 -21.165 -19.718  0.00  0.00    +0.232 C 
ATOM      9  H   UNL     1      36.337 -17.029 -22.330  0.00  0.00    +0.174 HD
ATOM     10  H   UNL     1      35.681 -21.153 -20.374  0.00  0.00    +0.156 HD
ENDROOT
BRANCH   5  11
ATOM     11  C   UNL     1      33.728 -15.999 -21.884  0.00  0.00    +0.037 C 
ATOM     12  C   UNL     1      33.924 -14.819 -20.964  0.00  0.00    +0.006 C 
ATOM     13  C   UNL     1      34.548 -14.814 -22.329  0.00  0.00    +0.006 C 
ENDBRANCH   5  11
BRANCH   8  14
ATOM     14  C   UNL     1      34.070 -22.578 -19.232  0.00  0.00    +0.112 C 
BRANCH  14  15
ATOM     15  C   UNL     1      33.662 -22.837 -17.820  0.00  0.00    -0.013 C 
ATOM     16  C   UNL     1      31.910 -23.156 -16.164  0.00  0.00    -0.000 C 
ATOM     17  C   UNL     1      32.310 -22.913 -17.488  0.00  0.00    -0.004 C 
ATOM     18  C   UNL     1      32.896 -23.326 -15.163  0.00  0.00    -0.000 C 
ATOM     19  C   UNL     1      34.632 -23.004 -16.836  0.00  0.00    -0.004 C 
ATOM     20  C   UNL     1      34.253 -23.247 -15.516  0.00  0.00    -0.000 C 
ATOM     21  C   UNL     1      30.552 -23.235 -15.811  0.00  0.00    -0.000 C 
ATOM     22  C   UNL     1      32.496 -23.570 -13.839  0.00  0.00    -0.000 C 
ATOM     23  C   UNL     1      30.173 -23.477 -14.490  0.00  0.00    -0.000 C 
ATOM     24  C   UNL     1      31.143 -23.644 -13.506  0.00  0.00    -0.000 C 
ENDBRANCH  14  15
ENDBRANCH   8  14
TORSDOF 3
ENDMDL
MODEL 7
REMARK VINA RESULT:     -10.4      3.863      8.388
REMARK  Name = 449087
REMARK  3 active torsions:
REMARK  status: ('A' for Active; 'I' for Inactive)
REMARK    1  A    between atoms: C_5  and  C_11
REMARK    2  A    between atoms: C_8  and  C_14
REMARK    3  A    between atoms: C_14  and  C_15
REMARK                            x       y       z     vdW  Elec       q    Type
REMARK                         _______ _______ _______ _____ _____    ______ ____
ROOT
ATOM      1  O   UNL     1      33.954 -20.059 -21.031  0.00  0.00    -0.274 OA
ATOM      2  N   UNL     1      35.338 -22.832 -17.258  0.00  0.00    -0.239 N 
ATOM      3  N   UNL     1      36.190 -22.042 -17.933  0.00  0.00    -0.166 NA
ATOM      4  N   UNL     1      35.883 -20.575 -19.792  0.00  0.00    -0.268 N 
ATOM      5  C   UNL     1      34.057 -22.788 -17.724  0.00  0.00    +0.045 C 
ATOM      6  C   UNL     1      34.070 -21.906 -18.776  0.00  0.00    +0.048 C 
ATOM      7  C   UNL     1      35.403 -21.492 -18.847  0.00  0.00    +0.152 C 
ATOM      8  C   UNL     1      35.151 -19.938 -20.791  0.00  0.00    +0.232 C 
ATOM      9  H   UNL     1      35.614 -23.393 -16.497  0.00  0.00    +0.174 HD
ATOM     10  H   UNL     1      36.842 -20.357 -19.744  0.00  0.00    +0.156 HD
ENDROOT
BRANCH   5  11
ATOM     11  C   UNL     1      32.862 -23.559 -17.180  0.00  0.00    +0.037 C 
ATOM     12  C   UNL     1      32.463 -23.376 -15.736  0.00  0.00    +0.006 C 
ATOM     13  C   UNL     1      31.601 -22.810 -16.828  0.00  0.00    +0.006 C 
ENDBRANCH   5  11
BRANCH   8  14
ATOM     14  C   UNL     1      36.045 -19.012 -21.611  0.00  0.00    +0.112 C 
BRANCH  14  15
ATOM     15  C   UNL     1      35.349 -17.795 -22.123  0.00  0.00    -0.013 C 
ATOM     16  C   UNL     1      34.396 -16.544 -23.978  0.00  0.00    -0.000 C 
ATOM     17  C   UNL     1      35.050 -17.683 -23.481  0.00  0.00    -0.004 C 
ATOM     18  C   UNL     1      34.037 -15.507 -23.085  0.00  0.00    -0.000 C 
ATOM     19  C   UNL     1      34.996 -16.775 -21.245  0.00  0.00    -0.004 C 
ATOM     20  C   UNL     1      34.344 -15.638 -21.721  0.00  0.00    -0.000 C 
ATOM     21  C   UNL     1      34.089 -16.413 -25.343  0.00  0.00    -0.000 C 
ATOM     22  C   UNL     1      33.381 -14.368 -23.583  0.00  0.00    -0.000 C 
ATOM     23  C   UNL     1      33.437 -15.275 -25.819  0.00  0.00    -0.000 C 
ATOM     24  C   UNL     1      33.084 -14.255 -24.941  0.00  0.00    -0.000 C 
ENDBRANCH  14  15
ENDBRANCH   8  14
TORSDOF 3
ENDMDL
MODEL 8
REMARK VINA RESULT:     -10.3      6.048     10.060
REMARK  Name = 449087
REMARK  3 active torsions:
REMARK  status: ('A' for Active; 'I' for Inactive)
REMARK    1  A    between atoms: C_5  and  C_11
REMARK    2  A    between atoms: C_8  and  C_14
REMARK    3  A    between atoms: C_14  and  C_15
REMARK                            x       y       z     vdW  Elec       q    Type
REMARK                         _______ _______ _______ _____ _____    ______ ____
ROOT
ATOM      1  O   UNL     1      35.542 -22.683 -16.907  0.00  0.00    -0.274 OA
ATOM      2  N   UNL     1      34.154 -24.523 -12.603  0.00  0.00    -0.239 N 
ATOM      3  N   UNL     1      33.371 -24.550 -13.694  0.00  0.00    -0.166 NA
ATOM      4  N   UNL     1      33.703 -23.765 -15.924  0.00  0.00    -0.268 N 
ATOM      5  C   UNL     1      35.368 -23.935 -12.810  0.00  0.00    +0.045 C 
ATOM      6  C   UNL     1      35.380 -23.552 -14.128  0.00  0.00    +0.048 C 
ATOM      7  C   UNL     1      34.130 -23.957 -14.605  0.00  0.00    +0.152 C 
ATOM      8  C   UNL     1      34.413 -23.160 -16.958  0.00  0.00    +0.232 C 
ATOM      9  H   UNL     1      33.878 -24.893 -11.734  0.00  0.00    +0.174 HD
ATOM     10  H   UNL     1      32.802 -24.095 -16.146  0.00  0.00    +0.156 HD
ENDROOT
BRANCH   5  11
ATOM     11  C   UNL     1      36.477 -23.749 -11.783  0.00  0.00    +0.037 C 
ATOM     12  C   UNL     1      37.816 -24.402 -12.020  0.00  0.00    +0.006 C 
ATOM     13  C   UNL     1      37.679 -22.913 -12.142  0.00  0.00    +0.006 C 
ENDBRANCH   5  11
BRANCH   8  14
ATOM     14  C   UNL     1      33.594 -23.150 -18.246  0.00  0.00    +0.112 C 
BRANCH  14  15
ATOM     15  C   UNL     1      33.830 -21.953 -19.105  0.00  0.00    -0.013 C 
ATOM     16  C   UNL     1      35.372 -20.447 -20.233  0.00  0.00    -0.000 C 
ATOM     17  C   UNL     1      35.133 -21.572 -19.426  0.00  0.00    -0.004 C 
ATOM     18  C   UNL     1      34.274 -19.701 -20.723  0.00  0.00    -0.000 C 
ATOM     19  C   UNL     1      32.750 -21.218 -19.586  0.00  0.00    -0.004 C 
ATOM     20  C   UNL     1      32.969 -20.099 -20.389  0.00  0.00    -0.000 C 
ATOM     21  C   UNL     1      36.677 -20.049 -20.566  0.00  0.00    -0.000 C 
ATOM     22  C   UNL     1      34.513 -18.576 -21.531  0.00  0.00    -0.000 C 
ATOM     23  C   UNL     1      36.896 -18.929 -21.369  0.00  0.00    -0.000 C 
ATOM     24  C   UNL     1      35.816 -18.195 -21.851  0.00  0.00    -0.000 C 
ENDBRANCH  14  15
ENDBRANCH   8  14
TORSDOF 3
ENDMDL
MODEL 9
REMARK VINA RESULT:     -10.3      3.850      9.968
REMARK  Name = 449087
REMARK  3 active torsions:
REMARK  status: ('A' for Active; 'I' for Inactive)
REMARK    1  A    between atoms: C_5  and  C_11
REMARK    2  A    between atoms: C_8  and  C_14
REMARK    3  A    between atoms: C_14  and  C_15
REMARK                            x       y       z     vdW  Elec       q    Type
REMARK                         _______ _______ _______ _____ _____    ______ ____
ROOT
ATOM      1  O   UNL     1      32.024 -12.808 -22.816  0.00  0.00    -0.274 OA
ATOM      2  N   UNL     1      35.017 -16.345 -21.276  0.00  0.00    -0.239 N 
ATOM      3  N   UNL     1      34.356 -15.531 -20.435  0.00  0.00    -0.166 NA
ATOM      4  N   UNL     1      32.838 -13.728 -20.813  0.00  0.00    -0.268 N 
ATOM      5  C   UNL     1      34.775 -16.090 -22.594  0.00  0.00    +0.045 C 
ATOM      6  C   UNL     1      33.893 -15.038 -22.618  0.00  0.00    +0.048 C 
ATOM      7  C   UNL     1      33.683 -14.749 -21.267  0.00  0.00    +0.152 C 
ATOM      8  C   UNL     1      32.087 -12.851 -21.592  0.00  0.00    +0.232 C 
ATOM      9  H   UNL     1      35.621 -17.059 -20.969  0.00  0.00    +0.174 HD
ATOM     10  H   UNL     1      32.767 -13.619 -19.837  0.00  0.00    +0.156 HD
ENDROOT
BRANCH   5  11
ATOM     11  C   UNL     1      35.364 -16.828 -23.788  0.00  0.00    +0.037 C 
ATOM     12  C   UNL     1      34.702 -18.096 -24.270  0.00  0.00    +0.006 C 
ATOM     13  C   UNL     1      34.606 -16.843 -25.092  0.00  0.00    +0.006 C 
ENDBRANCH   5  11
BRANCH   8  14
ATOM     14  C   UNL     1      31.295 -11.887 -20.712  0.00  0.00    +0.112 C 
BRANCH  14  15
ATOM     15  C   UNL     1      31.558 -10.447 -21.003  0.00  0.00    -0.013 C 
ATOM     16  C   UNL     1      31.573  -8.589 -22.573  0.00  0.00    -0.000 C 
ATOM     17  C   UNL     1      31.330  -9.942 -22.283  0.00  0.00    -0.004 C 
ATOM     18  C   UNL     1      32.052  -7.737 -21.549  0.00  0.00    -0.000 C 
ATOM     19  C   UNL     1      32.029  -9.609 -19.997  0.00  0.00    -0.004 C 
ATOM     20  C   UNL     1      32.275  -8.263 -20.267  0.00  0.00    -0.000 C 
ATOM     21  C   UNL     1      31.350  -8.064 -23.856  0.00  0.00    -0.000 C 
ATOM     22  C   UNL     1      32.294  -6.384 -21.840  0.00  0.00    -0.000 C 
ATOM     23  C   UNL     1      31.597  -6.717 -24.126  0.00  0.00    -0.000 C 
ATOM     24  C   UNL     1      32.067  -5.879 -23.120  0.00  0.00    -0.000 C 
ENDBRANCH  14  15
ENDBRANCH   8  14
TORSDOF 3
ENDMDL
