MODEL 1
REMARK VINA RESULT:      -7.2      0.000      0.000
REMARK  Name = 688009
REMARK  5 active torsions:
REMARK  status: ('A' for Active; 'I' for Inactive)
REMARK    1  A    between atoms: C_1  and  C_2
REMARK    2  A    between atoms: C_1  and  O_10
REMARK    3  A    between atoms: C_1  and  C_12
REMARK    4  A    between atoms: C_7  and  O_8
REMARK    5  A    between atoms: C_12  and  N_14
REMARK                            x       y       z     vdW  Elec       q    Type
REMARK                         _______ _______ _______ _____ _____    ______ ____
ROOT
ATOM      1  C   UNL     1      35.489 -18.235 -21.720  0.00  0.00    +0.113 C 
ENDROOT
BRANCH   1   2
ATOM      2  C   UNL     1      34.813 -19.360 -20.966  0.00  0.00    +0.002 C 
ATOM      3  C   UNL     1      35.591 -20.350 -20.392  0.00  0.00    +0.001 C 
ATOM      4  C   UNL     1      33.433 -19.374 -20.871  0.00  0.00    +0.001 C 
ATOM      5  C   UNL     1      34.968 -21.388 -19.699  0.00  0.00    +0.036 C 
ATOM      6  C   UNL     1      32.811 -20.413 -20.177  0.00  0.00    +0.036 C 
ATOM      7  C   UNL     1      33.578 -21.419 -19.592  0.00  0.00    +0.134 C 
BRANCH   7   8
ATOM      8  O   UNL     1      32.971 -22.432 -18.914  0.00  0.00    -0.506 OA
ATOM      9  H   UNL     1      33.395 -23.264 -18.836  0.00  0.00    +0.292 HD
ENDBRANCH   7   8
ENDBRANCH   1   2
BRANCH   1  10
ATOM     10  O   UNL     1      36.852 -18.625 -21.910  0.00  0.00    -0.382 OA
ATOM     11  H   UNL     1      37.017 -19.459 -21.443  0.00  0.00    +0.211 HD
ENDBRANCH   1  10
BRANCH   1  12
ATOM     12  C   UNL     1      34.833 -17.921 -23.085  0.00  0.00    -0.030 C 
ATOM     13  C   UNL     1      34.971 -19.074 -24.082  0.00  0.00    -0.021 C 
BRANCH  12  14
ATOM     14  N   UNL     1      35.467 -16.735 -23.674  0.00  0.00    +0.385 N 
ATOM     15  C   UNL     1      34.775 -15.527 -23.257  0.00  0.00    -0.105 C 
ATOM     16  H   UNL     1      35.433 -16.806 -24.691  0.00  0.00    -0.084 HD
ATOM     17  H   UNL     1      36.435 -16.685 -23.356  0.00  0.00    -0.084 HD
ENDBRANCH  12  14
ENDBRANCH   1  12
TORSDOF 5
ENDMDL
MODEL 2
REMARK VINA RESULT:      -7.2      0.038      1.341
REMARK  Name = 688009
REMARK  5 active torsions:
REMARK  status: ('A' for Active; 'I' for Inactive)
REMARK    1  A    between atoms: C_1  and  C_2
REMARK    2  A    between atoms: C_1  and  O_10
REMARK    3  A    between atoms: C_1  and  C_12
REMARK    4  A    between atoms: C_7  and  O_8
REMARK    5  A    between atoms: C_12  and  N_14
REMARK                            x       y       z     vdW  Elec       q    Type
REMARK                         _______ _______ _______ _____ _____    ______ ____
ROOT
ATOM      1  C   UNL     1      35.488 -18.212 -21.705  0.00  0.00    +0.113 C 
ENDROOT
BRANCH   1   2
ATOM      2  C   UNL     1      34.813 -19.347 -20.964  0.00  0.00    +0.002 C 
ATOM      3  C   UNL     1      33.432 -19.373 -20.884  0.00  0.00    +0.001 C 
ATOM      4  C   UNL     1      35.593 -20.330 -20.382  0.00  0.00    +0.001 C 
ATOM      5  C   UNL     1      32.810 -20.418 -20.199  0.00  0.00    +0.036 C 
ATOM      6  C   UNL     1      34.971 -21.375 -19.698  0.00  0.00    +0.036 C 
ATOM      7  C   UNL     1      33.580 -21.418 -19.606  0.00  0.00    +0.134 C 
BRANCH   7   8
ATOM      8  O   UNL     1      32.973 -22.438 -18.941  0.00  0.00    -0.506 OA
ATOM      9  H   UNL     1      32.069 -22.630 -19.100  0.00  0.00    +0.292 HD
ENDBRANCH   7   8
ENDBRANCH   1   2
BRANCH   1  10
ATOM     10  O   UNL     1      36.848 -18.603 -21.909  0.00  0.00    -0.382 OA
ATOM     11  H   UNL     1      37.393 -18.269 -21.179  0.00  0.00    +0.211 HD
ENDBRANCH   1  10
BRANCH   1  12
ATOM     12  C   UNL     1      34.824 -17.876 -23.060  0.00  0.00    -0.030 C 
ATOM     13  C   UNL     1      34.950 -19.014 -24.075  0.00  0.00    -0.021 C 
BRANCH  12  14
ATOM     14  N   UNL     1      35.460 -16.684 -23.636  0.00  0.00    +0.385 N 
ATOM     15  C   UNL     1      34.760 -15.481 -23.219  0.00  0.00    -0.105 C 
ATOM     16  H   UNL     1      35.436 -16.749 -24.654  0.00  0.00    -0.084 HD
ATOM     17  H   UNL     1      36.425 -16.633 -23.309  0.00  0.00    -0.084 HD
ENDBRANCH  12  14
ENDBRANCH   1  12
TORSDOF 5
ENDMDL
MODEL 3
REMARK VINA RESULT:      -7.0      2.455      5.347
REMARK  Name = 688009
REMARK  5 active torsions:
REMARK  status: ('A' for Active; 'I' for Inactive)
REMARK    1  A    between atoms: C_1  and  C_2
REMARK    2  A    between atoms: C_1  and  O_10
REMARK    3  A    between atoms: C_1  and  C_12
REMARK    4  A    between atoms: C_7  and  O_8
REMARK    5  A    between atoms: C_12  and  N_14
REMARK                            x       y       z     vdW  Elec       q    Type
REMARK                         _______ _______ _______ _____ _____    ______ ____
ROOT
ATOM      1  C   UNL     1      35.712 -18.125 -21.561  0.00  0.00    +0.113 C 
ENDROOT
BRANCH   1   2
ATOM      2  C   UNL     1      35.159 -17.534 -22.841  0.00  0.00    +0.002 C 
ATOM      3  C   UNL     1      35.061 -18.334 -23.965  0.00  0.00    +0.001 C 
ATOM      4  C   UNL     1      34.768 -16.207 -22.856  0.00  0.00    +0.001 C 
ATOM      5  C   UNL     1      34.554 -17.788 -25.145  0.00  0.00    +0.036 C 
ATOM      6  C   UNL     1      34.260 -15.662 -24.036  0.00  0.00    +0.036 C 
ATOM      7  C   UNL     1      34.154 -16.452 -25.180  0.00  0.00    +0.134 C 
BRANCH   7   8
ATOM      8  O   UNL     1      33.657 -15.921 -26.331  0.00  0.00    -0.506 OA
ATOM      9  H   UNL     1      33.396 -15.022 -26.357  0.00  0.00    +0.292 HD
ENDBRANCH   7   8
ENDBRANCH   1   2
BRANCH   1  10
ATOM     10  O   UNL     1      35.326 -17.247 -20.500  0.00  0.00    -0.382 OA
ATOM     11  H   UNL     1      34.363 -17.283 -20.386  0.00  0.00    +0.211 HD
ENDBRANCH   1  10
BRANCH   1  12
ATOM     12  C   UNL     1      35.208 -19.558 -21.272  0.00  0.00    -0.030 C 
ATOM     13  C   UNL     1      33.731 -19.593 -20.875  0.00  0.00    -0.021 C 
BRANCH  12  14
ATOM     14  N   UNL     1      35.987 -20.141 -20.172  0.00  0.00    +0.385 N 
ATOM     15  C   UNL     1      35.307 -21.302 -19.625  0.00  0.00    -0.105 C 
ATOM     16  H   UNL     1      36.104 -19.444 -19.437  0.00  0.00    -0.084 HD
ATOM     17  H   UNL     1      36.897 -20.432 -20.530  0.00  0.00    -0.084 HD
ENDBRANCH  12  14
ENDBRANCH   1  12
TORSDOF 5
ENDMDL
MODEL 4
REMARK VINA RESULT:      -6.9      1.328      1.569
REMARK  Name = 688009
REMARK  5 active torsions:
REMARK  status: ('A' for Active; 'I' for Inactive)
REMARK    1  A    between atoms: C_1  and  C_2
REMARK    2  A    between atoms: C_1  and  O_10
REMARK    3  A    between atoms: C_1  and  C_12
REMARK    4  A    between atoms: C_7  and  O_8
REMARK    5  A    between atoms: C_12  and  N_14
REMARK                            x       y       z     vdW  Elec       q    Type
REMARK                         _______ _______ _______ _____ _____    ______ ____
ROOT
ATOM      1  C   UNL     1      35.365 -18.423 -21.980  0.00  0.00    +0.113 C 
ENDROOT
BRANCH   1   2
ATOM      2  C   UNL     1      34.721 -19.484 -21.112  0.00  0.00    +0.002 C 
ATOM      3  C   UNL     1      35.527 -20.383 -20.438  0.00  0.00    +0.001 C 
ATOM      4  C   UNL     1      33.341 -19.529 -21.017  0.00  0.00    +0.001 C 
ATOM      5  C   UNL     1      34.933 -21.362 -19.640  0.00  0.00    +0.036 C 
ATOM      6  C   UNL     1      32.748 -20.508 -20.218  0.00  0.00    +0.036 C 
ATOM      7  C   UNL     1      33.543 -21.424 -19.531  0.00  0.00    +0.134 C 
BRANCH   7   8
ATOM      8  O   UNL     1      32.965 -22.378 -18.750  0.00  0.00    -0.506 OA
ATOM      9  H   UNL     1      32.069 -22.290 -18.489  0.00  0.00    +0.292 HD
ENDBRANCH   7   8
ENDBRANCH   1   2
BRANCH   1  10
ATOM     10  O   UNL     1      35.397 -18.943 -23.312  0.00  0.00    -0.382 OA
ATOM     11  H   UNL     1      34.963 -18.317 -23.913  0.00  0.00    +0.211 HD
ENDBRANCH   1  10
BRANCH   1  12
ATOM     12  C   UNL     1      34.620 -17.068 -21.958  0.00  0.00    -0.030 C 
ATOM     13  C   UNL     1      35.043 -16.147 -23.105  0.00  0.00    -0.021 C 
BRANCH  12  14
ATOM     14  N   UNL     1      34.898 -16.375 -20.694  0.00  0.00    +0.385 N 
ATOM     15  C   UNL     1      34.450 -14.994 -20.760  0.00  0.00    -0.105 C 
ATOM     16  H   UNL     1      35.901 -16.393 -20.514  0.00  0.00    -0.084 HD
ATOM     17  H   UNL     1      34.397 -16.847 -19.941  0.00  0.00    -0.084 HD
ENDBRANCH  12  14
ENDBRANCH   1  12
TORSDOF 5
ENDMDL
MODEL 5
REMARK VINA RESULT:      -6.6      2.295      5.129
REMARK  Name = 688009
REMARK  5 active torsions:
REMARK  status: ('A' for Active; 'I' for Inactive)
REMARK    1  A    between atoms: C_1  and  C_2
REMARK    2  A    between atoms: C_1  and  O_10
REMARK    3  A    between atoms: C_1  and  C_12
REMARK    4  A    between atoms: C_7  and  O_8
REMARK    5  A    between atoms: C_12  and  N_14
REMARK                            x       y       z     vdW  Elec       q    Type
REMARK                         _______ _______ _______ _____ _____    ______ ____
ROOT
ATOM      1  C   UNL     1      33.887 -20.045 -20.313  0.00  0.00    +0.113 C 
ENDROOT
BRANCH   1   2
ATOM      2  C   UNL     1      34.368 -19.023 -21.321  0.00  0.00    +0.002 C 
ATOM      3  C   UNL     1      34.754 -19.448 -22.579  0.00  0.00    +0.001 C 
ATOM      4  C   UNL     1      34.411 -17.688 -20.958  0.00  0.00    +0.001 C 
ATOM      5  C   UNL     1      35.200 -18.506 -23.507  0.00  0.00    +0.036 C 
ATOM      6  C   UNL     1      34.856 -16.747 -21.888  0.00  0.00    +0.036 C 
ATOM      7  C   UNL     1      35.250 -17.155 -23.161  0.00  0.00    +0.134 C 
BRANCH   7   8
ATOM      8  O   UNL     1      35.683 -16.237 -24.068  0.00  0.00    -0.506 OA
ATOM      9  H   UNL     1      36.237 -16.502 -24.775  0.00  0.00    +0.292 HD
ENDBRANCH   7   8
ENDBRANCH   1   2
BRANCH   1  10
ATOM     10  O   UNL     1      32.643 -20.554 -20.802  0.00  0.00    -0.382 OA
ATOM     11  H   UNL     1      32.796 -21.398 -21.257  0.00  0.00    +0.211 HD
ENDBRANCH   1  10
BRANCH   1  12
ATOM     12  C   UNL     1      34.881 -21.207 -20.085  0.00  0.00    -0.030 C 
ATOM     13  C   UNL     1      34.318 -22.291 -19.163  0.00  0.00    -0.021 C 
BRANCH  12  14
ATOM     14  N   UNL     1      36.112 -20.688 -19.475  0.00  0.00    +0.385 N 
ATOM     15  C   UNL     1      36.554 -21.558 -18.399  0.00  0.00    -0.105 C 
ATOM     16  H   UNL     1      35.934 -19.756 -19.100  0.00  0.00    -0.084 HD
ATOM     17  H   UNL     1      36.842 -20.648 -20.187  0.00  0.00    -0.084 HD
ENDBRANCH  12  14
ENDBRANCH   1  12
TORSDOF 5
ENDMDL
MODEL 6
REMARK VINA RESULT:      -6.5      2.364      3.774
REMARK  Name = 688009
REMARK  5 active torsions:
REMARK  status: ('A' for Active; 'I' for Inactive)
REMARK    1  A    between atoms: C_1  and  C_2
REMARK    2  A    between atoms: C_1  and  O_10
REMARK    3  A    between atoms: C_1  and  C_12
REMARK    4  A    between atoms: C_7  and  O_8
REMARK    5  A    between atoms: C_12  and  N_14
REMARK                            x       y       z     vdW  Elec       q    Type
REMARK                         _______ _______ _______ _____ _____    ______ ____
ROOT
ATOM      1  C   UNL     1      34.801 -16.107 -24.643  0.00  0.00    +0.113 C 
ENDROOT
BRANCH   1   2
ATOM      2  C   UNL     1      34.872 -17.086 -23.490  0.00  0.00    +0.002 C 
ATOM      3  C   UNL     1      35.021 -16.601 -22.203  0.00  0.00    +0.001 C 
ATOM      4  C   UNL     1      34.787 -18.442 -23.751  0.00  0.00    +0.001 C 
ATOM      5  C   UNL     1      35.088 -17.503 -21.141  0.00  0.00    +0.036 C 
ATOM      6  C   UNL     1      34.853 -19.343 -22.688  0.00  0.00    +0.036 C 
ATOM      7  C   UNL     1      35.004 -18.875 -21.384  0.00  0.00    +0.134 C 
BRANCH   7   8
ATOM      8  O   UNL     1      35.067 -19.754 -20.347  0.00  0.00    -0.506 OA
ATOM      9  H   UNL     1      34.342 -19.838 -19.760  0.00  0.00    +0.292 HD
ENDBRANCH   7   8
ENDBRANCH   1   2
BRANCH   1  10
ATOM     10  O   UNL     1      34.874 -16.879 -25.845  0.00  0.00    -0.382 OA
ATOM     11  H   UNL     1      35.797 -16.935 -26.138  0.00  0.00    +0.211 HD
ENDBRANCH   1  10
BRANCH   1  12
ATOM     12  C   UNL     1      33.519 -15.243 -24.646  0.00  0.00    -0.030 C 
ATOM     13  C   UNL     1      32.989 -14.982 -26.057  0.00  0.00    -0.021 C 
BRANCH  12  14
ATOM     14  N   UNL     1      33.800 -13.945 -24.020  0.00  0.00    +0.385 N 
ATOM     15  C   UNL     1      32.708 -13.554 -23.145  0.00  0.00    -0.105 C 
ATOM     16  H   UNL     1      33.915 -13.239 -24.747  0.00  0.00    -0.084 HD
ATOM     17  H   UNL     1      34.653 -14.023 -23.466  0.00  0.00    -0.084 HD
ENDBRANCH  12  14
ENDBRANCH   1  12
TORSDOF 5
ENDMDL
MODEL 7
REMARK VINA RESULT:      -6.5      3.145      5.550
REMARK  Name = 688009
REMARK  5 active torsions:
REMARK  status: ('A' for Active; 'I' for Inactive)
REMARK    1  A    between atoms: C_1  and  C_2
REMARK    2  A    between atoms: C_1  and  O_10
REMARK    3  A    between atoms: C_1  and  C_12
REMARK    4  A    between atoms: C_7  and  O_8
REMARK    5  A    between atoms: C_12  and  N_14
REMARK                            x       y       z     vdW  Elec       q    Type
REMARK                         _______ _______ _______ _____ _____    ______ ____
ROOT
ATOM      1  C   UNL     1      35.121 -16.592 -21.829  0.00  0.00    +0.113 C 
ENDROOT
BRANCH   1   2
ATOM      2  C   UNL     1      34.123 -15.455 -21.880  0.00  0.00    +0.002 C 
ATOM      3  C   UNL     1      33.419 -15.125 -20.735  0.00  0.00    +0.001 C 
ATOM      4  C   UNL     1      33.936 -14.774 -23.070  0.00  0.00    +0.001 C 
ATOM      5  C   UNL     1      32.497 -14.078 -20.782  0.00  0.00    +0.036 C 
ATOM      6  C   UNL     1      33.014 -13.727 -23.115  0.00  0.00    +0.036 C 
ATOM      7  C   UNL     1      32.295 -13.380 -21.973  0.00  0.00    +0.134 C 
BRANCH   7   8
ATOM      8  O   UNL     1      31.398 -12.358 -22.017  0.00  0.00    -0.506 OA
ATOM      9  H   UNL     1      31.192 -11.881 -21.237  0.00  0.00    +0.292 HD
ENDBRANCH   7   8
ENDBRANCH   1   2
BRANCH   1  10
ATOM     10  O   UNL     1      35.325 -16.902 -20.448  0.00  0.00    -0.382 OA
ATOM     11  H   UNL     1      35.139 -16.116 -19.910  0.00  0.00    +0.211 HD
ENDBRANCH   1  10
BRANCH   1  12
ATOM     12  C   UNL     1      34.661 -17.855 -22.593  0.00  0.00    -0.030 C 
ATOM     13  C   UNL     1      34.845 -19.136 -21.775  0.00  0.00    -0.021 C 
BRANCH  12  14
ATOM     14  N   UNL     1      35.439 -17.992 -23.831  0.00  0.00    +0.385 N 
ATOM     15  C   UNL     1      34.579 -17.841 -24.992  0.00  0.00    -0.105 C 
ATOM     16  H   UNL     1      35.873 -18.914 -23.854  0.00  0.00    -0.084 HD
ATOM     17  H   UNL     1      36.153 -17.265 -23.854  0.00  0.00    -0.084 HD
ENDBRANCH  12  14
ENDBRANCH   1  12
TORSDOF 5
ENDMDL
MODEL 8
REMARK VINA RESULT:      -6.3      3.233      5.982
REMARK  Name = 688009
REMARK  5 active torsions:
REMARK  status: ('A' for Active; 'I' for Inactive)
REMARK    1  A    between atoms: C_1  and  C_2
REMARK    2  A    between atoms: C_1  and  O_10
REMARK    3  A    between atoms: C_1  and  C_12
REMARK    4  A    between atoms: C_7  and  O_8
REMARK    5  A    between atoms: C_12  and  N_14
REMARK                            x       y       z     vdW  Elec       q    Type
REMARK                         _______ _______ _______ _____ _____    ______ ____
ROOT
ATOM      1  C   UNL     1      33.339 -22.621 -19.222  0.00  0.00    +0.113 C 
ENDROOT
BRANCH   1   2
ATOM      2  C   UNL     1      34.120 -21.465 -19.811  0.00  0.00    +0.002 C 
ATOM      3  C   UNL     1      35.502 -21.475 -19.731  0.00  0.00    +0.001 C 
ATOM      4  C   UNL     1      33.434 -20.425 -20.412  0.00  0.00    +0.001 C 
ATOM      5  C   UNL     1      36.221 -20.409 -20.271  0.00  0.00    +0.036 C 
ATOM      6  C   UNL     1      34.155 -19.360 -20.953  0.00  0.00    +0.036 C 
ATOM      7  C   UNL     1      35.547 -19.351 -20.882  0.00  0.00    +0.134 C 
BRANCH   7   8
ATOM      8  O   UNL     1      36.250 -18.313 -21.411  0.00  0.00    -0.506 OA
ATOM      9  H   UNL     1      36.868 -17.847 -20.882  0.00  0.00    +0.292 HD
ENDBRANCH   7   8
ENDBRANCH   1   2
BRANCH   1  10
ATOM     10  O   UNL     1      34.116 -23.801 -19.448  0.00  0.00    -0.382 OA
ATOM     11  H   UNL     1      34.401 -23.827 -20.374  0.00  0.00    +0.211 HD
ENDBRANCH   1  10
BRANCH   1  12
ATOM     12  C   UNL     1      33.042 -22.464 -17.713  0.00  0.00    -0.030 C 
ATOM     13  C   UNL     1      33.859 -23.426 -16.849  0.00  0.00    -0.021 C 
BRANCH  12  14
ATOM     14  N   UNL     1      31.619 -22.727 -17.462  0.00  0.00    +0.385 N 
ATOM     15  C   UNL     1      31.414 -23.158 -16.090  0.00  0.00    -0.105 C 
ATOM     16  H   UNL     1      31.296 -23.459 -18.095  0.00  0.00    -0.084 HD
ATOM     17  H   UNL     1      31.092 -21.868 -17.619  0.00  0.00    -0.084 HD
ENDBRANCH  12  14
ENDBRANCH   1  12
TORSDOF 5
ENDMDL
MODEL 9
REMARK VINA RESULT:      -6.3      1.853      2.462
REMARK  Name = 688009
REMARK  5 active torsions:
REMARK  status: ('A' for Active; 'I' for Inactive)
REMARK    1  A    between atoms: C_1  and  C_2
REMARK    2  A    between atoms: C_1  and  O_10
REMARK    3  A    between atoms: C_1  and  C_12
REMARK    4  A    between atoms: C_7  and  O_8
REMARK    5  A    between atoms: C_12  and  N_14
REMARK                            x       y       z     vdW  Elec       q    Type
REMARK                         _______ _______ _______ _____ _____    ______ ____
ROOT
ATOM      1  C   UNL     1      33.934 -19.824 -21.287  0.00  0.00    +0.113 C 
ENDROOT
BRANCH   1   2
ATOM      2  C   UNL     1      34.300 -20.747 -20.144  0.00  0.00    +0.002 C 
ATOM      3  C   UNL     1      35.628 -20.869 -19.775  0.00  0.00    +0.001 C 
ATOM      4  C   UNL     1      33.298 -21.447 -19.496  0.00  0.00    +0.001 C 
ATOM      5  C   UNL     1      35.966 -21.721 -18.723  0.00  0.00    +0.036 C 
ATOM      6  C   UNL     1      33.637 -22.298 -18.443  0.00  0.00    +0.036 C 
ATOM      7  C   UNL     1      34.969 -22.436 -18.057  0.00  0.00    +0.134 C 
BRANCH   7   8
ATOM      8  O   UNL     1      35.299 -23.264 -17.029  0.00  0.00    -0.506 OA
ATOM      9  H   UNL     1      35.827 -22.947 -16.322  0.00  0.00    +0.292 HD
ENDBRANCH   7   8
ENDBRANCH   1   2
BRANCH   1  10
ATOM     10  O   UNL     1      32.875 -18.986 -20.818  0.00  0.00    -0.382 OA
ATOM     11  H   UNL     1      32.865 -18.991 -19.848  0.00  0.00    +0.211 HD
ENDBRANCH   1  10
BRANCH   1  12
ATOM     12  C   UNL     1      35.114 -18.958 -21.787  0.00  0.00    -0.030 C 
ATOM     13  C   UNL     1      35.051 -17.522 -21.263  0.00  0.00    -0.021 C 
BRANCH  12  14
ATOM     14  N   UNL     1      35.099 -18.907 -23.254  0.00  0.00    +0.385 N 
ATOM     15  C   UNL     1      34.998 -17.533 -23.715  0.00  0.00    -0.105 C 
ATOM     16  H   UNL     1      34.299 -19.436 -23.601  0.00  0.00    -0.084 HD
ATOM     17  H   UNL     1      35.968 -19.309 -23.607  0.00  0.00    -0.084 HD
ENDBRANCH  12  14
ENDBRANCH   1  12
TORSDOF 5
ENDMDL
