MODEL 1
REMARK VINA RESULT:      -5.2      0.000      0.000
REMARK  Name = 5488191
REMARK  3 active torsions:
REMARK  status: ('A' for Active; 'I' for Inactive)
REMARK    1  A    between atoms: C_1  and  N_3
REMARK    2  A    between atoms: C_1  and  C_8
REMARK    3  A    between atoms: C_8  and  O_9
REMARK                            x       y       z     vdW  Elec       q    Type
REMARK                         _______ _______ _______ _____ _____    ______ ____
ROOT
ATOM      1  C   UNL     1      39.165 -25.104 -14.206  0.00  0.00    +0.043 C 
ATOM      2  C   UNL     1      38.582 -25.750 -12.957  0.00  0.00    -0.011 C 
ENDROOT
BRANCH   1   3
ATOM      3  N   UNL     1      38.139 -25.026 -15.246  0.00  0.00    +0.392 N 
ATOM      4  C   UNL     1      37.582 -23.676 -15.315  0.00  0.00    -0.100 C 
ATOM      5  C   UNL     1      37.080 -26.003 -14.994  0.00  0.00    -0.100 C 
ATOM      6  H   UNL     1      38.571 -25.243 -16.143  0.00  0.00    -0.079 HD
ENDBRANCH   1   3
BRANCH   1   8
ATOM      7  O   UNL     1      41.124 -26.564 -14.089  0.00  0.00    -0.253 OA
ATOM      8  C   UNL     1      40.319 -25.922 -14.747  0.00  0.00    +0.294 C 
BRANCH   8   9
ATOM      9  O   UNL     1      40.346 -25.861 -16.105  0.00  0.00    -0.482 OA
ATOM     10  H   UNL     1      39.545 -25.838 -16.590  0.00  0.00    +0.295 HD
ENDBRANCH   8   9
ENDBRANCH   1   8
TORSDOF 3
ENDMDL
MODEL 2
REMARK VINA RESULT:      -4.7      2.411      3.245
REMARK  Name = 5488191
REMARK  3 active torsions:
REMARK  status: ('A' for Active; 'I' for Inactive)
REMARK    1  A    between atoms: C_1  and  N_3
REMARK    2  A    between atoms: C_1  and  C_8
REMARK    3  A    between atoms: C_8  and  O_9
REMARK                            x       y       z     vdW  Elec       q    Type
REMARK                         _______ _______ _______ _____ _____    ______ ____
ROOT
ATOM      1  C   UNL     1      37.912 -26.494 -14.551  0.00  0.00    +0.043 C 
ATOM      2  C   UNL     1      37.460 -25.968 -13.196  0.00  0.00    -0.011 C 
ENDROOT
BRANCH   1   3
ATOM      3  N   UNL     1      38.684 -25.464 -15.248  0.00  0.00    +0.392 N 
ATOM      4  C   UNL     1      40.084 -25.504 -14.828  0.00  0.00    -0.100 C 
ATOM      5  C   UNL     1      38.113 -24.141 -14.998  0.00  0.00    -0.100 C 
ATOM      6  H   UNL     1      38.641 -25.651 -16.249  0.00  0.00    -0.079 HD
ENDBRANCH   1   3
BRANCH   1   8
ATOM      7  O   UNL     1      36.745 -27.496 -16.453  0.00  0.00    -0.253 OA
ATOM      8  C   UNL     1      36.721 -26.851 -15.415  0.00  0.00    +0.294 C 
BRANCH   8   9
ATOM      9  O   UNL     1      35.577 -26.359 -14.871  0.00  0.00    -0.482 OA
ATOM     10  H   UNL     1      35.615 -25.832 -14.097  0.00  0.00    +0.295 HD
ENDBRANCH   8   9
ENDBRANCH   1   8
TORSDOF 3
ENDMDL
MODEL 3
REMARK VINA RESULT:      -4.6      9.593     10.633
REMARK  Name = 5488191
REMARK  3 active torsions:
REMARK  status: ('A' for Active; 'I' for Inactive)
REMARK    1  A    between atoms: C_1  and  N_3
REMARK    2  A    between atoms: C_1  and  C_8
REMARK    3  A    between atoms: C_8  and  O_9
REMARK                            x       y       z     vdW  Elec       q    Type
REMARK                         _______ _______ _______ _____ _____    ______ ____
ROOT
ATOM      1  C   UNL     1      28.846 -23.593 -15.629  0.00  0.00    +0.043 C 
ATOM      2  C   UNL     1      29.351 -22.323 -14.959  0.00  0.00    -0.011 C 
ENDROOT
BRANCH   1   3
ATOM      3  N   UNL     1      29.971 -24.484 -15.909  0.00  0.00    +0.392 N 
ATOM      4  C   UNL     1      30.082 -25.509 -14.872  0.00  0.00    -0.100 C 
ATOM      5  C   UNL     1      31.215 -23.721 -16.010  0.00  0.00    -0.100 C 
ATOM      6  H   UNL     1      29.803 -24.946 -16.803  0.00  0.00    -0.079 HD
ENDBRANCH   1   3
BRANCH   1   8
ATOM      7  O   UNL     1      27.626 -24.075 -17.694  0.00  0.00    -0.253 OA
ATOM      8  C   UNL     1      28.162 -23.274 -16.942  0.00  0.00    +0.294 C 
BRANCH   8   9
ATOM      9  O   UNL     1      28.208 -21.938 -17.187  0.00  0.00    -0.482 OA
ATOM     10  H   UNL     1      27.422 -21.471 -17.394  0.00  0.00    +0.295 HD
ENDBRANCH   8   9
ENDBRANCH   1   8
TORSDOF 3
ENDMDL
MODEL 4
REMARK VINA RESULT:      -4.6      1.252      1.884
REMARK  Name = 5488191
REMARK  3 active torsions:
REMARK  status: ('A' for Active; 'I' for Inactive)
REMARK    1  A    between atoms: C_1  and  N_3
REMARK    2  A    between atoms: C_1  and  C_8
REMARK    3  A    between atoms: C_8  and  O_9
REMARK                            x       y       z     vdW  Elec       q    Type
REMARK                         _______ _______ _______ _____ _____    ______ ____
ROOT
ATOM      1  C   UNL     1      39.036 -25.706 -14.036  0.00  0.00    +0.043 C 
ATOM      2  C   UNL     1      38.038 -26.452 -14.910  0.00  0.00    -0.011 C 
ENDROOT
BRANCH   1   3
ATOM      3  N   UNL     1      38.419 -24.488 -13.512  0.00  0.00    +0.392 N 
ATOM      4  C   UNL     1      37.772 -24.753 -12.228  0.00  0.00    -0.100 C 
ATOM      5  C   UNL     1      37.453 -23.950 -14.470  0.00  0.00    -0.100 C 
ATOM      6  H   UNL     1      39.151 -23.793 -13.367  0.00  0.00    -0.079 HD
ENDBRANCH   1   3
BRANCH   1   8
ATOM      7  O   UNL     1      41.143 -24.543 -14.476  0.00  0.00    -0.253 OA
ATOM      8  C   UNL     1      40.258 -25.307 -14.835  0.00  0.00    +0.294 C 
BRANCH   8   9
ATOM      9  O   UNL     1      40.259 -25.933 -16.042  0.00  0.00    -0.482 OA
ATOM     10  H   UNL     1      41.014 -26.413 -16.321  0.00  0.00    +0.295 HD
ENDBRANCH   8   9
ENDBRANCH   1   8
TORSDOF 3
ENDMDL
MODEL 5
REMARK VINA RESULT:      -4.6      9.301     10.299
REMARK  Name = 5488191
REMARK  3 active torsions:
REMARK  status: ('A' for Active; 'I' for Inactive)
REMARK    1  A    between atoms: C_1  and  N_3
REMARK    2  A    between atoms: C_1  and  C_8
REMARK    3  A    between atoms: C_8  and  O_9
REMARK                            x       y       z     vdW  Elec       q    Type
REMARK                         _______ _______ _______ _____ _____    ______ ____
ROOT
ATOM      1  C   UNL     1      29.577 -23.975 -16.214  0.00  0.00    +0.043 C 
ATOM      2  C   UNL     1      28.981 -24.740 -15.042  0.00  0.00    -0.011 C 
ENDROOT
BRANCH   1   3
ATOM      3  N   UNL     1      30.577 -23.024 -15.726  0.00  0.00    +0.392 N 
ATOM      4  C   UNL     1      31.835 -23.188 -16.453  0.00  0.00    -0.100 C 
ATOM      5  C   UNL     1      30.790 -23.198 -14.290  0.00  0.00    -0.100 C 
ATOM      6  H   UNL     1      30.230 -22.080 -15.889  0.00  0.00    -0.079 HD
ENDBRANCH   1   3
BRANCH   1   8
ATOM      7  O   UNL     1      28.413 -21.978 -17.015  0.00  0.00    -0.253 OA
ATOM      8  C   UNL     1      28.508 -23.195 -16.948  0.00  0.00    +0.294 C 
BRANCH   8   9
ATOM      9  O   UNL     1      27.637 -24.043 -17.557  0.00  0.00    -0.482 OA
ATOM     10  H   UNL     1      27.765 -24.283 -18.454  0.00  0.00    +0.295 HD
ENDBRANCH   8   9
ENDBRANCH   1   8
TORSDOF 3
ENDMDL
MODEL 6
REMARK VINA RESULT:      -4.5     10.231     11.257
REMARK  Name = 5488191
REMARK  3 active torsions:
REMARK  status: ('A' for Active; 'I' for Inactive)
REMARK    1  A    between atoms: C_1  and  N_3
REMARK    2  A    between atoms: C_1  and  C_8
REMARK    3  A    between atoms: C_8  and  O_9
REMARK                            x       y       z     vdW  Elec       q    Type
REMARK                         _______ _______ _______ _____ _____    ______ ____
ROOT
ATOM      1  C   UNL     1      41.296 -15.014 -16.703  0.00  0.00    +0.043 C 
ATOM      2  C   UNL     1      41.257 -14.415 -18.101  0.00  0.00    -0.011 C 
ENDROOT
BRANCH   1   3
ATOM      3  N   UNL     1      41.813 -14.026 -15.756  0.00  0.00    +0.392 N 
ATOM      4  C   UNL     1      40.849 -13.795 -14.681  0.00  0.00    -0.100 C 
ATOM      5  C   UNL     1      42.123 -12.773 -16.443  0.00  0.00    -0.100 C 
ATOM      6  H   UNL     1      42.673 -14.390 -15.346  0.00  0.00    -0.079 HD
ENDBRANCH   1   3
BRANCH   1   8
ATOM      7  O   UNL     1      43.399 -16.227 -16.392  0.00  0.00    -0.253 OA
ATOM      8  C   UNL     1      42.206 -16.224 -16.661  0.00  0.00    +0.294 C 
BRANCH   8   9
ATOM      9  O   UNL     1      41.507 -17.352 -16.958  0.00  0.00    -0.482 OA
ATOM     10  H   UNL     1      40.579 -17.311 -17.076  0.00  0.00    +0.295 HD
ENDBRANCH   8   9
ENDBRANCH   1   8
TORSDOF 3
ENDMDL
MODEL 7
REMARK VINA RESULT:      -4.5      2.537      2.997
REMARK  Name = 5488191
REMARK  3 active torsions:
REMARK  status: ('A' for Active; 'I' for Inactive)
REMARK    1  A    between atoms: C_1  and  N_3
REMARK    2  A    between atoms: C_1  and  C_8
REMARK    3  A    between atoms: C_8  and  O_9
REMARK                            x       y       z     vdW  Elec       q    Type
REMARK                         _______ _______ _______ _____ _____    ______ ____
ROOT
ATOM      1  C   UNL     1      36.754 -25.191 -14.933  0.00  0.00    +0.043 C 
ATOM      2  C   UNL     1      37.815 -24.289 -14.319  0.00  0.00    -0.011 C 
ENDROOT
BRANCH   1   3
ATOM      3  N   UNL     1      35.611 -25.297 -14.026  0.00  0.00    +0.392 N 
ATOM      4  C   UNL     1      34.484 -24.514 -14.529  0.00  0.00    -0.100 C 
ATOM      5  C   UNL     1      35.982 -24.854 -12.682  0.00  0.00    -0.100 C 
ATOM      6  H   UNL     1      35.328 -26.275 -13.976  0.00  0.00    -0.079 HD
ENDBRANCH   1   3
BRANCH   1   8
ATOM      7  O   UNL     1      38.173 -27.139 -14.516  0.00  0.00    -0.253 OA
ATOM      8  C   UNL     1      37.299 -26.584 -15.166  0.00  0.00    +0.294 C 
BRANCH   8   9
ATOM      9  O   UNL     1      36.669 -27.169 -16.219  0.00  0.00    -0.482 OA
ATOM     10  H   UNL     1      36.378 -26.646 -16.940  0.00  0.00    +0.295 HD
ENDBRANCH   8   9
ENDBRANCH   1   8
TORSDOF 3
ENDMDL
MODEL 8
REMARK VINA RESULT:      -4.5      4.129      4.701
REMARK  Name = 5488191
REMARK  3 active torsions:
REMARK  status: ('A' for Active; 'I' for Inactive)
REMARK    1  A    between atoms: C_1  and  N_3
REMARK    2  A    between atoms: C_1  and  C_8
REMARK    3  A    between atoms: C_8  and  O_9
REMARK                            x       y       z     vdW  Elec       q    Type
REMARK                         _______ _______ _______ _____ _____    ______ ____
ROOT
ATOM      1  C   UNL     1      36.567 -24.653 -12.675  0.00  0.00    +0.043 C 
ATOM      2  C   UNL     1      36.793 -23.333 -13.398  0.00  0.00    -0.011 C 
ENDROOT
BRANCH   1   3
ATOM      3  N   UNL     1      36.196 -25.688 -13.639  0.00  0.00    +0.392 N 
ATOM      4  C   UNL     1      37.272 -26.669 -13.776  0.00  0.00    -0.100 C 
ATOM      5  C   UNL     1      35.881 -25.090 -14.936  0.00  0.00    -0.100 C 
ATOM      6  H   UNL     1      35.364 -26.167 -13.294  0.00  0.00    -0.079 HD
ENDBRANCH   1   3
BRANCH   1   8
ATOM      7  O   UNL     1      35.333 -25.161 -10.624  0.00  0.00    -0.253 OA
ATOM      8  C   UNL     1      35.446 -24.529 -11.664  0.00  0.00    +0.294 C 
BRANCH   8   9
ATOM      9  O   UNL     1      34.551 -23.586 -12.064  0.00  0.00    -0.482 OA
ATOM     10  H   UNL     1      33.770 -23.441 -11.568  0.00  0.00    +0.295 HD
ENDBRANCH   8   9
ENDBRANCH   1   8
TORSDOF 3
ENDMDL
MODEL 9
REMARK VINA RESULT:      -4.4      2.157      2.889
REMARK  Name = 5488191
REMARK  3 active torsions:
REMARK  status: ('A' for Active; 'I' for Inactive)
REMARK    1  A    between atoms: C_1  and  N_3
REMARK    2  A    between atoms: C_1  and  C_8
REMARK    3  A    between atoms: C_8  and  O_9
REMARK                            x       y       z     vdW  Elec       q    Type
REMARK                         _______ _______ _______ _____ _____    ______ ____
ROOT
ATOM      1  C   UNL     1      36.654 -25.453 -14.297  0.00  0.00    +0.043 C 
ATOM      2  C   UNL     1      35.422 -25.058 -15.098  0.00  0.00    -0.011 C 
ENDROOT
BRANCH   1   3
ATOM      3  N   UNL     1      37.550 -24.303 -14.169  0.00  0.00    +0.392 N 
ATOM      4  C   UNL     1      37.230 -23.538 -12.964  0.00  0.00    -0.100 C 
ATOM      5  C   UNL     1      37.460 -23.451 -15.354  0.00  0.00    -0.100 C 
ATOM      6  H   UNL     1      38.506 -24.646 -14.089  0.00  0.00    -0.079 HD
ENDBRANCH   1   3
BRANCH   1   8
ATOM      7  O   UNL     1      38.492 -27.029 -14.650  0.00  0.00    -0.253 OA
ATOM      8  C   UNL     1      37.414 -26.564 -14.991  0.00  0.00    +0.294 C 
BRANCH   8   9
ATOM      9  O   UNL     1      36.722 -27.005 -16.074  0.00  0.00    -0.482 OA
ATOM     10  H   UNL     1      36.546 -27.920 -16.178  0.00  0.00    +0.295 HD
ENDBRANCH   8   9
ENDBRANCH   1   8
TORSDOF 3
ENDMDL
