MODEL 1
REMARK VINA RESULT:      -5.3      0.000      0.000
REMARK  Name = 20689
REMARK  6 active torsions:
REMARK  status: ('A' for Active; 'I' for Inactive)
REMARK    1  A    between atoms: S_1  and  C_3
REMARK    2  A    between atoms: S_1  and  C_7
REMARK    3  A    between atoms: C_3  and  C_4
REMARK    4  A    between atoms: C_4  and  C_5
REMARK    5  A    between atoms: C_7  and  C_8
REMARK    6  A    between atoms: C_8  and  N_9
REMARK                            x       y       z     vdW  Elec       q    Type
REMARK                         _______ _______ _______ _____ _____    ______ ____
ROOT
ATOM      1  S   UNL     1      34.067 -15.457 -23.717  0.00  0.00    -0.079 S 
ENDROOT
BRANCH   1   3
ATOM      2  O   UNL     1      34.804 -16.956 -25.761  0.00  0.00    -0.285 OA
ATOM      3  C   UNL     1      34.049 -16.075 -25.371  0.00  0.00    +0.199 C 
BRANCH   3   4
ATOM      4  C   UNL     1      33.005 -15.398 -26.237  0.00  0.00    +0.076 C 
BRANCH   4   5
ATOM      5  C   UNL     1      32.948 -13.892 -25.991  0.00  0.00    +0.009 C 
ATOM      6  C   UNL     1      33.324 -13.109 -27.239  0.00  0.00    +0.000 C 
ENDBRANCH   4   5
ENDBRANCH   3   4
ENDBRANCH   1   3
BRANCH   1   7
ATOM      7  C   UNL     1      35.184 -16.661 -22.938  0.00  0.00    +0.043 C 
BRANCH   7   8
ATOM      8  C   UNL     1      34.573 -17.291 -21.697  0.00  0.00    -0.061 C 
BRANCH   8   9
ATOM      9  N   UNL     1      34.817 -18.794 -21.691  0.00  0.00    +0.386 N 
ATOM     10  C   UNL     1      33.691 -19.487 -20.937  0.00  0.00    -0.096 C 
ATOM     11  C   UNL     1      34.856 -19.305 -23.124  0.00  0.00    -0.096 C 
ATOM     12  C   UNL     1      36.143 -19.090 -21.009  0.00  0.00    -0.096 C 
ENDBRANCH   8   9
ENDBRANCH   7   8
ENDBRANCH   1   7
TORSDOF 6
ENDMDL
MODEL 2
REMARK VINA RESULT:      -5.3      3.049      5.755
REMARK  Name = 20689
REMARK  6 active torsions:
REMARK  status: ('A' for Active; 'I' for Inactive)
REMARK    1  A    between atoms: S_1  and  C_3
REMARK    2  A    between atoms: S_1  and  C_7
REMARK    3  A    between atoms: C_3  and  C_4
REMARK    4  A    between atoms: C_4  and  C_5
REMARK    5  A    between atoms: C_7  and  C_8
REMARK    6  A    between atoms: C_8  and  N_9
REMARK                            x       y       z     vdW  Elec       q    Type
REMARK                         _______ _______ _______ _____ _____    ______ ____
ROOT
ATOM      1  S   UNL     1      35.024 -17.839 -23.232  0.00  0.00    -0.079 S 
ENDROOT
BRANCH   1   3
ATOM      2  O   UNL     1      35.540 -17.727 -20.645  0.00  0.00    -0.285 OA
ATOM      3  C   UNL     1      35.102 -18.409 -21.563  0.00  0.00    +0.199 C 
BRANCH   3   4
ATOM      4  C   UNL     1      34.570 -19.819 -21.400  0.00  0.00    +0.076 C 
BRANCH   4   5
ATOM      5  C   UNL     1      33.236 -19.844 -20.658  0.00  0.00    +0.009 C 
ATOM      6  C   UNL     1      33.153 -21.022 -19.700  0.00  0.00    +0.000 C 
ENDBRANCH   4   5
ENDBRANCH   3   4
ENDBRANCH   1   3
BRANCH   1   7
ATOM      7  C   UNL     1      35.003 -16.042 -22.956  0.00  0.00    +0.043 C 
BRANCH   7   8
ATOM      8  C   UNL     1      33.596 -15.469 -23.018  0.00  0.00    -0.061 C 
BRANCH   8   9
ATOM      9  N   UNL     1      33.199 -14.890 -21.667  0.00  0.00    +0.386 N 
ATOM     10  C   UNL     1      34.453 -14.540 -20.878  0.00  0.00    -0.096 C 
ATOM     11  C   UNL     1      32.367 -13.634 -21.879  0.00  0.00    -0.096 C 
ATOM     12  C   UNL     1      32.384 -15.916 -20.896  0.00  0.00    -0.096 C 
ENDBRANCH   8   9
ENDBRANCH   7   8
ENDBRANCH   1   7
TORSDOF 6
ENDMDL
MODEL 3
REMARK VINA RESULT:      -5.3      2.893      6.184
REMARK  Name = 20689
REMARK  6 active torsions:
REMARK  status: ('A' for Active; 'I' for Inactive)
REMARK    1  A    between atoms: S_1  and  C_3
REMARK    2  A    between atoms: S_1  and  C_7
REMARK    3  A    between atoms: C_3  and  C_4
REMARK    4  A    between atoms: C_4  and  C_5
REMARK    5  A    between atoms: C_7  and  C_8
REMARK    6  A    between atoms: C_8  and  N_9
REMARK                            x       y       z     vdW  Elec       q    Type
REMARK                         _______ _______ _______ _____ _____    ______ ____
ROOT
ATOM      1  S   UNL     1      34.943 -16.963 -23.156  0.00  0.00    -0.079 S 
ENDROOT
BRANCH   1   3
ATOM      2  O   UNL     1      35.387 -17.540 -20.619  0.00  0.00    -0.285 OA
ATOM      3  C   UNL     1      34.984 -17.956 -21.697  0.00  0.00    +0.199 C 
BRANCH   3   4
ATOM      4  C   UNL     1      34.470 -19.363 -21.932  0.00  0.00    +0.076 C 
BRANCH   4   5
ATOM      5  C   UNL     1      34.360 -20.155 -20.631  0.00  0.00    +0.009 C 
ATOM      6  C   UNL     1      32.912 -20.317 -20.198  0.00  0.00    +0.000 C 
ENDBRANCH   4   5
ENDBRANCH   3   4
ENDBRANCH   1   3
BRANCH   1   7
ATOM      7  C   UNL     1      33.981 -15.544 -22.551  0.00  0.00    +0.043 C 
BRANCH   7   8
ATOM      8  C   UNL     1      34.496 -14.225 -23.102  0.00  0.00    -0.061 C 
BRANCH   8   9
ATOM      9  N   UNL     1      33.355 -13.427 -23.718  0.00  0.00    +0.386 N 
ATOM     10  C   UNL     1      32.880 -14.120 -24.987  0.00  0.00    -0.096 C 
ATOM     11  C   UNL     1      32.204 -13.340 -22.727  0.00  0.00    -0.096 C 
ATOM     12  C   UNL     1      33.841 -12.026 -24.057  0.00  0.00    -0.096 C 
ENDBRANCH   8   9
ENDBRANCH   7   8
ENDBRANCH   1   7
TORSDOF 6
ENDMDL
MODEL 4
REMARK VINA RESULT:      -5.2      0.598      1.405
REMARK  Name = 20689
REMARK  6 active torsions:
REMARK  status: ('A' for Active; 'I' for Inactive)
REMARK    1  A    between atoms: S_1  and  C_3
REMARK    2  A    between atoms: S_1  and  C_7
REMARK    3  A    between atoms: C_3  and  C_4
REMARK    4  A    between atoms: C_4  and  C_5
REMARK    5  A    between atoms: C_7  and  C_8
REMARK    6  A    between atoms: C_8  and  N_9
REMARK                            x       y       z     vdW  Elec       q    Type
REMARK                         _______ _______ _______ _____ _____    ______ ____
ROOT
ATOM      1  S   UNL     1      33.832 -15.076 -23.744  0.00  0.00    -0.079 S 
ENDROOT
BRANCH   1   3
ATOM      2  O   UNL     1      34.432 -16.425 -25.933  0.00  0.00    -0.285 OA
ATOM      3  C   UNL     1      33.746 -15.535 -25.447  0.00  0.00    +0.199 C 
BRANCH   3   4
ATOM      4  C   UNL     1      32.738 -14.713 -26.225  0.00  0.00    +0.076 C 
BRANCH   4   5
ATOM      5  C   UNL     1      33.415 -13.672 -27.114  0.00  0.00    +0.009 C 
ATOM      6  C   UNL     1      33.609 -12.354 -26.381  0.00  0.00    +0.000 C 
ENDBRANCH   4   5
ENDBRANCH   3   4
ENDBRANCH   1   3
BRANCH   1   7
ATOM      7  C   UNL     1      35.003 -16.326 -23.134  0.00  0.00    +0.043 C 
BRANCH   7   8
ATOM      8  C   UNL     1      34.478 -17.052 -21.906  0.00  0.00    -0.061 C 
BRANCH   8   9
ATOM      9  N   UNL     1      34.873 -18.522 -21.951  0.00  0.00    +0.386 N 
ATOM     10  C   UNL     1      34.922 -18.989 -23.399  0.00  0.00    -0.096 C 
ATOM     11  C   UNL     1      36.244 -18.697 -21.315  0.00  0.00    -0.096 C 
ATOM     12  C   UNL     1      33.848 -19.346 -21.187  0.00  0.00    -0.096 C 
ENDBRANCH   8   9
ENDBRANCH   7   8
ENDBRANCH   1   7
TORSDOF 6
ENDMDL
MODEL 5
REMARK VINA RESULT:      -5.2      7.063      9.254
REMARK  Name = 20689
REMARK  6 active torsions:
REMARK  status: ('A' for Active; 'I' for Inactive)
REMARK    1  A    between atoms: S_1  and  C_3
REMARK    2  A    between atoms: S_1  and  C_7
REMARK    3  A    between atoms: C_3  and  C_4
REMARK    4  A    between atoms: C_4  and  C_5
REMARK    5  A    between atoms: C_7  and  C_8
REMARK    6  A    between atoms: C_8  and  N_9
REMARK                            x       y       z     vdW  Elec       q    Type
REMARK                         _______ _______ _______ _____ _____    ______ ____
ROOT
ATOM      1  S   UNL     1      36.656 -21.716 -17.806  0.00  0.00    -0.079 S 
ENDROOT
BRANCH   1   3
ATOM      2  O   UNL     1      34.430 -23.085 -18.183  0.00  0.00    -0.285 OA
ATOM      3  C   UNL     1      35.119 -22.145 -18.560  0.00  0.00    +0.199 C 
BRANCH   3   4
ATOM      4  C   UNL     1      34.755 -21.228 -19.711  0.00  0.00    +0.076 C 
BRANCH   4   5
ATOM      5  C   UNL     1      33.247 -21.005 -19.810  0.00  0.00    +0.009 C 
ATOM      6  C   UNL     1      32.915 -19.848 -20.738  0.00  0.00    +0.000 C 
ENDBRANCH   4   5
ENDBRANCH   3   4
ENDBRANCH   1   3
BRANCH   1   7
ATOM      7  C   UNL     1      36.373 -22.345 -16.123  0.00  0.00    +0.043 C 
BRANCH   7   8
ATOM      8  C   UNL     1      37.533 -23.191 -15.624  0.00  0.00    -0.061 C 
BRANCH   8   9
ATOM      9  N   UNL     1      37.035 -24.254 -14.656  0.00  0.00    +0.386 N 
ATOM     10  C   UNL     1      35.633 -24.688 -15.057  0.00  0.00    -0.096 C 
ATOM     11  C   UNL     1      37.969 -25.455 -14.699  0.00  0.00    -0.096 C 
ATOM     12  C   UNL     1      37.006 -23.684 -13.246  0.00  0.00    -0.096 C 
ENDBRANCH   8   9
ENDBRANCH   7   8
ENDBRANCH   1   7
TORSDOF 6
ENDMDL
MODEL 6
REMARK VINA RESULT:      -5.2      1.755      2.159
REMARK  Name = 20689
REMARK  6 active torsions:
REMARK  status: ('A' for Active; 'I' for Inactive)
REMARK    1  A    between atoms: S_1  and  C_3
REMARK    2  A    between atoms: S_1  and  C_7
REMARK    3  A    between atoms: C_3  and  C_4
REMARK    4  A    between atoms: C_4  and  C_5
REMARK    5  A    between atoms: C_7  and  C_8
REMARK    6  A    between atoms: C_8  and  N_9
REMARK                            x       y       z     vdW  Elec       q    Type
REMARK                         _______ _______ _______ _____ _____    ______ ____
ROOT
ATOM      1  S   UNL     1      34.346 -17.963 -25.162  0.00  0.00    -0.079 S 
ENDROOT
BRANCH   1   3
ATOM      2  O   UNL     1      33.754 -15.650 -26.289  0.00  0.00    -0.285 OA
ATOM      3  C   UNL     1      34.095 -16.218 -25.260  0.00  0.00    +0.199 C 
BRANCH   3   4
ATOM      4  C   UNL     1      34.345 -15.516 -23.939  0.00  0.00    +0.076 C 
BRANCH   4   5
ATOM      5  C   UNL     1      33.262 -14.485 -23.627  0.00  0.00    +0.009 C 
ATOM      6  C   UNL     1      33.770 -13.066 -23.828  0.00  0.00    +0.000 C 
ENDBRANCH   4   5
ENDBRANCH   3   4
ENDBRANCH   1   3
BRANCH   1   7
ATOM      7  C   UNL     1      35.196 -18.075 -23.559  0.00  0.00    +0.043 C 
BRANCH   7   8
ATOM      8  C   UNL     1      34.898 -19.381 -22.841  0.00  0.00    -0.061 C 
BRANCH   8   9
ATOM      9  N   UNL     1      34.785 -19.147 -21.341  0.00  0.00    +0.386 N 
ATOM     10  C   UNL     1      33.389 -19.530 -20.872  0.00  0.00    -0.096 C 
ATOM     11  C   UNL     1      35.815 -20.003 -20.617  0.00  0.00    -0.096 C 
ATOM     12  C   UNL     1      35.039 -17.679 -21.036  0.00  0.00    -0.096 C 
ENDBRANCH   8   9
ENDBRANCH   7   8
ENDBRANCH   1   7
TORSDOF 6
ENDMDL
MODEL 7
REMARK VINA RESULT:      -5.0      8.121     10.377
REMARK  Name = 20689
REMARK  6 active torsions:
REMARK  status: ('A' for Active; 'I' for Inactive)
REMARK    1  A    between atoms: S_1  and  C_3
REMARK    2  A    between atoms: S_1  and  C_7
REMARK    3  A    between atoms: C_3  and  C_4
REMARK    4  A    between atoms: C_4  and  C_5
REMARK    5  A    between atoms: C_7  and  C_8
REMARK    6  A    between atoms: C_8  and  N_9
REMARK                            x       y       z     vdW  Elec       q    Type
REMARK                         _______ _______ _______ _____ _____    ______ ____
ROOT
ATOM      1  S   UNL     1      37.267 -22.264 -16.108  0.00  0.00    -0.079 S 
ENDROOT
BRANCH   1   3
ATOM      2  O   UNL     1      34.991 -22.859 -17.307  0.00  0.00    -0.285 OA
ATOM      3  C   UNL     1      36.062 -22.274 -17.399  0.00  0.00    +0.199 C 
BRANCH   3   4
ATOM      4  C   UNL     1      36.502 -21.483 -18.615  0.00  0.00    +0.076 C 
BRANCH   4   5
ATOM      5  C   UNL     1      35.414 -21.430 -19.686  0.00  0.00    +0.009 C 
ATOM      6  C   UNL     1      35.588 -20.226 -20.598  0.00  0.00    +0.000 C 
ENDBRANCH   4   5
ENDBRANCH   3   4
ENDBRANCH   1   3
BRANCH   1   7
ATOM      7  C   UNL     1      36.360 -23.171 -14.818  0.00  0.00    +0.043 C 
BRANCH   7   8
ATOM      8  C   UNL     1      37.294 -23.809 -13.803  0.00  0.00    -0.061 C 
BRANCH   8   9
ATOM      9  N   UNL     1      37.402 -25.307 -14.052  0.00  0.00    +0.386 N 
ATOM     10  C   UNL     1      36.311 -25.740 -15.020  0.00  0.00    -0.096 C 
ATOM     11  C   UNL     1      38.765 -25.623 -14.650  0.00  0.00    -0.096 C 
ATOM     12  C   UNL     1      37.239 -26.053 -12.737  0.00  0.00    -0.096 C 
ENDBRANCH   8   9
ENDBRANCH   7   8
ENDBRANCH   1   7
TORSDOF 6
ENDMDL
MODEL 8
REMARK VINA RESULT:      -5.0      6.957      9.190
REMARK  Name = 20689
REMARK  6 active torsions:
REMARK  status: ('A' for Active; 'I' for Inactive)
REMARK    1  A    between atoms: S_1  and  C_3
REMARK    2  A    between atoms: S_1  and  C_7
REMARK    3  A    between atoms: C_3  and  C_4
REMARK    4  A    between atoms: C_4  and  C_5
REMARK    5  A    between atoms: C_7  and  C_8
REMARK    6  A    between atoms: C_8  and  N_9
REMARK                            x       y       z     vdW  Elec       q    Type
REMARK                         _______ _______ _______ _____ _____    ______ ____
ROOT
ATOM      1  S   UNL     1      33.247 -23.190 -17.194  0.00  0.00    -0.079 S 
ENDROOT
BRANCH   1   3
ATOM      2  O   UNL     1      34.110 -23.767 -19.621  0.00  0.00    -0.285 OA
ATOM      3  C   UNL     1      33.658 -22.899 -18.886  0.00  0.00    +0.199 C 
BRANCH   3   4
ATOM      4  C   UNL     1      33.388 -21.471 -19.317  0.00  0.00    +0.076 C 
BRANCH   4   5
ATOM      5  C   UNL     1      34.598 -20.844 -20.007  0.00  0.00    +0.009 C 
ATOM      6  C   UNL     1      34.181 -19.761 -20.989  0.00  0.00    +0.000 C 
ENDBRANCH   4   5
ENDBRANCH   3   4
ENDBRANCH   1   3
BRANCH   1   7
ATOM      7  C   UNL     1      34.884 -22.989 -16.428  0.00  0.00    +0.043 C 
BRANCH   7   8
ATOM      8  C   UNL     1      35.020 -23.793 -15.146  0.00  0.00    -0.061 C 
BRANCH   8   9
ATOM      9  N   UNL     1      36.484 -23.911 -14.747  0.00  0.00    +0.386 N 
ATOM     10  C   UNL     1      36.937 -25.356 -14.901  0.00  0.00    -0.096 C 
ATOM     11  C   UNL     1      37.327 -23.017 -15.645  0.00  0.00    -0.096 C 
ATOM     12  C   UNL     1      36.652 -23.478 -13.299  0.00  0.00    -0.096 C 
ENDBRANCH   8   9
ENDBRANCH   7   8
ENDBRANCH   1   7
TORSDOF 6
ENDMDL
MODEL 9
REMARK VINA RESULT:      -5.0      2.697      5.122
REMARK  Name = 20689
REMARK  6 active torsions:
REMARK  status: ('A' for Active; 'I' for Inactive)
REMARK    1  A    between atoms: S_1  and  C_3
REMARK    2  A    between atoms: S_1  and  C_7
REMARK    3  A    between atoms: C_3  and  C_4
REMARK    4  A    between atoms: C_4  and  C_5
REMARK    5  A    between atoms: C_7  and  C_8
REMARK    6  A    between atoms: C_8  and  N_9
REMARK                            x       y       z     vdW  Elec       q    Type
REMARK                         _______ _______ _______ _____ _____    ______ ____
ROOT
ATOM      1  S   UNL     1      34.639 -17.024 -24.588  0.00  0.00    -0.079 S 
ENDROOT
BRANCH   1   3
ATOM      2  O   UNL     1      34.962 -19.627 -24.290  0.00  0.00    -0.285 OA
ATOM      3  C   UNL     1      34.921 -18.540 -23.728  0.00  0.00    +0.199 C 
BRANCH   3   4
ATOM      4  C   UNL     1      35.105 -18.342 -22.237  0.00  0.00    +0.076 C 
BRANCH   4   5
ATOM      5  C   UNL     1      34.113 -19.171 -21.424  0.00  0.00    +0.009 C 
ATOM      6  C   UNL     1      34.823 -20.209 -20.570  0.00  0.00    +0.000 C 
ENDBRANCH   4   5
ENDBRANCH   3   4
ENDBRANCH   1   3
BRANCH   1   7
ATOM      7  C   UNL     1      34.734 -15.849 -23.204  0.00  0.00    +0.043 C 
BRANCH   7   8
ATOM      8  C   UNL     1      33.421 -15.115 -22.984  0.00  0.00    -0.061 C 
BRANCH   8   9
ATOM      9  N   UNL     1      33.207 -14.847 -21.501  0.00  0.00    +0.386 N 
ATOM     10  C   UNL     1      34.553 -14.815 -20.792  0.00  0.00    -0.096 C 
ATOM     11  C   UNL     1      32.509 -13.505 -21.325  0.00  0.00    -0.096 C 
ATOM     12  C   UNL     1      32.345 -15.949 -20.905  0.00  0.00    -0.096 C 
ENDBRANCH   8   9
ENDBRANCH   7   8
ENDBRANCH   1   7
TORSDOF 6
ENDMDL
