MODEL 1
REMARK VINA RESULT:      -7.5      0.000      0.000
REMARK  Name = 17150
REMARK  3 active torsions:
REMARK  status: ('A' for Active; 'I' for Inactive)
REMARK    1  A    between atoms: C_6  and  O_22
REMARK    2  A    between atoms: C_9  and  O_24
REMARK    3  A    between atoms: C_20  and  C_27
REMARK                            x       y       z     vdW  Elec       q    Type
REMARK                         _______ _______ _______ _____ _____    ______ ____
ROOT
ATOM      1  O   UNL     1      34.808 -10.734 -26.836  0.00  0.00    -0.286 OA
ATOM      2  C   UNL     1      34.629 -17.436 -22.014  0.00  0.00    +0.025 C 
ATOM      3  C   UNL     1      34.701 -17.377 -23.553  0.00  0.00    +0.002 C 
ATOM      4  C   UNL     1      33.828 -16.264 -24.148  0.00  0.00    +0.003 C 
ATOM      5  C   UNL     1      34.291 -14.868 -23.591  0.00  0.00    +0.034 C 
ATOM      6  C   UNL     1      35.481 -18.713 -21.734  0.00  0.00    +0.088 C 
ATOM      7  C   UNL     1      35.178 -16.108 -21.483  0.00  0.00    +0.031 C 
ATOM      8  C   UNL     1      34.427 -18.817 -23.977  0.00  0.00    +0.002 C 
ATOM      9  C   UNL     1      34.414 -14.885 -22.033  0.00  0.00    +0.111 C 
ATOM     10  C   UNL     1      33.411 -13.694 -24.203  0.00  0.00    +0.036 C 
ATOM     11  C   UNL     1      35.052 -19.680 -22.867  0.00  0.00    +0.027 C 
ATOM     12  C   UNL     1      33.873 -16.291 -25.683  0.00  0.00    +0.004 C 
ATOM     13  C   UNL     1      33.190 -17.639 -21.462  0.00  0.00    +0.002 C 
ATOM     14  C   UNL     1      33.033 -15.173 -26.291  0.00  0.00    +0.022 C 
ATOM     15  C   UNL     1      33.455 -13.840 -25.730  0.00  0.00    -0.038 C 
ATOM     16  C   UNL     1      37.002 -18.508 -21.745  0.00  0.00    +0.029 C 
ATOM     17  C   UNL     1      31.940 -13.759 -23.728  0.00  0.00    +0.009 C 
ATOM     18  C   UNL     1      33.909 -12.318 -23.776  0.00  0.00    -0.016 C 
ATOM     19  C   UNL     1      33.901 -12.884 -26.559  0.00  0.00    +0.034 C 
ATOM     20  C   UNL     1      34.357 -11.359 -24.597  0.00  0.00    +0.077 C 
ATOM     21  C   UNL     1      34.392 -11.586 -26.058  0.00  0.00    +0.198 C 
ENDROOT
BRANCH   6  22
ATOM     22  O   UNL     1      35.155 -19.278 -20.466  0.00  0.00    -0.387 OA
ATOM     23  H   UNL     1      35.831 -19.027 -19.816  0.00  0.00    +0.210 HD
ENDBRANCH   6  22
BRANCH   9  24
ATOM     24  O   UNL     1      35.136 -13.736 -21.586  0.00  0.00    -0.384 OA
ATOM     25  H   UNL     1      35.942 -13.636 -22.115  0.00  0.00    +0.210 HD
ENDBRANCH   9  24
BRANCH  20  27
ATOM     26  O   UNL     1      33.977  -9.244 -23.617  0.00  0.00    -0.283 OA
ATOM     27  C   UNL     1      34.777 -10.093 -23.988  0.00  0.00    +0.237 C 
ENDBRANCH  20  27
TORSDOF 3
ENDMDL
MODEL 2
REMARK VINA RESULT:      -6.7      2.665      7.807
REMARK  Name = 17150
REMARK  3 active torsions:
REMARK  status: ('A' for Active; 'I' for Inactive)
REMARK    1  A    between atoms: C_6  and  O_22
REMARK    2  A    between atoms: C_9  and  O_24
REMARK    3  A    between atoms: C_20  and  C_27
REMARK                            x       y       z     vdW  Elec       q    Type
REMARK                         _______ _______ _______ _____ _____    ______ ____
ROOT
ATOM      1  O   UNL     1      34.494 -16.252 -20.732  0.00  0.00    -0.286 OA
ATOM      2  C   UNL     1      32.990  -8.670 -23.642  0.00  0.00    +0.025 C 
ATOM      3  C   UNL     1      32.846  -9.176 -22.193  0.00  0.00    +0.002 C 
ATOM      4  C   UNL     1      32.278 -10.599 -22.111  0.00  0.00    +0.003 C 
ATOM      5  C   UNL     1      33.225 -11.596 -22.875  0.00  0.00    +0.034 C 
ATOM      6  C   UNL     1      33.441  -7.197 -23.390  0.00  0.00    +0.088 C 
ATOM      7  C   UNL     1      33.993  -9.590 -24.344  0.00  0.00    +0.031 C 
ATOM      8  C   UNL     1      32.083  -8.052 -21.498  0.00  0.00    +0.002 C 
ATOM      9  C   UNL     1      33.568 -11.074 -24.308  0.00  0.00    +0.111 C 
ATOM     10  C   UNL     1      32.667 -13.082 -22.795  0.00  0.00    +0.036 C 
ATOM     11  C   UNL     1      32.571  -6.763 -22.183  0.00  0.00    +0.027 C 
ATOM     12  C   UNL     1      32.082 -11.031 -20.650  0.00  0.00    +0.004 C 
ATOM     13  C   UNL     1      31.658  -8.678 -24.443  0.00  0.00    +0.002 C 
ATOM     14  C   UNL     1      31.545 -12.454 -20.551  0.00  0.00    +0.022 C 
ATOM     15  C   UNL     1      32.434 -13.402 -21.313  0.00  0.00    -0.038 C 
ATOM     16  C   UNL     1      34.931  -7.007 -23.080  0.00  0.00    +0.029 C 
ATOM     17  C   UNL     1      31.336 -13.247 -23.566  0.00  0.00    +0.009 C 
ATOM     18  C   UNL     1      33.622 -14.090 -23.424  0.00  0.00    -0.016 C 
ATOM     19  C   UNL     1      33.023 -14.421 -20.667  0.00  0.00    +0.034 C 
ATOM     20  C   UNL     1      34.214 -15.109 -22.787  0.00  0.00    +0.077 C 
ATOM     21  C   UNL     1      33.959 -15.337 -21.349  0.00  0.00    +0.198 C 
ENDROOT
BRANCH   6  22
ATOM     22  O   UNL     1      33.150  -6.374 -24.518  0.00  0.00    -0.387 OA
ATOM     23  H   UNL     1      33.684  -6.663 -25.275  0.00  0.00    +0.210 HD
ENDBRANCH   6  22
BRANCH   9  24
ATOM     24  O   UNL     1      34.667 -11.811 -24.848  0.00  0.00    -0.384 OA
ATOM     25  H   UNL     1      34.354 -12.676 -25.156  0.00  0.00    +0.210 HD
ENDBRANCH   9  24
BRANCH  20  27
ATOM     26  O   UNL     1      34.785 -16.379 -24.694  0.00  0.00    -0.283 OA
ATOM     27  C   UNL     1      35.089 -15.981 -23.578  0.00  0.00    +0.237 C 
ENDBRANCH  20  27
TORSDOF 3
ENDMDL
MODEL 3
REMARK VINA RESULT:      -6.2     11.473     13.987
REMARK  Name = 17150
REMARK  3 active torsions:
REMARK  status: ('A' for Active; 'I' for Inactive)
REMARK    1  A    between atoms: C_6  and  O_22
REMARK    2  A    between atoms: C_9  and  O_24
REMARK    3  A    between atoms: C_20  and  C_27
REMARK                            x       y       z     vdW  Elec       q    Type
REMARK                         _______ _______ _______ _____ _____    ______ ____
ROOT
ATOM      1  O   UNL     1      39.564 -25.907 -14.969  0.00  0.00    -0.286 OA
ATOM      2  C   UNL     1      31.687 -23.435 -14.755  0.00  0.00    +0.025 C 
ATOM      3  C   UNL     1      32.635 -23.477 -15.970  0.00  0.00    +0.002 C 
ATOM      4  C   UNL     1      34.068 -23.054 -15.622  0.00  0.00    +0.003 C 
ATOM      5  C   UNL     1      34.655 -24.012 -14.522  0.00  0.00    +0.034 C 
ATOM      6  C   UNL     1      30.325 -23.769 -15.440  0.00  0.00    +0.088 C 
ATOM      7  C   UNL     1      32.214 -24.448 -13.734  0.00  0.00    +0.031 C 
ATOM      8  C   UNL     1      31.884 -22.682 -17.034  0.00  0.00    +0.002 C 
ATOM      9  C   UNL     1      33.673 -24.168 -13.316  0.00  0.00    +0.111 C 
ATOM     10  C   UNL     1      36.147 -23.605 -14.153  0.00  0.00    +0.036 C 
ATOM     11  C   UNL     1      30.398 -22.981 -16.773  0.00  0.00    +0.027 C 
ATOM     12  C   UNL     1      34.957 -23.039 -16.875  0.00  0.00    +0.004 C 
ATOM     13  C   UNL     1      31.600 -22.039 -14.076  0.00  0.00    +0.002 C 
ATOM     14  C   UNL     1      36.393 -22.648 -16.543  0.00  0.00    +0.022 C 
ATOM     15  C   UNL     1      36.941 -23.545 -15.464  0.00  0.00    -0.038 C 
ATOM     16  C   UNL     1      30.066 -25.257 -15.705  0.00  0.00    +0.029 C 
ATOM     17  C   UNL     1      36.218 -22.228 -13.451  0.00  0.00    +0.009 C 
ATOM     18  C   UNL     1      36.786 -24.585 -13.176  0.00  0.00    -0.016 C 
ATOM     19  C   UNL     1      38.034 -24.285 -15.710  0.00  0.00    +0.034 C 
ATOM     20  C   UNL     1      37.875 -25.327 -13.413  0.00  0.00    +0.077 C 
ATOM     21  C   UNL     1      38.572 -25.232 -14.714  0.00  0.00    +0.198 C 
ENDROOT
BRANCH   6  22
ATOM     22  O   UNL     1      29.230 -23.297 -14.658  0.00  0.00    -0.387 OA
ATOM     23  H   UNL     1      28.576 -22.875 -15.237  0.00  0.00    +0.210 HD
ENDBRANCH   6  22
BRANCH   9  24
ATOM     24  O   UNL     1      34.069 -25.274 -12.502  0.00  0.00    -0.384 OA
ATOM     25  H   UNL     1      33.633 -26.080 -12.819  0.00  0.00    +0.210 HD
ENDBRANCH   9  24
BRANCH  20  27
ATOM     26  O   UNL     1      37.579 -26.837 -11.622  0.00  0.00    -0.283 OA
ATOM     27  C   UNL     1      38.345 -26.200 -12.332  0.00  0.00    +0.237 C 
ENDBRANCH  20  27
TORSDOF 3
ENDMDL
MODEL 4
REMARK VINA RESULT:      -5.6      8.018     12.048
REMARK  Name = 17150
REMARK  3 active torsions:
REMARK  status: ('A' for Active; 'I' for Inactive)
REMARK    1  A    between atoms: C_6  and  O_22
REMARK    2  A    between atoms: C_9  and  O_24
REMARK    3  A    between atoms: C_20  and  C_27
REMARK                            x       y       z     vdW  Elec       q    Type
REMARK                         _______ _______ _______ _____ _____    ______ ____
ROOT
ATOM      1  O   UNL     1      31.666  -5.980 -20.043  0.00  0.00    -0.286 OA
ATOM      2  C   UNL     1      34.052  -4.065 -27.714  0.00  0.00    +0.025 C 
ATOM      3  C   UNL     1      33.323  -3.166 -26.695  0.00  0.00    +0.002 C 
ATOM      4  C   UNL     1      32.258  -3.921 -25.889  0.00  0.00    +0.003 C 
ATOM      5  C   UNL     1      32.927  -5.102 -25.095  0.00  0.00    +0.034 C 
ATOM      6  C   UNL     1      34.939  -3.010 -28.446  0.00  0.00    +0.088 C 
ATOM      7  C   UNL     1      34.783  -5.150 -26.918  0.00  0.00    +0.031 C 
ATOM      8  C   UNL     1      32.884  -1.967 -27.530  0.00  0.00    +0.002 C 
ATOM      9  C   UNL     1      33.833  -5.974 -26.023  0.00  0.00    +0.111 C 
ATOM     10  C   UNL     1      31.847  -5.893 -24.238  0.00  0.00    +0.036 C 
ATOM     11  C   UNL     1      33.998  -1.785 -28.575  0.00  0.00    +0.027 C 
ATOM     12  C   UNL     1      31.508  -2.971 -24.942  0.00  0.00    +0.004 C 
ATOM     13  C   UNL     1      33.102  -4.748 -28.738  0.00  0.00    +0.002 C 
ATOM     14  C   UNL     1      30.465  -3.711 -24.112  0.00  0.00    +0.022 C 
ATOM     15  C   UNL     1      31.102  -4.863 -23.380  0.00  0.00    -0.038 C 
ATOM     16  C   UNL     1      36.236  -2.622 -27.725  0.00  0.00    +0.029 C 
ATOM     17  C   UNL     1      30.830  -6.642 -25.132  0.00  0.00    +0.009 C 
ATOM     18  C   UNL     1      32.481  -6.970 -23.365  0.00  0.00    -0.016 C 
ATOM     19  C   UNL     1      31.050  -4.905 -22.040  0.00  0.00    +0.034 C 
ATOM     20  C   UNL     1      32.435  -7.019 -22.027  0.00  0.00    +0.077 C 
ATOM     21  C   UNL     1      31.717  -5.973 -21.268  0.00  0.00    +0.198 C 
ENDROOT
BRANCH   6  22
ATOM     22  O   UNL     1      35.315  -3.470 -29.743  0.00  0.00    -0.387 OA
ATOM     23  H   UNL     1      36.122  -3.012 -30.027  0.00  0.00    +0.210 HD
ENDBRANCH   6  22
BRANCH   9  24
ATOM     24  O   UNL     1      34.672  -6.821 -25.234  0.00  0.00    -0.384 OA
ATOM     25  H   UNL     1      34.247  -7.686 -25.126  0.00  0.00    +0.210 HD
ENDBRANCH   9  24
BRANCH  20  27
ATOM     26  O   UNL     1      32.472  -9.079 -20.872  0.00  0.00    -0.283 OA
ATOM     27  C   UNL     1      33.096  -8.152 -21.371  0.00  0.00    +0.237 C 
ENDBRANCH  20  27
TORSDOF 3
ENDMDL
MODEL 5
REMARK VINA RESULT:      -5.6      6.785     10.366
REMARK  Name = 17150
REMARK  3 active torsions:
REMARK  status: ('A' for Active; 'I' for Inactive)
REMARK    1  A    between atoms: C_6  and  O_22
REMARK    2  A    between atoms: C_9  and  O_24
REMARK    3  A    between atoms: C_20  and  C_27
REMARK                            x       y       z     vdW  Elec       q    Type
REMARK                         _______ _______ _______ _____ _____    ______ ____
ROOT
ATOM      1  O   UNL     1      35.409 -18.722 -20.866  0.00  0.00    -0.286 OA
ATOM      2  C   UNL     1      33.255 -23.983 -14.876  0.00  0.00    +0.025 C 
ATOM      3  C   UNL     1      34.574 -23.198 -15.020  0.00  0.00    +0.002 C 
ATOM      4  C   UNL     1      35.066 -23.119 -16.471  0.00  0.00    +0.003 C 
ATOM      5  C   UNL     1      33.984 -22.406 -17.362  0.00  0.00    +0.034 C 
ATOM      6  C   UNL     1      33.101 -24.006 -13.323  0.00  0.00    +0.088 C 
ATOM      7  C   UNL     1      32.187 -23.222 -15.666  0.00  0.00    +0.031 C 
ATOM      8  C   UNL     1      35.487 -23.843 -13.981  0.00  0.00    +0.002 C 
ATOM      9  C   UNL     1      32.566 -23.030 -17.150  0.00  0.00    +0.111 C 
ATOM     10  C   UNL     1      34.473 -22.297 -18.871  0.00  0.00    +0.036 C 
ATOM     11  C   UNL     1      34.550 -24.242 -12.827  0.00  0.00    +0.027 C 
ATOM     12  C   UNL     1      36.417 -22.394 -16.556  0.00  0.00    +0.004 C 
ATOM     13  C   UNL     1      33.332 -25.440 -15.413  0.00  0.00    +0.002 C 
ATOM     14  C   UNL     1      36.907 -22.281 -17.995  0.00  0.00    +0.022 C 
ATOM     15  C   UNL     1      35.854 -21.630 -18.854  0.00  0.00    -0.038 C 
ATOM     16  C   UNL     1      32.516 -22.733 -12.698  0.00  0.00    +0.029 C 
ATOM     17  C   UNL     1      34.586 -23.684 -19.548  0.00  0.00    +0.009 C 
ATOM     18  C   UNL     1      33.499 -21.507 -19.737  0.00  0.00    -0.016 C 
ATOM     19  C   UNL     1      36.140 -20.488 -19.500  0.00  0.00    +0.034 C 
ATOM     20  C   UNL     1      33.776 -20.367 -20.383  0.00  0.00    +0.077 C 
ATOM     21  C   UNL     1      35.126 -19.771 -20.297  0.00  0.00    +0.198 C 
ENDROOT
BRANCH   6  22
ATOM     22  O   UNL     1      32.265 -25.085 -12.908  0.00  0.00    -0.387 OA
ATOM     23  H   UNL     1      31.501 -24.735 -12.424  0.00  0.00    +0.210 HD
ENDBRANCH   6  22
BRANCH   9  24
ATOM     24  O   UNL     1      31.566 -22.175 -17.705  0.00  0.00    -0.384 OA
ATOM     25  H   UNL     1      31.916 -21.741 -18.498  0.00  0.00    +0.210 HD
ENDBRANCH   9  24
BRANCH  20  27
ATOM     26  O   UNL     1      31.988 -18.869 -20.757  0.00  0.00    -0.283 OA
ATOM     27  C   UNL     1      32.701 -19.768 -21.182  0.00  0.00    +0.237 C 
ENDBRANCH  20  27
TORSDOF 3
ENDMDL
MODEL 6
REMARK VINA RESULT:      -5.6      3.333      6.287
REMARK  Name = 17150
REMARK  3 active torsions:
REMARK  status: ('A' for Active; 'I' for Inactive)
REMARK    1  A    between atoms: C_6  and  O_22
REMARK    2  A    between atoms: C_9  and  O_24
REMARK    3  A    between atoms: C_20  and  C_27
REMARK                            x       y       z     vdW  Elec       q    Type
REMARK                         _______ _______ _______ _____ _____    ______ ____
ROOT
ATOM      1  O   UNL     1      31.427  -4.630 -25.134  0.00  0.00    -0.286 OA
ATOM      2  C   UNL     1      33.795 -12.425 -23.777  0.00  0.00    +0.025 C 
ATOM      3  C   UNL     1      32.468 -11.752 -23.372  0.00  0.00    +0.002 C 
ATOM      4  C   UNL     1      32.654 -10.308 -22.891  0.00  0.00    +0.003 C 
ATOM      5  C   UNL     1      33.300  -9.443 -24.035  0.00  0.00    +0.034 C 
ATOM      6  C   UNL     1      33.305 -13.877 -24.073  0.00  0.00    +0.088 C 
ATOM      7  C   UNL     1      34.362 -11.632 -24.959  0.00  0.00    +0.031 C 
ATOM      8  C   UNL     1      31.837 -12.759 -22.414  0.00  0.00    +0.002 C 
ATOM      9  C   UNL     1      34.568 -10.138 -24.630  0.00  0.00    +0.111 C 
ATOM     10  C   UNL     1      33.491  -7.936 -23.568  0.00  0.00    +0.036 C 
ATOM     11  C   UNL     1      32.269 -14.135 -22.949  0.00  0.00    +0.027 C 
ATOM     12  C   UNL     1      31.318  -9.704 -22.429  0.00  0.00    +0.004 C 
ATOM     13  C   UNL     1      34.854 -12.454 -22.639  0.00  0.00    +0.002 C 
ATOM     14  C   UNL     1      31.480  -8.259 -21.974  0.00  0.00    +0.022 C 
ATOM     15  C   UNL     1      32.132  -7.441 -23.059  0.00  0.00    -0.038 C 
ATOM     16  C   UNL     1      32.670 -14.091 -25.453  0.00  0.00    +0.029 C 
ATOM     17  C   UNL     1      34.537  -7.805 -22.436  0.00  0.00    +0.009 C 
ATOM     18  C   UNL     1      34.006  -7.045 -24.693  0.00  0.00    -0.016 C 
ATOM     19  C   UNL     1      31.485  -6.380 -23.567  0.00  0.00    +0.034 C 
ATOM     20  C   UNL     1      33.367  -5.986 -25.207  0.00  0.00    +0.077 C 
ATOM     21  C   UNL     1      32.045  -5.586 -24.678  0.00  0.00    +0.198 C 
ENDROOT
BRANCH   6  22
ATOM     22  O   UNL     1      34.378 -14.810 -23.967  0.00  0.00    -0.387 OA
ATOM     23  H   UNL     1      35.181 -14.424 -24.351  0.00  0.00    +0.210 HD
ENDBRANCH   6  22
BRANCH   9  24
ATOM     24  O   UNL     1      34.938  -9.512 -25.860  0.00  0.00    -0.384 OA
ATOM     25  H   UNL     1      35.146  -8.579 -25.697  0.00  0.00    +0.210 HD
ENDBRANCH   9  24
BRANCH  20  27
ATOM     26  O   UNL     1      35.200  -5.471 -26.604  0.00  0.00    -0.283 OA
ATOM     27  C   UNL     1      34.042  -5.246 -26.278  0.00  0.00    +0.237 C 
ENDBRANCH  20  27
TORSDOF 3
ENDMDL
MODEL 7
REMARK VINA RESULT:      -5.5      3.924      9.259
REMARK  Name = 17150
REMARK  3 active torsions:
REMARK  status: ('A' for Active; 'I' for Inactive)
REMARK    1  A    between atoms: C_6  and  O_22
REMARK    2  A    between atoms: C_9  and  O_24
REMARK    3  A    between atoms: C_20  and  C_27
REMARK                            x       y       z     vdW  Elec       q    Type
REMARK                         _______ _______ _______ _____ _____    ______ ____
ROOT
ATOM      1  O   UNL     1      34.623 -23.157 -15.564  0.00  0.00    -0.286 OA
ATOM      2  C   UNL     1      35.362 -17.952 -21.933  0.00  0.00    +0.025 C 
ATOM      3  C   UNL     1      34.067 -18.482 -21.286  0.00  0.00    +0.002 C 
ATOM      4  C   UNL     1      34.161 -19.960 -20.887  0.00  0.00    +0.003 C 
ATOM      5  C   UNL     1      35.329 -20.160 -19.853  0.00  0.00    +0.034 C 
ATOM      6  C   UNL     1      34.913 -16.514 -22.341  0.00  0.00    +0.088 C 
ATOM      7  C   UNL     1      36.469 -18.058 -20.880  0.00  0.00    +0.031 C 
ATOM      8  C   UNL     1      32.981 -18.067 -22.275  0.00  0.00    +0.002 C 
ATOM      9  C   UNL     1      36.654 -19.497 -20.352  0.00  0.00    +0.111 C 
ATOM     10  C   UNL     1      35.441 -21.682 -19.410  0.00  0.00    +0.036 C 
ATOM     11  C   UNL     1      33.467 -16.728 -22.855  0.00  0.00    +0.027 C 
ATOM     12  C   UNL     1      32.826 -20.463 -20.317  0.00  0.00    +0.004 C 
ATOM     13  C   UNL     1      35.798 -18.741 -23.199  0.00  0.00    +0.002 C 
ATOM     14  C   UNL     1      32.911 -21.923 -19.888  0.00  0.00    +0.022 C 
ATOM     15  C   UNL     1      34.053 -22.118 -18.925  0.00  0.00    -0.038 C 
ATOM     16  C   UNL     1      34.940 -15.470 -21.218  0.00  0.00    +0.029 C 
ATOM     17  C   UNL     1      35.883 -22.597 -20.577  0.00  0.00    +0.009 C 
ATOM     18  C   UNL     1      36.487 -21.890 -18.320  0.00  0.00    -0.016 C 
ATOM     19  C   UNL     1      33.807 -22.591 -17.693  0.00  0.00    +0.034 C 
ATOM     20  C   UNL     1      36.249 -22.360 -17.089  0.00  0.00    +0.077 C 
ATOM     21  C   UNL     1      34.877 -22.736 -16.687  0.00  0.00    +0.198 C 
ENDROOT
BRANCH   6  22
ATOM     22  O   UNL     1      35.730 -16.003 -23.393  0.00  0.00    -0.387 OA
ATOM     23  H   UNL     1      36.659 -16.221 -23.216  0.00  0.00    +0.210 HD
ENDBRANCH   6  22
BRANCH   9  24
ATOM     24  O   UNL     1      37.591 -19.404 -19.278  0.00  0.00    -0.384 OA
ATOM     25  H   UNL     1      37.325 -20.005 -18.564  0.00  0.00    +0.210 HD
ENDBRANCH   9  24
BRANCH  20  27
ATOM     26  O   UNL     1      37.695 -23.569 -15.665  0.00  0.00    -0.283 OA
ATOM     27  C   UNL     1      37.399 -22.503 -16.189  0.00  0.00    +0.237 C 
ENDBRANCH  20  27
TORSDOF 3
ENDMDL
MODEL 8
REMARK VINA RESULT:      -5.1      5.505     10.771
REMARK  Name = 17150
REMARK  3 active torsions:
REMARK  status: ('A' for Active; 'I' for Inactive)
REMARK    1  A    between atoms: C_6  and  O_22
REMARK    2  A    between atoms: C_9  and  O_24
REMARK    3  A    between atoms: C_20  and  C_27
REMARK                            x       y       z     vdW  Elec       q    Type
REMARK                         _______ _______ _______ _____ _____    ______ ____
ROOT
ATOM      1  O   UNL     1      33.019 -12.102 -23.655  0.00  0.00    -0.286 OA
ATOM      2  C   UNL     1      31.497  -4.007 -24.241  0.00  0.00    +0.025 C 
ATOM      3  C   UNL     1      32.453  -4.857 -25.102  0.00  0.00    +0.002 C 
ATOM      4  C   UNL     1      33.212  -5.911 -24.286  0.00  0.00    +0.003 C 
ATOM      5  C   UNL     1      32.191  -6.888 -23.595  0.00  0.00    +0.034 C 
ATOM      6  C   UNL     1      31.000  -2.971 -25.298  0.00  0.00    +0.088 C 
ATOM      7  C   UNL     1      30.448  -4.957 -23.657  0.00  0.00    +0.031 C 
ATOM      8  C   UNL     1      33.262  -3.815 -25.869  0.00  0.00    +0.002 C 
ATOM      9  C   UNL     1      31.074  -6.103 -22.834  0.00  0.00    +0.111 C 
ATOM     10  C   UNL     1      32.952  -8.001 -22.753  0.00  0.00    +0.036 C 
ATOM     11  C   UNL     1      32.281  -2.655 -26.112  0.00  0.00    +0.027 C 
ATOM     12  C   UNL     1      34.204  -6.682 -25.170  0.00  0.00    +0.004 C 
ATOM     13  C   UNL     1      32.203  -3.261 -23.073  0.00  0.00    +0.002 C 
ATOM     14  C   UNL     1      34.947  -7.754 -24.380  0.00  0.00    +0.022 C 
ATOM     15  C   UNL     1      33.967  -8.667 -23.691  0.00  0.00    -0.038 C 
ATOM     16  C   UNL     1      29.878  -3.459 -26.223  0.00  0.00    +0.029 C 
ATOM     17  C   UNL     1      33.698  -7.403 -21.537  0.00  0.00    +0.009 C 
ATOM     18  C   UNL     1      31.996  -9.034 -22.167  0.00  0.00    -0.016 C 
ATOM     19  C   UNL     1      33.978  -9.980 -23.967  0.00  0.00    +0.034 C 
ATOM     20  C   UNL     1      32.000 -10.345 -22.438  0.00  0.00    +0.077 C 
ATOM     21  C   UNL     1      32.996 -10.909 -23.375  0.00  0.00    +0.198 C 
ENDROOT
BRANCH   6  22
ATOM     22  O   UNL     1      30.522  -1.786 -24.666  0.00  0.00    -0.387 OA
ATOM     23  H   UNL     1      31.264  -1.178 -24.515  0.00  0.00    +0.210 HD
ENDBRANCH   6  22
BRANCH   9  24
ATOM     24  O   UNL     1      29.998  -6.982 -22.500  0.00  0.00    -0.384 OA
ATOM     25  H   UNL     1      29.175  -6.473 -22.431  0.00  0.00    +0.210 HD
ENDBRANCH   9  24
BRANCH  20  27
ATOM     26  O   UNL     1      30.810 -11.113 -20.548  0.00  0.00    -0.283 OA
ATOM     27  C   UNL     1      31.004 -11.178 -21.755  0.00  0.00    +0.237 C 
ENDBRANCH  20  27
TORSDOF 3
ENDMDL
MODEL 9
REMARK VINA RESULT:      -4.9      8.869     12.296
REMARK  Name = 17150
REMARK  3 active torsions:
REMARK  status: ('A' for Active; 'I' for Inactive)
REMARK    1  A    between atoms: C_6  and  O_22
REMARK    2  A    between atoms: C_9  and  O_24
REMARK    3  A    between atoms: C_20  and  C_27
REMARK                            x       y       z     vdW  Elec       q    Type
REMARK                         _______ _______ _______ _____ _____    ______ ____
ROOT
ATOM      1  O   UNL     1      38.075 -20.849 -16.344  0.00  0.00    -0.286 OA
ATOM      2  C   UNL     1      30.429 -23.862 -15.526  0.00  0.00    +0.025 C 
ATOM      3  C   UNL     1      31.411 -23.450 -14.411  0.00  0.00    +0.002 C 
ATOM      4  C   UNL     1      32.861 -23.841 -14.719  0.00  0.00    +0.003 C 
ATOM      5  C   UNL     1      33.330 -23.147 -16.050  0.00  0.00    +0.034 C 
ATOM      6  C   UNL     1      29.068 -23.467 -14.873  0.00  0.00    +0.088 C 
ATOM      7  C   UNL     1      30.836 -23.099 -16.791  0.00  0.00    +0.031 C 
ATOM      8  C   UNL     1      30.764 -24.007 -13.146  0.00  0.00    +0.002 C 
ATOM      9  C   UNL     1      32.299 -23.368 -17.204  0.00  0.00    +0.111 C 
ATOM     10  C   UNL     1      34.837 -23.524 -16.387  0.00  0.00    +0.036 C 
ATOM     11  C   UNL     1      29.250 -23.891 -13.393  0.00  0.00    +0.027 C 
ATOM     12  C   UNL     1      33.790 -23.479 -13.550  0.00  0.00    +0.004 C 
ATOM     13  C   UNL     1      30.437 -25.385 -15.836  0.00  0.00    +0.002 C 
ATOM     14  C   UNL     1      35.241 -23.835 -13.852  0.00  0.00    +0.022 C 
ATOM     15  C   UNL     1      35.676 -23.197 -15.145  0.00  0.00    -0.038 C 
ATOM     16  C   UNL     1      28.695 -21.983 -14.969  0.00  0.00    +0.029 C 
ATOM     17  C   UNL     1      34.999 -25.023 -16.731  0.00  0.00    +0.009 C 
ATOM     18  C   UNL     1      35.359 -22.774 -17.607  0.00  0.00    -0.016 C 
ATOM     19  C   UNL     1      36.711 -22.343 -15.147  0.00  0.00    +0.034 C 
ATOM     20  C   UNL     1      36.390 -21.919 -17.617  0.00  0.00    +0.077 C 
ATOM     21  C   UNL     1      37.135 -21.636 -16.372  0.00  0.00    +0.198 C 
ENDROOT
BRANCH   6  22
ATOM     22  O   UNL     1      27.990 -24.197 -15.457  0.00  0.00    -0.387 OA
ATOM     23  H   UNL     1      28.324 -25.035 -15.816  0.00  0.00    +0.210 HD
ENDBRANCH   6  22
BRANCH   9  24
ATOM     24  O   UNL     1      32.573 -22.474 -18.285  0.00  0.00    -0.384 OA
ATOM     25  H   UNL     1      32.588 -21.563 -17.954  0.00  0.00    +0.210 HD
ENDBRANCH   9  24
BRANCH  20  27
ATOM     26  O   UNL     1      36.009 -20.535 -19.493  0.00  0.00    -0.283 OA
ATOM     27  C   UNL     1      36.749 -21.311 -18.903  0.00  0.00    +0.237 C 
ENDBRANCH  20  27
TORSDOF 3
ENDMDL
