MODEL 1
REMARK VINA RESULT:      -8.7      0.000      0.000
REMARK  Name = 54723704
REMARK  6 active torsions:
REMARK  status: ('A' for Active; 'I' for Inactive)
REMARK    1  A    between atoms: C_3  and  C_14
REMARK    2  A    between atoms: C_4  and  O_12
REMARK    3  A    between atoms: C_14  and  C_15
REMARK    4  A    between atoms: C_14  and  C_21
REMARK    5  A    between atoms: C_21  and  C_22
REMARK    6  A    between atoms: C_22  and  O_24
REMARK                            x       y       z     vdW  Elec       q    Type
REMARK                         _______ _______ _______ _____ _____    ______ ____
ROOT
ATOM      1  O   UNL     1      36.554 -20.201 -20.336  0.00  0.00    -0.421 OA
ATOM      2  O   UNL     1      37.352 -18.569 -21.705  0.00  0.00    -0.245 OA
ATOM      3  C   UNL     1      34.983 -18.763 -21.572  0.00  0.00    +0.091 A 
ATOM      4  C   UNL     1      33.942 -19.417 -21.024  0.00  0.00    +0.139 A 
ATOM      5  C   UNL     1      36.382 -19.150 -21.227  0.00  0.00    +0.345 A 
ATOM      6  C   UNL     1      34.158 -20.522 -20.086  0.00  0.00    +0.068 A 
ATOM      7  C   UNL     1      35.462 -20.883 -19.769  0.00  0.00    +0.152 A 
ATOM      8  C   UNL     1      33.115 -21.242 -19.485  0.00  0.00    +0.006 C 
ATOM      9  C   UNL     1      35.755 -21.923 -18.887  0.00  0.00    +0.038 C 
ATOM     10  C   UNL     1      33.391 -22.288 -18.598  0.00  0.00    +0.000 C 
ATOM     11  C   UNL     1      34.711 -22.628 -18.299  0.00  0.00    +0.003 C 
ENDROOT
BRANCH   4  12
ATOM     12  O   UNL     1      32.617 -19.130 -21.273  0.00  0.00    -0.506 OA
ATOM     13  H   UNL     1      32.119 -19.679 -21.846  0.00  0.00    +0.292 HD
ENDBRANCH   4  12
BRANCH   3  14
ATOM     14  C   UNL     1      34.884 -17.625 -22.551  0.00  0.00    +0.056 C 
BRANCH  14  15
ATOM     15  C   UNL     1      34.246 -16.410 -21.903  0.00  0.00    -0.018 C 
ATOM     16  C   UNL     1      33.141 -15.801 -22.499  0.00  0.00    -0.004 C 
ATOM     17  C   UNL     1      34.764 -15.902 -20.711  0.00  0.00    -0.004 C 
ATOM     18  C   UNL     1      32.554 -14.684 -21.902  0.00  0.00    -0.000 C 
ATOM     19  C   UNL     1      34.177 -14.786 -20.115  0.00  0.00    -0.000 C 
ATOM     20  C   UNL     1      33.073 -14.177 -20.711  0.00  0.00    -0.000 C 
ENDBRANCH  14  15
BRANCH  14  21
ATOM     21  C   UNL     1      34.160 -18.082 -23.840  0.00  0.00    +0.038 C 
BRANCH  21  22
ATOM     22  C   UNL     1      34.665 -17.389 -25.115  0.00  0.00    +0.111 C 
ATOM     23  C   UNL     1      33.521 -16.714 -25.861  0.00  0.00    +0.032 C 
BRANCH  22  24
ATOM     24  O   UNL     1      35.628 -16.401 -24.761  0.00  0.00    -0.384 OA
ATOM     25  H   UNL     1      35.978 -15.987 -25.565  0.00  0.00    +0.210 HD
ENDBRANCH  22  24
ENDBRANCH  21  22
ENDBRANCH  14  21
ENDBRANCH   3  14
TORSDOF 6
ENDMDL
MODEL 2
REMARK VINA RESULT:      -8.4      3.942      6.679
REMARK  Name = 54723704
REMARK  6 active torsions:
REMARK  status: ('A' for Active; 'I' for Inactive)
REMARK    1  A    between atoms: C_3  and  C_14
REMARK    2  A    between atoms: C_4  and  O_12
REMARK    3  A    between atoms: C_14  and  C_15
REMARK    4  A    between atoms: C_14  and  C_21
REMARK    5  A    between atoms: C_21  and  C_22
REMARK    6  A    between atoms: C_22  and  O_24
REMARK                            x       y       z     vdW  Elec       q    Type
REMARK                         _______ _______ _______ _____ _____    ______ ____
ROOT
ATOM      1  O   UNL     1      33.400 -16.006 -25.748  0.00  0.00    -0.421 OA
ATOM      2  O   UNL     1      32.329 -14.110 -26.406  0.00  0.00    -0.245 OA
ATOM      3  C   UNL     1      33.439 -14.013 -24.303  0.00  0.00    +0.091 A 
ATOM      4  C   UNL     1      34.188 -14.674 -23.401  0.00  0.00    +0.139 A 
ATOM      5  C   UNL     1      33.006 -14.688 -25.561  0.00  0.00    +0.345 A 
ATOM      6  C   UNL     1      34.588 -16.065 -23.629  0.00  0.00    +0.068 A 
ATOM      7  C   UNL     1      34.179 -16.692 -24.801  0.00  0.00    +0.152 A 
ATOM      8  C   UNL     1      35.363 -16.806 -22.726  0.00  0.00    +0.006 C 
ATOM      9  C   UNL     1      34.516 -18.014 -25.095  0.00  0.00    +0.038 C 
ATOM     10  C   UNL     1      35.709 -18.133 -23.006  0.00  0.00    +0.000 C 
ATOM     11  C   UNL     1      35.285 -18.736 -24.190  0.00  0.00    +0.003 C 
ENDROOT
BRANCH   4  12
ATOM     12  O   UNL     1      34.642 -14.137 -22.216  0.00  0.00    -0.506 OA
ATOM     13  H   UNL     1      35.427 -13.624 -22.204  0.00  0.00    +0.292 HD
ENDBRANCH   4  12
BRANCH   3  14
ATOM     14  C   UNL     1      32.962 -12.592 -24.172  0.00  0.00    +0.056 C 
BRANCH  14  15
ATOM     15  C   UNL     1      33.946 -11.632 -24.815  0.00  0.00    -0.018 C 
ATOM     16  C   UNL     1      34.395 -10.516 -24.107  0.00  0.00    -0.004 C 
ATOM     17  C   UNL     1      34.399 -11.864 -26.113  0.00  0.00    -0.004 C 
ATOM     18  C   UNL     1      35.300  -9.634 -24.699  0.00  0.00    -0.000 C 
ATOM     19  C   UNL     1      35.304 -10.982 -26.704  0.00  0.00    -0.000 C 
ATOM     20  C   UNL     1      35.754  -9.866 -25.997  0.00  0.00    -0.000 C 
ENDBRANCH  14  15
BRANCH  14  21
ATOM     21  C   UNL     1      32.658 -12.258 -22.692  0.00  0.00    +0.038 C 
BRANCH  21  22
ATOM     22  C   UNL     1      31.344 -11.489 -22.486  0.00  0.00    +0.111 C 
ATOM     23  C   UNL     1      30.900 -11.544 -21.029  0.00  0.00    +0.032 C 
BRANCH  22  24
ATOM     24  O   UNL     1      31.535 -10.128 -22.857  0.00  0.00    -0.384 OA
ATOM     25  H   UNL     1      30.877  -9.879 -23.524  0.00  0.00    +0.210 HD
ENDBRANCH  22  24
ENDBRANCH  21  22
ENDBRANCH  14  21
ENDBRANCH   3  14
TORSDOF 6
ENDMDL
MODEL 3
REMARK VINA RESULT:      -8.4      4.727      8.886
REMARK  Name = 54723704
REMARK  6 active torsions:
REMARK  status: ('A' for Active; 'I' for Inactive)
REMARK    1  A    between atoms: C_3  and  C_14
REMARK    2  A    between atoms: C_4  and  O_12
REMARK    3  A    between atoms: C_14  and  C_15
REMARK    4  A    between atoms: C_14  and  C_21
REMARK    5  A    between atoms: C_21  and  C_22
REMARK    6  A    between atoms: C_22  and  O_24
REMARK                            x       y       z     vdW  Elec       q    Type
REMARK                         _______ _______ _______ _____ _____    ______ ____
ROOT
ATOM      1  O   UNL     1      31.884 -10.045 -22.198  0.00  0.00    -0.421 OA
ATOM      2  O   UNL     1      31.017 -12.131 -21.933  0.00  0.00    -0.245 OA
ATOM      3  C   UNL     1      32.885 -11.948 -23.396  0.00  0.00    +0.091 A 
ATOM      4  C   UNL     1      33.797 -11.127 -23.951  0.00  0.00    +0.139 A 
ATOM      5  C   UNL     1      31.858 -11.408 -22.459  0.00  0.00    +0.345 A 
ATOM      6  C   UNL     1      33.798  -9.693 -23.653  0.00  0.00    +0.068 A 
ATOM      7  C   UNL     1      32.837  -9.192 -22.783  0.00  0.00    +0.152 A 
ATOM      8  C   UNL     1      34.719  -8.790 -24.202  0.00  0.00    +0.006 C 
ATOM      9  C   UNL     1      32.768  -7.840 -22.447  0.00  0.00    +0.038 C 
ATOM     10  C   UNL     1      34.663  -7.430 -23.876  0.00  0.00    +0.000 C 
ATOM     11  C   UNL     1      33.688  -6.956 -22.999  0.00  0.00    +0.003 C 
ENDROOT
BRANCH   4  12
ATOM     12  O   UNL     1      34.788 -11.531 -24.820  0.00  0.00    -0.506 OA
ATOM     13  H   UNL     1      35.025 -12.437 -24.872  0.00  0.00    +0.292 HD
ENDBRANCH   4  12
BRANCH   3  14
ATOM     14  C   UNL     1      32.781 -13.430 -23.635  0.00  0.00    +0.056 C 
BRANCH  14  15
ATOM     15  C   UNL     1      33.205 -14.206 -22.401  0.00  0.00    -0.018 C 
ATOM     16  C   UNL     1      34.541 -14.202 -22.000  0.00  0.00    -0.004 C 
ATOM     17  C   UNL     1      32.259 -14.922 -21.669  0.00  0.00    -0.004 C 
ATOM     18  C   UNL     1      34.931 -14.914 -20.866  0.00  0.00    -0.000 C 
ATOM     19  C   UNL     1      32.648 -15.635 -20.535  0.00  0.00    -0.000 C 
ATOM     20  C   UNL     1      33.985 -15.631 -20.134  0.00  0.00    -0.000 C 
ENDBRANCH  14  15
BRANCH  14  21
ATOM     21  C   UNL     1      33.564 -13.829 -24.909  0.00  0.00    +0.038 C 
BRANCH  21  22
ATOM     22  C   UNL     1      32.666 -14.173 -26.108  0.00  0.00    +0.111 C 
ATOM     23  C   UNL     1      32.983 -13.282 -27.303  0.00  0.00    +0.032 C 
BRANCH  22  24
ATOM     24  O   UNL     1      32.879 -15.532 -26.477  0.00  0.00    -0.384 OA
ATOM     25  H   UNL     1      33.753 -15.817 -26.169  0.00  0.00    +0.210 HD
ENDBRANCH  22  24
ENDBRANCH  21  22
ENDBRANCH  14  21
ENDBRANCH   3  14
TORSDOF 6
ENDMDL
MODEL 4
REMARK VINA RESULT:      -8.4      5.834      9.157
REMARK  Name = 54723704
REMARK  6 active torsions:
REMARK  status: ('A' for Active; 'I' for Inactive)
REMARK    1  A    between atoms: C_3  and  C_14
REMARK    2  A    between atoms: C_4  and  O_12
REMARK    3  A    between atoms: C_14  and  C_15
REMARK    4  A    between atoms: C_14  and  C_21
REMARK    5  A    between atoms: C_21  and  C_22
REMARK    6  A    between atoms: C_22  and  O_24
REMARK                            x       y       z     vdW  Elec       q    Type
REMARK                         _______ _______ _______ _____ _____    ______ ____
ROOT
ATOM      1  O   UNL     1      32.199 -23.509 -17.326  0.00  0.00    -0.421 OA
ATOM      2  O   UNL     1      34.170 -23.533 -18.461  0.00  0.00    -0.245 OA
ATOM      3  C   UNL     1      34.325 -23.409 -16.089  0.00  0.00    +0.091 A 
ATOM      4  C   UNL     1      33.652 -23.367 -14.923  0.00  0.00    +0.139 A 
ATOM      5  C   UNL     1      33.586 -23.488 -17.382  0.00  0.00    +0.345 A 
ATOM      6  C   UNL     1      32.187 -23.392 -14.899  0.00  0.00    +0.068 A 
ATOM      7  C   UNL     1      31.502 -23.462 -16.106  0.00  0.00    +0.152 A 
ATOM      8  C   UNL     1      31.433 -23.348 -13.718  0.00  0.00    +0.006 C 
ATOM      9  C   UNL     1      30.108 -23.489 -16.171  0.00  0.00    +0.038 C 
ATOM     10  C   UNL     1      30.034 -23.374 -13.766  0.00  0.00    +0.000 C 
ATOM     11  C   UNL     1      29.373 -23.445 -14.992  0.00  0.00    +0.003 C 
ENDROOT
BRANCH   4  12
ATOM     12  O   UNL     1      34.243 -23.301 -13.680  0.00  0.00    -0.506 OA
ATOM     13  H   UNL     1      33.887 -22.737 -13.021  0.00  0.00    +0.292 HD
ENDBRANCH   4  12
BRANCH   3  14
ATOM     14  C   UNL     1      35.822 -23.378 -16.237  0.00  0.00    +0.056 C 
BRANCH  14  15
ATOM     15  C   UNL     1      36.479 -24.344 -15.268  0.00  0.00    -0.018 C 
ATOM     16  C   UNL     1      37.381 -23.870 -14.315  0.00  0.00    -0.004 C 
ATOM     17  C   UNL     1      36.182 -25.705 -15.331  0.00  0.00    -0.004 C 
ATOM     18  C   UNL     1      37.984 -24.758 -13.424  0.00  0.00    -0.000 C 
ATOM     19  C   UNL     1      36.785 -26.593 -14.441  0.00  0.00    -0.000 C 
ATOM     20  C   UNL     1      37.687 -26.119 -13.487  0.00  0.00    -0.000 C 
ENDBRANCH  14  15
BRANCH  14  21
ATOM     21  C   UNL     1      36.348 -21.928 -16.109  0.00  0.00    +0.038 C 
BRANCH  21  22
ATOM     22  C   UNL     1      37.245 -21.488 -17.276  0.00  0.00    +0.111 C 
ATOM     23  C   UNL     1      36.485 -21.529 -18.596  0.00  0.00    +0.032 C 
BRANCH  22  24
ATOM     24  O   UNL     1      37.693 -20.156 -17.046  0.00  0.00    -0.384 OA
ATOM     25  H   UNL     1      37.080 -19.708 -16.444  0.00  0.00    +0.210 HD
ENDBRANCH  22  24
ENDBRANCH  21  22
ENDBRANCH  14  21
ENDBRANCH   3  14
TORSDOF 6
ENDMDL
MODEL 5
REMARK VINA RESULT:      -8.0      4.783      9.635
REMARK  Name = 54723704
REMARK  6 active torsions:
REMARK  status: ('A' for Active; 'I' for Inactive)
REMARK    1  A    between atoms: C_3  and  C_14
REMARK    2  A    between atoms: C_4  and  O_12
REMARK    3  A    between atoms: C_14  and  C_15
REMARK    4  A    between atoms: C_14  and  C_21
REMARK    5  A    between atoms: C_21  and  C_22
REMARK    6  A    between atoms: C_22  and  O_24
REMARK                            x       y       z     vdW  Elec       q    Type
REMARK                         _______ _______ _______ _____ _____    ______ ____
ROOT
ATOM      1  O   UNL     1      37.119 -21.730 -17.161  0.00  0.00    -0.421 OA
ATOM      2  O   UNL     1      37.399 -22.535 -15.053  0.00  0.00    -0.245 OA
ATOM      3  C   UNL     1      35.281 -22.940 -16.058  0.00  0.00    +0.091 A 
ATOM      4  C   UNL     1      34.510 -22.779 -17.150  0.00  0.00    +0.139 A 
ATOM      5  C   UNL     1      36.670 -22.399 -16.030  0.00  0.00    +0.345 A 
ATOM      6  C   UNL     1      35.014 -22.067 -18.328  0.00  0.00    +0.068 A 
ATOM      7  C   UNL     1      36.308 -21.561 -18.297  0.00  0.00    +0.152 A 
ATOM      8  C   UNL     1      34.259 -21.865 -19.492  0.00  0.00    +0.006 C 
ATOM      9  C   UNL     1      36.864 -20.871 -19.375  0.00  0.00    +0.038 C 
ATOM     10  C   UNL     1      34.802 -21.174 -20.581  0.00  0.00    +0.000 C 
ATOM     11  C   UNL     1      36.103 -20.677 -20.522  0.00  0.00    +0.003 C 
ENDROOT
BRANCH   4  12
ATOM     12  O   UNL     1      33.220 -23.247 -17.275  0.00  0.00    -0.506 OA
ATOM     13  H   UNL     1      32.590 -23.071 -16.603  0.00  0.00    +0.292 HD
ENDBRANCH   4  12
BRANCH   3  14
ATOM     14  C   UNL     1      34.868 -23.641 -14.792  0.00  0.00    +0.056 C 
BRANCH  14  15
ATOM     15  C   UNL     1      35.779 -24.822 -14.509  0.00  0.00    -0.018 C 
ATOM     16  C   UNL     1      36.355 -24.972 -13.247  0.00  0.00    -0.004 C 
ATOM     17  C   UNL     1      36.040 -25.757 -15.511  0.00  0.00    -0.004 C 
ATOM     18  C   UNL     1      37.192 -26.057 -12.988  0.00  0.00    -0.000 C 
ATOM     19  C   UNL     1      36.877 -26.842 -15.251  0.00  0.00    -0.000 C 
ATOM     20  C   UNL     1      37.453 -26.992 -13.989  0.00  0.00    -0.000 C 
ENDBRANCH  14  15
BRANCH  14  21
ATOM     21  C   UNL     1      33.369 -24.022 -14.848  0.00  0.00    +0.038 C 
BRANCH  21  22
ATOM     22  C   UNL     1      32.652 -23.925 -13.493  0.00  0.00    +0.111 C 
ATOM     23  C   UNL     1      31.397 -23.069 -13.598  0.00  0.00    +0.032 C 
BRANCH  22  24
ATOM     24  O   UNL     1      32.283 -25.232 -13.064  0.00  0.00    -0.384 OA
ATOM     25  H   UNL     1      31.821 -25.690 -13.783  0.00  0.00    +0.210 HD
ENDBRANCH  22  24
ENDBRANCH  21  22
ENDBRANCH  14  21
ENDBRANCH   3  14
TORSDOF 6
ENDMDL
MODEL 6
REMARK VINA RESULT:      -7.8      4.688      8.726
REMARK  Name = 54723704
REMARK  6 active torsions:
REMARK  status: ('A' for Active; 'I' for Inactive)
REMARK    1  A    between atoms: C_3  and  C_14
REMARK    2  A    between atoms: C_4  and  O_12
REMARK    3  A    between atoms: C_14  and  C_15
REMARK    4  A    between atoms: C_14  and  C_21
REMARK    5  A    between atoms: C_21  and  C_22
REMARK    6  A    between atoms: C_22  and  O_24
REMARK                            x       y       z     vdW  Elec       q    Type
REMARK                         _______ _______ _______ _____ _____    ______ ____
ROOT
ATOM      1  O   UNL     1      34.153  -9.721 -24.070  0.00  0.00    -0.421 OA
ATOM      2  O   UNL     1      34.676 -11.683 -25.095  0.00  0.00    -0.245 OA
ATOM      3  C   UNL     1      32.887 -11.761 -23.526  0.00  0.00    +0.091 A 
ATOM      4  C   UNL     1      32.127 -11.065 -22.660  0.00  0.00    +0.139 A 
ATOM      5  C   UNL     1      33.970 -11.079 -24.293  0.00  0.00    +0.345 A 
ATOM      6  C   UNL     1      32.347  -9.633 -22.448  0.00  0.00    +0.068 A 
ATOM      7  C   UNL     1      33.358  -9.001 -23.162  0.00  0.00    +0.152 A 
ATOM      8  C   UNL     1      31.590  -8.857 -21.558  0.00  0.00    +0.006 C 
ATOM      9  C   UNL     1      33.634  -7.641 -23.018  0.00  0.00    +0.038 C 
ATOM     10  C   UNL     1      31.854  -7.491 -21.402  0.00  0.00    +0.000 C 
ATOM     11  C   UNL     1      32.875  -6.884 -22.132  0.00  0.00    +0.003 C 
ENDROOT
BRANCH   4  12
ATOM     12  O   UNL     1      31.101 -11.603 -21.912  0.00  0.00    -0.506 OA
ATOM     13  H   UNL     1      31.025 -12.533 -21.821  0.00  0.00    +0.292 HD
ENDBRANCH   4  12
BRANCH   3  14
ATOM     14  C   UNL     1      32.761 -13.232 -23.816  0.00  0.00    +0.056 C 
BRANCH  14  15
ATOM     15  C   UNL     1      33.195 -14.056 -22.618  0.00  0.00    -0.018 C 
ATOM     16  C   UNL     1      34.509 -14.518 -22.528  0.00  0.00    -0.004 C 
ATOM     17  C   UNL     1      32.281 -14.353 -21.607  0.00  0.00    -0.004 C 
ATOM     18  C   UNL     1      34.908 -15.275 -21.427  0.00  0.00    -0.000 C 
ATOM     19  C   UNL     1      32.680 -15.110 -20.506  0.00  0.00    -0.000 C 
ATOM     20  C   UNL     1      33.994 -15.572 -20.416  0.00  0.00    -0.000 C 
ENDBRANCH  14  15
BRANCH  14  21
ATOM     21  C   UNL     1      33.519 -13.594 -25.116  0.00  0.00    +0.038 C 
BRANCH  21  22
ATOM     22  C   UNL     1      32.648 -14.297 -26.168  0.00  0.00    +0.111 C 
ATOM     23  C   UNL     1      32.460 -13.420 -27.399  0.00  0.00    +0.032 C 
BRANCH  22  24
ATOM     24  O   UNL     1      33.278 -15.513 -26.561  0.00  0.00    -0.384 OA
ATOM     25  H   UNL     1      34.238 -15.383 -26.594  0.00  0.00    +0.210 HD
ENDBRANCH  22  24
ENDBRANCH  21  22
ENDBRANCH  14  21
ENDBRANCH   3  14
TORSDOF 6
ENDMDL
MODEL 7
REMARK VINA RESULT:      -7.7      5.256      8.357
REMARK  Name = 54723704
REMARK  6 active torsions:
REMARK  status: ('A' for Active; 'I' for Inactive)
REMARK    1  A    between atoms: C_3  and  C_14
REMARK    2  A    between atoms: C_4  and  O_12
REMARK    3  A    between atoms: C_14  and  C_15
REMARK    4  A    between atoms: C_14  and  C_21
REMARK    5  A    between atoms: C_21  and  C_22
REMARK    6  A    between atoms: C_22  and  O_24
REMARK                            x       y       z     vdW  Elec       q    Type
REMARK                         _______ _______ _______ _____ _____    ______ ____
ROOT
ATOM      1  O   UNL     1      37.519 -22.960 -15.579  0.00  0.00    -0.421 OA
ATOM      2  O   UNL     1      36.305 -21.577 -16.917  0.00  0.00    -0.245 OA
ATOM      3  C   UNL     1      35.146 -23.450 -16.015  0.00  0.00    +0.091 A 
ATOM      4  C   UNL     1      35.222 -24.545 -15.235  0.00  0.00    +0.139 A 
ATOM      5  C   UNL     1      36.344 -22.585 -16.217  0.00  0.00    +0.345 A 
ATOM      6  C   UNL     1      36.478 -24.912 -14.575  0.00  0.00    +0.068 A 
ATOM      7  C   UNL     1      37.593 -24.106 -14.768  0.00  0.00    +0.152 A 
ATOM      8  C   UNL     1      36.619 -26.040 -13.754  0.00  0.00    +0.006 C 
ATOM      9  C   UNL     1      38.826 -24.385 -14.178  0.00  0.00    +0.038 C 
ATOM     10  C   UNL     1      37.849 -26.335 -13.154  0.00  0.00    +0.000 C 
ATOM     11  C   UNL     1      38.951 -25.507 -13.367  0.00  0.00    +0.003 C 
ENDROOT
BRANCH   4  12
ATOM     12  O   UNL     1      34.172 -25.401 -14.981  0.00  0.00    -0.506 OA
ATOM     13  H   UNL     1      34.316 -26.186 -14.490  0.00  0.00    +0.292 HD
ENDBRANCH   4  12
BRANCH   3  14
ATOM     14  C   UNL     1      33.918 -22.982 -16.749  0.00  0.00    +0.056 C 
BRANCH  14  15
ATOM     15  C   UNL     1      32.683 -23.128 -15.879  0.00  0.00    -0.018 C 
ATOM     16  C   UNL     1      32.750 -22.834 -14.517  0.00  0.00    -0.004 C 
ATOM     17  C   UNL     1      31.481 -23.558 -16.442  0.00  0.00    -0.004 C 
ATOM     18  C   UNL     1      31.614 -22.968 -13.718  0.00  0.00    -0.000 C 
ATOM     19  C   UNL     1      30.345 -23.692 -15.643  0.00  0.00    -0.000 C 
ATOM     20  C   UNL     1      30.413 -23.397 -14.281  0.00  0.00    -0.000 C 
ENDBRANCH  14  15
BRANCH  14  21
ATOM     21  C   UNL     1      33.797 -23.702 -18.113  0.00  0.00    +0.038 C 
BRANCH  21  22
ATOM     22  C   UNL     1      33.990 -22.776 -19.324  0.00  0.00    +0.111 C 
ATOM     23  C   UNL     1      33.184 -21.492 -19.164  0.00  0.00    +0.032 C 
BRANCH  22  24
ATOM     24  O   UNL     1      35.369 -22.441 -19.441  0.00  0.00    -0.384 OA
ATOM     25  H   UNL     1      35.673 -22.026 -18.619  0.00  0.00    +0.210 HD
ENDBRANCH  22  24
ENDBRANCH  21  22
ENDBRANCH  14  21
ENDBRANCH   3  14
TORSDOF 6
ENDMDL
MODEL 8
REMARK VINA RESULT:      -7.7      1.368      2.605
REMARK  Name = 54723704
REMARK  6 active torsions:
REMARK  status: ('A' for Active; 'I' for Inactive)
REMARK    1  A    between atoms: C_3  and  C_14
REMARK    2  A    between atoms: C_4  and  O_12
REMARK    3  A    between atoms: C_14  and  C_15
REMARK    4  A    between atoms: C_14  and  C_21
REMARK    5  A    between atoms: C_21  and  C_22
REMARK    6  A    between atoms: C_22  and  O_24
REMARK                            x       y       z     vdW  Elec       q    Type
REMARK                         _______ _______ _______ _____ _____    ______ ____
ROOT
ATOM      1  O   UNL     1      32.735 -21.518 -19.635  0.00  0.00    -0.421 OA
ATOM      2  O   UNL     1      32.209 -20.157 -21.380  0.00  0.00    -0.245 OA
ATOM      3  C   UNL     1      34.451 -20.035 -20.592  0.00  0.00    +0.091 A 
ATOM      4  C   UNL     1      35.354 -20.499 -19.708  0.00  0.00    +0.139 A 
ATOM      5  C   UNL     1      33.053 -20.555 -20.584  0.00  0.00    +0.345 A 
ATOM      6  C   UNL     1      34.986 -21.516 -18.720  0.00  0.00    +0.068 A 
ATOM      7  C   UNL     1      33.682 -21.996 -18.712  0.00  0.00    +0.152 A 
ATOM      8  C   UNL     1      35.881 -22.035 -17.774  0.00  0.00    +0.006 C 
ATOM      9  C   UNL     1      33.249 -22.963 -17.805  0.00  0.00    +0.038 C 
ATOM     10  C   UNL     1      35.463 -23.005 -16.855  0.00  0.00    +0.000 C 
ATOM     11  C   UNL     1      34.148 -23.468 -16.871  0.00  0.00    +0.003 C 
ENDROOT
BRANCH   4  12
ATOM     12  O   UNL     1      36.668 -20.087 -19.641  0.00  0.00    -0.506 OA
ATOM     13  H   UNL     1      37.305 -20.621 -19.208  0.00  0.00    +0.292 HD
ENDBRANCH   4  12
BRANCH   3  14
ATOM     14  C   UNL     1      34.711 -18.987 -21.641  0.00  0.00    +0.056 C 
BRANCH  14  15
ATOM     15  C   UNL     1      34.180 -17.636 -21.196  0.00  0.00    -0.018 C 
ATOM     16  C   UNL     1      32.804 -17.417 -21.125  0.00  0.00    -0.004 C 
ATOM     17  C   UNL     1      35.068 -16.615 -20.860  0.00  0.00    -0.004 C 
ATOM     18  C   UNL     1      32.317 -16.176 -20.715  0.00  0.00    -0.000 C 
ATOM     19  C   UNL     1      34.581 -15.374 -20.450  0.00  0.00    -0.000 C 
ATOM     20  C   UNL     1      33.205 -15.154 -20.379  0.00  0.00    -0.000 C 
ENDBRANCH  14  15
BRANCH  14  21
ATOM     21  C   UNL     1      34.153 -19.444 -23.011  0.00  0.00    +0.038 C 
BRANCH  21  22
ATOM     22  C   UNL     1      34.997 -18.983 -24.209  0.00  0.00    +0.111 C 
ATOM     23  C   UNL     1      34.220 -18.005 -25.082  0.00  0.00    +0.032 C 
BRANCH  22  24
ATOM     24  O   UNL     1      36.174 -18.338 -23.733  0.00  0.00    -0.384 OA
ATOM     25  H   UNL     1      36.947 -18.689 -24.201  0.00  0.00    +0.210 HD
ENDBRANCH  22  24
ENDBRANCH  21  22
ENDBRANCH  14  21
ENDBRANCH   3  14
TORSDOF 6
ENDMDL
MODEL 9
REMARK VINA RESULT:      -7.7      7.823     10.930
REMARK  Name = 54723704
REMARK  6 active torsions:
REMARK  status: ('A' for Active; 'I' for Inactive)
REMARK    1  A    between atoms: C_3  and  C_14
REMARK    2  A    between atoms: C_4  and  O_12
REMARK    3  A    between atoms: C_14  and  C_15
REMARK    4  A    between atoms: C_14  and  C_21
REMARK    5  A    between atoms: C_21  and  C_22
REMARK    6  A    between atoms: C_22  and  O_24
REMARK                            x       y       z     vdW  Elec       q    Type
REMARK                         _______ _______ _______ _____ _____    ______ ____
ROOT
ATOM      1  O   UNL     1      33.353 -22.777 -16.326  0.00  0.00    -0.421 OA
ATOM      2  O   UNL     1      35.573 -22.489 -15.924  0.00  0.00    -0.245 OA
ATOM      3  C   UNL     1      34.372 -23.771 -14.317  0.00  0.00    +0.091 A 
ATOM      4  C   UNL     1      33.181 -24.286 -13.960  0.00  0.00    +0.139 A 
ATOM      5  C   UNL     1      34.500 -22.967 -15.568  0.00  0.00    +0.345 A 
ATOM      6  C   UNL     1      31.989 -24.067 -14.783  0.00  0.00    +0.068 A 
ATOM      7  C   UNL     1      32.111 -23.315 -15.946  0.00  0.00    +0.152 A 
ATOM      8  C   UNL     1      30.722 -24.576 -14.462  0.00  0.00    +0.006 C 
ATOM      9  C   UNL     1      31.026 -23.059 -16.785  0.00  0.00    +0.038 C 
ATOM     10  C   UNL     1      29.623 -24.327 -15.292  0.00  0.00    +0.000 C 
ATOM     11  C   UNL     1      29.776 -23.569 -16.453  0.00  0.00    +0.003 C 
ENDROOT
BRANCH   4  12
ATOM     12  O   UNL     1      32.963 -25.046 -12.831  0.00  0.00    -0.506 OA
ATOM     13  H   UNL     1      32.767 -24.627 -12.015  0.00  0.00    +0.292 HD
ENDBRANCH   4  12
BRANCH   3  14
ATOM     14  C   UNL     1      35.657 -23.920 -13.548  0.00  0.00    +0.056 C 
BRANCH  14  15
ATOM     15  C   UNL     1      36.541 -24.981 -14.179  0.00  0.00    -0.018 C 
ATOM     16  C   UNL     1      37.929 -24.843 -14.144  0.00  0.00    -0.004 C 
ATOM     17  C   UNL     1      35.966 -26.093 -14.794  0.00  0.00    -0.004 C 
ATOM     18  C   UNL     1      38.741 -25.817 -14.723  0.00  0.00    -0.000 C 
ATOM     19  C   UNL     1      36.778 -27.068 -15.373  0.00  0.00    -0.000 C 
ATOM     20  C   UNL     1      38.166 -26.929 -15.338  0.00  0.00    -0.000 C 
ENDBRANCH  14  15
BRANCH  14  21
ATOM     21  C   UNL     1      35.364 -24.178 -12.051  0.00  0.00    +0.038 C 
BRANCH  21  22
ATOM     22  C   UNL     1      36.593 -24.022 -11.142  0.00  0.00    +0.111 C 
ATOM     23  C   UNL     1      37.302 -22.698 -11.403  0.00  0.00    +0.032 C 
BRANCH  22  24
ATOM     24  O   UNL     1      36.177 -24.060  -9.781  0.00  0.00    -0.384 OA
ATOM     25  H   UNL     1      35.246 -24.329  -9.734  0.00  0.00    +0.210 HD
ENDBRANCH  22  24
ENDBRANCH  21  22
ENDBRANCH  14  21
ENDBRANCH   3  14
TORSDOF 6
ENDMDL
