MODEL 1
REMARK VINA RESULT:      -7.8      0.000      0.000
REMARK  Name = 5289086
REMARK  6 active torsions:
REMARK  status: ('A' for Active; 'I' for Inactive)
REMARK    1  A    between atoms: C_2  and  C_10
REMARK    2  A    between atoms: C_2  and  O_18
REMARK    3  A    between atoms: C_3  and  O_20
REMARK    4  A    between atoms: C_4  and  O_22
REMARK    5  A    between atoms: C_11  and  C_13
REMARK    6  A    between atoms: C_13  and  C_14
REMARK                            x       y       z     vdW  Elec       q    Type
REMARK                         _______ _______ _______ _____ _____    ______ ____
ROOT
ATOM      1  O   UNL     1      33.904 -15.625 -26.228  0.00  0.00    -0.293 OA
ATOM      2  C   UNL     1      34.776 -16.524 -22.901  0.00  0.00    +0.167 C 
ATOM      3  C   UNL     1      33.981 -15.428 -22.110  0.00  0.00    +0.116 C 
ATOM      4  C   UNL     1      34.030 -16.926 -24.196  0.00  0.00    +0.201 C 
ATOM      5  C   UNL     1      33.659 -14.221 -23.021  0.00  0.00    +0.037 C 
ATOM      6  C   UNL     1      32.927 -14.606 -24.301  0.00  0.00    +0.070 C 
ATOM      7  C   UNL     1      33.673 -15.701 -25.022  0.00  0.00    +0.180 C 
ATOM      8  C   UNL     1      34.728 -14.901 -20.873  0.00  0.00    +0.032 C 
ENDROOT
BRANCH   2  10
ATOM      9  O   UNL     1      34.357 -17.734 -20.811  0.00  0.00    -0.353 OA
ATOM     10  C   UNL     1      35.029 -17.763 -22.059  0.00  0.00    +0.145 C 
ATOM     11  C   UNL     1      33.931 -18.714 -21.766  0.00  0.00    +0.147 C 
ATOM     12  C   UNL     1      36.442 -18.152 -22.017  0.00  0.00    +0.035 C 
BRANCH  11  13
ATOM     13  C   UNL     1      34.177 -20.111 -21.337  0.00  0.00    +0.057 C 
BRANCH  13  14
ATOM     14  C   UNL     1      33.272 -20.606 -20.234  0.00  0.00    -0.032 C 
ATOM     15  C   UNL     1      33.518 -21.588 -19.347  0.00  0.00    -0.048 C 
ATOM     16  C   UNL     1      32.570 -22.033 -18.269  0.00  0.00    +0.026 C 
ATOM     17  C   UNL     1      34.829 -22.328 -19.369  0.00  0.00    +0.026 C 
ENDBRANCH  13  14
ENDBRANCH  11  13
ENDBRANCH   2  10
BRANCH   2  18
ATOM     18  O   UNL     1      36.047 -15.988 -23.301  0.00  0.00    -0.379 OA
ATOM     19  H   UNL     1      36.709 -16.696 -23.304  0.00  0.00    +0.211 HD
ENDBRANCH   2  18
BRANCH   3  20
ATOM     20  O   UNL     1      32.746 -15.966 -21.621  0.00  0.00    -0.384 OA
ATOM     21  H   UNL     1      32.246 -15.270 -21.167  0.00  0.00    +0.210 HD
ENDBRANCH   3  20
BRANCH   4  22
ATOM     22  O   UNL     1      34.844 -17.777 -24.990  0.00  0.00    -0.344 OA
ATOM     23  C   UNL     1      34.224 -19.039 -25.208  0.00  0.00    +0.175 C 
ENDBRANCH   4  22
TORSDOF 6
ENDMDL
MODEL 2
REMARK VINA RESULT:      -7.5      6.716     11.397
REMARK  Name = 5289086
REMARK  6 active torsions:
REMARK  status: ('A' for Active; 'I' for Inactive)
REMARK    1  A    between atoms: C_2  and  C_10
REMARK    2  A    between atoms: C_2  and  O_18
REMARK    3  A    between atoms: C_3  and  O_20
REMARK    4  A    between atoms: C_4  and  O_22
REMARK    5  A    between atoms: C_11  and  C_13
REMARK    6  A    between atoms: C_13  and  C_14
REMARK                            x       y       z     vdW  Elec       q    Type
REMARK                         _______ _______ _______ _____ _____    ______ ____
ROOT
ATOM      1  O   UNL     1      36.813 -24.662 -10.849  0.00  0.00    -0.293 OA
ATOM      2  C   UNL     1      37.009 -23.814 -14.296  0.00  0.00    +0.167 C 
ATOM      3  C   UNL     1      38.175 -24.763 -14.740  0.00  0.00    +0.116 C 
ATOM      4  C   UNL     1      36.167 -24.457 -13.168  0.00  0.00    +0.201 C 
ATOM      5  C   UNL     1      39.025 -25.193 -13.521  0.00  0.00    +0.037 C 
ATOM      6  C   UNL     1      38.205 -25.825 -12.404  0.00  0.00    +0.070 C 
ATOM      7  C   UNL     1      37.053 -24.927 -12.026  0.00  0.00    +0.180 C 
ATOM      8  C   UNL     1      39.120 -24.132 -15.776  0.00  0.00    +0.032 C 
ENDROOT
BRANCH   2  10
ATOM      9  O   UNL     1      35.590 -22.125 -15.364  0.00  0.00    -0.353 OA
ATOM     10  C   UNL     1      36.101 -23.445 -15.457  0.00  0.00    +0.145 C 
ATOM     11  C   UNL     1      36.506 -22.405 -16.432  0.00  0.00    +0.147 C 
ATOM     12  C   UNL     1      35.123 -24.490 -15.777  0.00  0.00    +0.035 C 
BRANCH  11  13
ATOM     13  C   UNL     1      35.902 -22.295 -17.780  0.00  0.00    +0.057 C 
BRANCH  13  14
ATOM     14  C   UNL     1      36.584 -21.315 -18.705  0.00  0.00    -0.032 C 
ATOM     15  C   UNL     1      36.048 -20.664 -19.753  0.00  0.00    -0.048 C 
ATOM     16  C   UNL     1      36.785 -19.697 -20.637  0.00  0.00    +0.026 C 
ATOM     17  C   UNL     1      34.600 -20.861 -20.118  0.00  0.00    +0.026 C 
ENDBRANCH  13  14
ENDBRANCH  11  13
ENDBRANCH   2  10
BRANCH   2  18
ATOM     18  O   UNL     1      37.565 -22.602 -13.761  0.00  0.00    -0.379 OA
ATOM     19  H   UNL     1      38.532 -22.678 -13.728  0.00  0.00    +0.211 HD
ENDBRANCH   2  18
BRANCH   3  20
ATOM     20  O   UNL     1      37.647 -25.942 -15.360  0.00  0.00    -0.384 OA
ATOM     21  H   UNL     1      38.107 -26.723 -15.015  0.00  0.00    +0.210 HD
ENDBRANCH   3  20
BRANCH   4  22
ATOM     22  O   UNL     1      35.235 -23.518 -12.651  0.00  0.00    -0.344 OA
ATOM     23  C   UNL     1      33.903 -24.013 -12.718  0.00  0.00    +0.175 C 
ENDBRANCH   4  22
TORSDOF 6
ENDMDL
MODEL 3
REMARK VINA RESULT:      -7.5      1.904      3.333
REMARK  Name = 5289086
REMARK  6 active torsions:
REMARK  status: ('A' for Active; 'I' for Inactive)
REMARK    1  A    between atoms: C_2  and  C_10
REMARK    2  A    between atoms: C_2  and  O_18
REMARK    3  A    between atoms: C_3  and  O_20
REMARK    4  A    between atoms: C_4  and  O_22
REMARK    5  A    between atoms: C_11  and  C_13
REMARK    6  A    between atoms: C_13  and  C_14
REMARK                            x       y       z     vdW  Elec       q    Type
REMARK                         _______ _______ _______ _____ _____    ______ ____
ROOT
ATOM      1  O   UNL     1      32.707 -11.333 -23.375  0.00  0.00    -0.293 OA
ATOM      2  C   UNL     1      33.932 -14.576 -22.587  0.00  0.00    +0.167 C 
ATOM      3  C   UNL     1      33.136 -14.849 -21.264  0.00  0.00    +0.116 C 
ATOM      4  C   UNL     1      33.103 -13.709 -23.565  0.00  0.00    +0.201 C 
ATOM      5  C   UNL     1      32.652 -13.523 -20.633  0.00  0.00    +0.037 C 
ATOM      6  C   UNL     1      31.837 -12.660 -21.589  0.00  0.00    +0.070 C 
ATOM      7  C   UNL     1      32.590 -12.453 -22.879  0.00  0.00    +0.180 C 
ATOM      8  C   UNL     1      33.951 -15.607 -20.203  0.00  0.00    +0.032 C 
ENDROOT
BRANCH   2  10
ATOM      9  O   UNL     1      35.750 -15.991 -23.423  0.00  0.00    -0.353 OA
ATOM     10  C   UNL     1      34.344 -15.864 -23.280  0.00  0.00    +0.145 C 
ATOM     11  C   UNL     1      35.090 -16.912 -22.544  0.00  0.00    +0.147 C 
ATOM     12  C   UNL     1      33.549 -16.154 -24.477  0.00  0.00    +0.035 C 
BRANCH  11  13
ATOM     13  C   UNL     1      35.150 -18.320 -23.000  0.00  0.00    +0.057 C 
BRANCH  13  14
ATOM     14  C   UNL     1      35.505 -19.322 -21.928  0.00  0.00    -0.032 C 
ATOM     15  C   UNL     1      34.686 -19.872 -21.012  0.00  0.00    -0.048 C 
ATOM     16  C   UNL     1      35.106 -20.868 -19.968  0.00  0.00    +0.026 C 
ATOM     17  C   UNL     1      33.223 -19.517 -20.983  0.00  0.00    +0.026 C 
ENDBRANCH  13  14
ENDBRANCH  11  13
ENDBRANCH   2  10
BRANCH   2  18
ATOM     18  O   UNL     1      35.121 -13.834 -22.277  0.00  0.00    -0.379 OA
ATOM     19  H   UNL     1      35.081 -13.528 -21.357  0.00  0.00    +0.211 HD
ENDBRANCH   2  18
BRANCH   3  20
ATOM     20  O   UNL     1      31.990 -15.666 -21.533  0.00  0.00    -0.384 OA
ATOM     21  H   UNL     1      31.500 -15.299 -22.286  0.00  0.00    +0.210 HD
ENDBRANCH   3  20
BRANCH   4  22
ATOM     22  O   UNL     1      33.901 -13.317 -24.674  0.00  0.00    -0.344 OA
ATOM     23  C   UNL     1      33.170 -13.385 -25.892  0.00  0.00    +0.175 C 
ENDBRANCH   4  22
TORSDOF 6
ENDMDL
MODEL 4
REMARK VINA RESULT:      -7.1      8.987     11.577
REMARK  Name = 5289086
REMARK  6 active torsions:
REMARK  status: ('A' for Active; 'I' for Inactive)
REMARK    1  A    between atoms: C_2  and  C_10
REMARK    2  A    between atoms: C_2  and  O_18
REMARK    3  A    between atoms: C_3  and  O_20
REMARK    4  A    between atoms: C_4  and  O_22
REMARK    5  A    between atoms: C_11  and  C_13
REMARK    6  A    between atoms: C_13  and  C_14
REMARK                            x       y       z     vdW  Elec       q    Type
REMARK                         _______ _______ _______ _____ _____    ______ ____
ROOT
ATOM      1  O   UNL     1      36.816 -24.653 -10.840  0.00  0.00    -0.293 OA
ATOM      2  C   UNL     1      37.070 -23.831 -14.290  0.00  0.00    +0.167 C 
ATOM      3  C   UNL     1      38.227 -24.800 -14.712  0.00  0.00    +0.116 C 
ATOM      4  C   UNL     1      36.203 -24.454 -13.169  0.00  0.00    +0.201 C 
ATOM      5  C   UNL     1      39.054 -25.235 -13.480  0.00  0.00    +0.037 C 
ATOM      6  C   UNL     1      38.210 -25.847 -12.369  0.00  0.00    +0.070 C 
ATOM      7  C   UNL     1      37.067 -24.930 -12.012  0.00  0.00    +0.180 C 
ATOM      8  C   UNL     1      39.194 -24.190 -15.740  0.00  0.00    +0.032 C 
ENDROOT
BRANCH   2  10
ATOM      9  O   UNL     1      35.649 -24.585 -16.139  0.00  0.00    -0.353 OA
ATOM     10  C   UNL     1      36.182 -23.457 -15.464  0.00  0.00    +0.145 C 
ATOM     11  C   UNL     1      34.728 -23.743 -15.433  0.00  0.00    +0.147 C 
ATOM     12  C   UNL     1      36.763 -22.415 -16.317  0.00  0.00    +0.035 C 
BRANCH  11  13
ATOM     13  C   UNL     1      33.758 -23.051 -16.313  0.00  0.00    +0.057 C 
BRANCH  13  14
ATOM     14  C   UNL     1      32.411 -23.724 -16.429  0.00  0.00    -0.032 C 
ATOM     15  C   UNL     1      31.333 -23.548 -15.642  0.00  0.00    -0.048 C 
ATOM     16  C   UNL     1      30.017 -24.253 -15.813  0.00  0.00    +0.026 C 
ATOM     17  C   UNL     1      31.376 -22.577 -14.492  0.00  0.00    +0.026 C 
ENDBRANCH  13  14
ENDBRANCH  11  13
ENDBRANCH   2  10
BRANCH   2  18
ATOM     18  O   UNL     1      37.637 -22.624 -13.756  0.00  0.00    -0.379 OA
ATOM     19  H   UNL     1      38.600 -22.717 -13.702  0.00  0.00    +0.211 HD
ENDBRANCH   2  18
BRANCH   3  20
ATOM     20  O   UNL     1      37.689 -25.976 -15.331  0.00  0.00    -0.384 OA
ATOM     21  H   UNL     1      38.234 -26.743 -15.098  0.00  0.00    +0.210 HD
ENDBRANCH   3  20
BRANCH   4  22
ATOM     22  O   UNL     1      35.278 -23.498 -12.670  0.00  0.00    -0.344 OA
ATOM     23  C   UNL     1      34.006 -24.082 -12.420  0.00  0.00    +0.175 C 
ENDBRANCH   4  22
TORSDOF 6
ENDMDL
MODEL 5
REMARK VINA RESULT:      -7.1      9.486     11.742
REMARK  Name = 5289086
REMARK  6 active torsions:
REMARK  status: ('A' for Active; 'I' for Inactive)
REMARK    1  A    between atoms: C_2  and  C_10
REMARK    2  A    between atoms: C_2  and  O_18
REMARK    3  A    between atoms: C_3  and  O_20
REMARK    4  A    between atoms: C_4  and  O_22
REMARK    5  A    between atoms: C_11  and  C_13
REMARK    6  A    between atoms: C_13  and  C_14
REMARK                            x       y       z     vdW  Elec       q    Type
REMARK                         _______ _______ _______ _____ _____    ______ ____
ROOT
ATOM      1  O   UNL     1      38.568 -27.426 -14.640  0.00  0.00    -0.293 OA
ATOM      2  C   UNL     1      36.257 -24.866 -13.772  0.00  0.00    +0.167 C 
ATOM      3  C   UNL     1      37.247 -23.794 -13.199  0.00  0.00    +0.116 C 
ATOM      4  C   UNL     1      36.918 -25.681 -14.910  0.00  0.00    +0.201 C 
ATOM      5  C   UNL     1      38.582 -24.452 -12.776  0.00  0.00    +0.037 C 
ATOM      6  C   UNL     1      39.239 -25.259 -13.889  0.00  0.00    +0.070 C 
ATOM      7  C   UNL     1      38.258 -26.247 -14.469  0.00  0.00    +0.180 C 
ATOM      8  C   UNL     1      36.691 -23.031 -11.986  0.00  0.00    +0.032 C 
ENDROOT
BRANCH   2  10
ATOM      9  O   UNL     1      33.887 -25.154 -14.324  0.00  0.00    -0.353 OA
ATOM     10  C   UNL     1      34.970 -24.240 -14.281  0.00  0.00    +0.145 C 
ATOM     11  C   UNL     1      33.803 -24.076 -13.382  0.00  0.00    +0.147 C 
ATOM     12  C   UNL     1      35.164 -23.419 -15.480  0.00  0.00    +0.035 C 
BRANCH  11  13
ATOM     13  C   UNL     1      32.706 -23.122 -13.664  0.00  0.00    +0.057 C 
BRANCH  13  14
ATOM     14  C   UNL     1      31.388 -23.759 -14.037  0.00  0.00    -0.032 C 
ATOM     15  C   UNL     1      30.786 -23.758 -15.241  0.00  0.00    -0.048 C 
ATOM     16  C   UNL     1      29.469 -24.415 -15.545  0.00  0.00    +0.026 C 
ATOM     17  C   UNL     1      31.431 -23.079 -16.419  0.00  0.00    +0.026 C 
ENDBRANCH  13  14
ENDBRANCH  11  13
ENDBRANCH   2  10
BRANCH   2  18
ATOM     18  O   UNL     1      35.920 -25.799 -12.733  0.00  0.00    -0.379 OA
ATOM     19  H   UNL     1      35.903 -26.697 -13.098  0.00  0.00    +0.211 HD
ENDBRANCH   2  18
BRANCH   3  20
ATOM     20  O   UNL     1      37.530 -22.799 -14.191  0.00  0.00    -0.384 OA
ATOM     21  H   UNL     1      37.040 -21.987 -13.984  0.00  0.00    +0.210 HD
ENDBRANCH   3  20
BRANCH   4  22
ATOM     22  O   UNL     1      36.080 -26.764 -15.291  0.00  0.00    -0.344 OA
ATOM     23  C   UNL     1      36.528 -27.372 -16.496  0.00  0.00    +0.175 C 
ENDBRANCH   4  22
TORSDOF 6
ENDMDL
MODEL 6
REMARK VINA RESULT:      -6.9      6.683      9.183
REMARK  Name = 5289086
REMARK  6 active torsions:
REMARK  status: ('A' for Active; 'I' for Inactive)
REMARK    1  A    between atoms: C_2  and  C_10
REMARK    2  A    between atoms: C_2  and  O_18
REMARK    3  A    between atoms: C_3  and  O_20
REMARK    4  A    between atoms: C_4  and  O_22
REMARK    5  A    between atoms: C_11  and  C_13
REMARK    6  A    between atoms: C_13  and  C_14
REMARK                            x       y       z     vdW  Elec       q    Type
REMARK                         _______ _______ _______ _____ _____    ______ ____
ROOT
ATOM      1  O   UNL     1      35.154  -6.449 -24.998  0.00  0.00    -0.293 OA
ATOM      2  C   UNL     1      32.606  -7.562 -22.781  0.00  0.00    +0.167 C 
ATOM      3  C   UNL     1      31.427  -6.638 -23.242  0.00  0.00    +0.116 C 
ATOM      4  C   UNL     1      33.533  -7.916 -23.970  0.00  0.00    +0.201 C 
ATOM      5  C   UNL     1      31.965  -5.390 -23.981  0.00  0.00    +0.037 C 
ATOM      6  C   UNL     1      32.881  -5.728 -25.151  0.00  0.00    +0.070 C 
ATOM      7  C   UNL     1      33.977  -6.663 -24.707  0.00  0.00    +0.180 C 
ATOM      8  C   UNL     1      30.538  -6.155 -22.084  0.00  0.00    +0.032 C 
ENDROOT
BRANCH   2  10
ATOM      9  O   UNL     1      30.886  -9.306 -22.684  0.00  0.00    -0.353 OA
ATOM     10  C   UNL     1      32.108  -8.842 -22.132  0.00  0.00    +0.145 C 
ATOM     11  C   UNL     1      32.055 -10.108 -22.901  0.00  0.00    +0.147 C 
ATOM     12  C   UNL     1      32.178  -8.810 -20.668  0.00  0.00    +0.035 C 
BRANCH  11  13
ATOM     13  C   UNL     1      31.996 -11.437 -22.249  0.00  0.00    +0.057 C 
BRANCH  13  14
ATOM     14  C   UNL     1      32.657 -12.554 -23.020  0.00  0.00    -0.032 C 
ATOM     15  C   UNL     1      32.957 -13.791 -22.582  0.00  0.00    -0.048 C 
ATOM     16  C   UNL     1      33.618 -14.861 -23.405  0.00  0.00    +0.026 C 
ATOM     17  C   UNL     1      32.620 -14.207 -21.174  0.00  0.00    +0.026 C 
ENDBRANCH  13  14
ENDBRANCH  11  13
ENDBRANCH   2  10
BRANCH   2  18
ATOM     18  O   UNL     1      33.411  -6.858 -21.822  0.00  0.00    -0.379 OA
ATOM     19  H   UNL     1      34.126  -7.436 -21.514  0.00  0.00    +0.211 HD
ENDBRANCH   2  18
BRANCH   3  20
ATOM     20  O   UNL     1      30.557  -7.349 -24.132  0.00  0.00    -0.384 OA
ATOM     21  H   UNL     1      30.873  -8.261 -24.234  0.00  0.00    +0.210 HD
ENDBRANCH   3  20
BRANCH   4  22
ATOM     22  O   UNL     1      34.691  -8.596 -23.507  0.00  0.00    -0.344 OA
ATOM     23  C   UNL     1      35.076  -9.637 -24.397  0.00  0.00    +0.175 C 
ENDBRANCH   4  22
TORSDOF 6
ENDMDL
MODEL 7
REMARK VINA RESULT:      -6.9      8.959     11.550
REMARK  Name = 5289086
REMARK  6 active torsions:
REMARK  status: ('A' for Active; 'I' for Inactive)
REMARK    1  A    between atoms: C_2  and  C_10
REMARK    2  A    between atoms: C_2  and  O_18
REMARK    3  A    between atoms: C_3  and  O_20
REMARK    4  A    between atoms: C_4  and  O_22
REMARK    5  A    between atoms: C_11  and  C_13
REMARK    6  A    between atoms: C_13  and  C_14
REMARK                            x       y       z     vdW  Elec       q    Type
REMARK                         _______ _______ _______ _____ _____    ______ ____
ROOT
ATOM      1  O   UNL     1      39.395 -26.083 -13.018  0.00  0.00    -0.293 OA
ATOM      2  C   UNL     1      36.328 -24.657 -14.115  0.00  0.00    +0.167 C 
ATOM      3  C   UNL     1      35.786 -24.106 -12.751  0.00  0.00    +0.116 C 
ATOM      4  C   UNL     1      37.874 -24.596 -14.164  0.00  0.00    +0.201 C 
ATOM      5  C   UNL     1      36.457 -24.831 -11.562  0.00  0.00    +0.037 C 
ATOM      6  C   UNL     1      37.979 -24.779 -11.602  0.00  0.00    +0.070 C 
ATOM      7  C   UNL     1      38.485 -25.258 -12.940  0.00  0.00    +0.180 C 
ATOM      8  C   UNL     1      34.263 -24.249 -12.593  0.00  0.00    +0.032 C 
ENDROOT
BRANCH   2  10
ATOM      9  O   UNL     1      35.276 -24.760 -16.326  0.00  0.00    -0.353 OA
ATOM     10  C   UNL     1      35.755 -23.902 -15.303  0.00  0.00    +0.145 C 
ATOM     11  C   UNL     1      34.309 -23.975 -15.617  0.00  0.00    +0.147 C 
ATOM     12  C   UNL     1      36.604 -22.791 -15.743  0.00  0.00    +0.035 C 
BRANCH  11  13
ATOM     13  C   UNL     1      33.623 -22.969 -16.460  0.00  0.00    +0.057 C 
BRANCH  13  14
ATOM     14  C   UNL     1      32.170 -23.265 -16.750  0.00  0.00    -0.032 C 
ATOM     15  C   UNL     1      31.123 -23.141 -15.913  0.00  0.00    -0.048 C 
ATOM     16  C   UNL     1      29.696 -23.453 -16.267  0.00  0.00    +0.026 C 
ATOM     17  C   UNL     1      31.322 -22.643 -14.507  0.00  0.00    +0.026 C 
ENDBRANCH  13  14
ENDBRANCH  11  13
ENDBRANCH   2  10
BRANCH   2  18
ATOM     18  O   UNL     1      35.961 -26.039 -14.244  0.00  0.00    -0.379 OA
ATOM     19  H   UNL     1      36.545 -26.469 -14.888  0.00  0.00    +0.211 HD
ENDBRANCH   2  18
BRANCH   3  20
ATOM     20  O   UNL     1      36.060 -22.703 -12.638  0.00  0.00    -0.384 OA
ATOM     21  H   UNL     1      37.009 -22.548 -12.768  0.00  0.00    +0.210 HD
ENDBRANCH   3  20
BRANCH   4  22
ATOM     22  O   UNL     1      38.358 -25.264 -15.321  0.00  0.00    -0.344 OA
ATOM     23  C   UNL     1      39.708 -24.916 -15.599  0.00  0.00    +0.175 C 
ENDBRANCH   4  22
TORSDOF 6
ENDMDL
MODEL 8
REMARK VINA RESULT:      -6.5      9.760     12.151
REMARK  Name = 5289086
REMARK  6 active torsions:
REMARK  status: ('A' for Active; 'I' for Inactive)
REMARK    1  A    between atoms: C_2  and  C_10
REMARK    2  A    between atoms: C_2  and  O_18
REMARK    3  A    between atoms: C_3  and  O_20
REMARK    4  A    between atoms: C_4  and  O_22
REMARK    5  A    between atoms: C_11  and  C_13
REMARK    6  A    between atoms: C_13  and  C_14
REMARK                            x       y       z     vdW  Elec       q    Type
REMARK                         _______ _______ _______ _____ _____    ______ ____
ROOT
ATOM      1  O   UNL     1      40.442 -24.264 -13.553  0.00  0.00    -0.293 OA
ATOM      2  C   UNL     1      37.014 -24.900 -14.251  0.00  0.00    +0.167 C 
ATOM      3  C   UNL     1      37.087 -26.429 -14.588  0.00  0.00    +0.116 C 
ATOM      4  C   UNL     1      38.067 -24.513 -13.184  0.00  0.00    +0.201 C 
ATOM      5  C   UNL     1      38.526 -26.833 -14.985  0.00  0.00    +0.037 C 
ATOM      6  C   UNL     1      39.571 -26.455 -13.942  0.00  0.00    +0.070 C 
ATOM      7  C   UNL     1      39.451 -24.994 -13.586  0.00  0.00    +0.180 C 
ATOM      8  C   UNL     1      36.146 -26.853 -15.727  0.00  0.00    +0.032 C 
ENDROOT
BRANCH   2  10
ATOM      9  O   UNL     1      35.250 -23.198 -14.220  0.00  0.00    -0.353 OA
ATOM     10  C   UNL     1      35.633 -24.487 -13.770  0.00  0.00    +0.145 C 
ATOM     11  C   UNL     1      34.517 -24.320 -14.730  0.00  0.00    +0.147 C 
ATOM     12  C   UNL     1      35.414 -24.760 -12.346  0.00  0.00    +0.035 C 
BRANCH  11  13
ATOM     13  C   UNL     1      33.095 -24.342 -14.316  0.00  0.00    +0.057 C 
BRANCH  13  14
ATOM     14  C   UNL     1      32.164 -23.534 -15.189  0.00  0.00    -0.032 C 
ATOM     15  C   UNL     1      30.871 -23.786 -15.467  0.00  0.00    -0.048 C 
ATOM     16  C   UNL     1      29.998 -22.938 -16.348  0.00  0.00    +0.026 C 
ATOM     17  C   UNL     1      30.180 -24.984 -14.872  0.00  0.00    +0.026 C 
ENDBRANCH  13  14
ENDBRANCH  11  13
ENDBRANCH   2  10
BRANCH   2  18
ATOM     18  O   UNL     1      37.320 -24.142 -15.432  0.00  0.00    -0.379 OA
ATOM     19  H   UNL     1      38.175 -23.699 -15.319  0.00  0.00    +0.211 HD
ENDBRANCH   2  18
BRANCH   3  20
ATOM     20  O   UNL     1      36.698 -27.207 -13.449  0.00  0.00    -0.384 OA
ATOM     21  H   UNL     1      35.802 -26.954 -13.174  0.00  0.00    +0.210 HD
ENDBRANCH   3  20
BRANCH   4  22
ATOM     22  O   UNL     1      38.113 -23.102 -13.025  0.00  0.00    -0.344 OA
ATOM     23  C   UNL     1      37.838 -22.718 -11.684  0.00  0.00    +0.175 C 
ENDBRANCH   4  22
TORSDOF 6
ENDMDL
MODEL 9
REMARK VINA RESULT:      -6.5      1.530      2.063
REMARK  Name = 5289086
REMARK  6 active torsions:
REMARK  status: ('A' for Active; 'I' for Inactive)
REMARK    1  A    between atoms: C_2  and  C_10
REMARK    2  A    between atoms: C_2  and  O_18
REMARK    3  A    between atoms: C_3  and  O_20
REMARK    4  A    between atoms: C_4  and  O_22
REMARK    5  A    between atoms: C_11  and  C_13
REMARK    6  A    between atoms: C_13  and  C_14
REMARK                            x       y       z     vdW  Elec       q    Type
REMARK                         _______ _______ _______ _____ _____    ______ ____
ROOT
ATOM      1  O   UNL     1      34.726 -16.058 -25.832  0.00  0.00    -0.293 OA
ATOM      2  C   UNL     1      34.801 -17.555 -22.607  0.00  0.00    +0.167 C 
ATOM      3  C   UNL     1      34.324 -16.342 -21.737  0.00  0.00    +0.116 C 
ATOM      4  C   UNL     1      34.139 -17.530 -24.007  0.00  0.00    +0.201 C 
ATOM      5  C   UNL     1      34.549 -15.008 -22.487  0.00  0.00    +0.037 C 
ATOM      6  C   UNL     1      33.904 -14.974 -23.868  0.00  0.00    +0.070 C 
ATOM      7  C   UNL     1      34.326 -16.177 -24.674  0.00  0.00    +0.180 C 
ATOM      8  C   UNL     1      35.035 -16.244 -20.377  0.00  0.00    +0.032 C 
ENDROOT
BRANCH   2  10
ATOM      9  O   UNL     1      35.298 -19.950 -22.448  0.00  0.00    -0.353 OA
ATOM     10  C   UNL     1      34.510 -18.887 -21.936  0.00  0.00    +0.145 C 
ATOM     11  C   UNL     1      35.535 -19.547 -21.093  0.00  0.00    +0.147 C 
ATOM     12  C   UNL     1      33.077 -19.161 -21.796  0.00  0.00    +0.035 C 
BRANCH  11  13
ATOM     13  C   UNL     1      35.198 -20.587 -20.094  0.00  0.00    +0.057 C 
BRANCH  13  14
ATOM     14  C   UNL     1      36.310 -20.926 -19.129  0.00  0.00    -0.032 C 
ATOM     15  C   UNL     1      36.249 -21.737 -18.056  0.00  0.00    -0.048 C 
ATOM     16  C   UNL     1      37.398 -22.033 -17.133  0.00  0.00    +0.026 C 
ATOM     17  C   UNL     1      34.968 -22.443 -17.702  0.00  0.00    +0.026 C 
ENDBRANCH  13  14
ENDBRANCH  11  13
ENDBRANCH   2  10
BRANCH   2  18
ATOM     18  O   UNL     1      36.218 -17.458 -22.815  0.00  0.00    -0.379 OA
ATOM     19  H   UNL     1      36.565 -18.323 -23.086  0.00  0.00    +0.211 HD
ENDBRANCH   2  18
BRANCH   3  20
ATOM     20  O   UNL     1      32.927 -16.462 -21.440  0.00  0.00    -0.384 OA
ATOM     21  H   UNL     1      32.544 -15.579 -21.318  0.00  0.00    +0.210 HD
ENDBRANCH   3  20
BRANCH   4  22
ATOM     22  O   UNL     1      34.717 -18.523 -24.843  0.00  0.00    -0.344 OA
ATOM     23  C   UNL     1      33.723 -19.351 -25.433  0.00  0.00    +0.175 C 
ENDBRANCH   4  22
TORSDOF 6
ENDMDL
