MODEL 1
REMARK VINA RESULT:      -6.9      0.000      0.000
REMARK  Name = 447634
REMARK  8 active torsions:
REMARK  status: ('A' for Active; 'I' for Inactive)
REMARK    1  A    between atoms: C_2  and  O_6
REMARK    2  A    between atoms: C_3  and  C_12
REMARK    3  A    between atoms: C_4  and  O_8
REMARK    4  A    between atoms: C_5  and  O_10
REMARK    5  A    between atoms: C_12  and  O_13
REMARK    6  A    between atoms: O_13  and  P_14
REMARK    7  A    between atoms: P_14  and  O_16
REMARK    8  A    between atoms: P_14  and  O_18
REMARK                            x       y       z     vdW  Elec       q    Type
REMARK                         _______ _______ _______ _____ _____    ______ ____
ROOT
ATOM      1  O   UNL     1      37.943 -23.520 -13.819  0.00  0.00    -0.326 OA
ATOM      2  C   UNL     1      36.661 -25.201 -14.871  0.00  0.00    +0.172 C 
ATOM      3  C   UNL     1      37.272 -24.764 -13.550  0.00  0.00    +0.177 C 
ATOM      4  C   UNL     1      36.314 -23.869 -15.504  0.00  0.00    +0.196 C 
ATOM      5  C   UNL     1      37.520 -23.030 -15.107  0.00  0.00    +0.262 C 
ENDROOT
BRANCH   2   6
ATOM      6  O   UNL     1      35.542 -26.041 -14.684  0.00  0.00    -0.379 OA
ATOM      7  H   UNL     1      35.815 -26.844 -14.213  0.00  0.00    +0.211 HD
ENDBRANCH   2   6
BRANCH   4   8
ATOM      8  O   UNL     1      35.143 -23.332 -14.896  0.00  0.00    -0.378 OA
ATOM      9  H   UNL     1      34.388 -23.442 -15.495  0.00  0.00    +0.211 HD
ENDBRANCH   4   8
BRANCH   5  10
ATOM     10  O   UNL     1      38.550 -23.210 -16.072  0.00  0.00    -0.358 OA
ATOM     11  H   UNL     1      39.310 -23.648 -15.656  0.00  0.00    +0.213 HD
ENDBRANCH   5  10
BRANCH   3  12
ATOM     12  C   UNL     1      38.261 -25.767 -12.982  0.00  0.00    +0.186 C 
BRANCH  12  13
ATOM     13  O   UNL     1      38.869 -26.469 -14.055  0.00  0.00    -0.271 OA
BRANCH  13  14
ATOM     14  P   UNL     1      40.385 -26.084 -14.466  0.00  0.00    +0.473 P 
ATOM     15  O   UNL     1      41.432 -27.059 -14.011  0.00  0.00    -0.227 OA
BRANCH  14  16
ATOM     16  O   UNL     1      40.562 -24.574 -13.917  0.00  0.00    -0.303 OA
ATOM     17  H   UNL     1      41.444 -24.245 -14.153  0.00  0.00    +0.222 HD
ENDBRANCH  14  16
BRANCH  14  18
ATOM     18  O   UNL     1      40.286 -25.888 -16.068  0.00  0.00    -0.303 OA
ATOM     19  H   UNL     1      40.874 -26.521 -16.508  0.00  0.00    +0.222 HD
ENDBRANCH  14  18
ENDBRANCH  13  14
ENDBRANCH  12  13
ENDBRANCH   3  12
TORSDOF 8
ENDMDL
MODEL 2
REMARK VINA RESULT:      -6.8      1.778      2.493
REMARK  Name = 447634
REMARK  8 active torsions:
REMARK  status: ('A' for Active; 'I' for Inactive)
REMARK    1  A    between atoms: C_2  and  O_6
REMARK    2  A    between atoms: C_3  and  C_12
REMARK    3  A    between atoms: C_4  and  O_8
REMARK    4  A    between atoms: C_5  and  O_10
REMARK    5  A    between atoms: C_12  and  O_13
REMARK    6  A    between atoms: O_13  and  P_14
REMARK    7  A    between atoms: P_14  and  O_16
REMARK    8  A    between atoms: P_14  and  O_18
REMARK                            x       y       z     vdW  Elec       q    Type
REMARK                         _______ _______ _______ _____ _____    ______ ____
ROOT
ATOM      1  O   UNL     1      38.008 -25.454 -12.170  0.00  0.00    -0.326 OA
ATOM      2  C   UNL     1      36.039 -24.560 -13.120  0.00  0.00    +0.172 C 
ATOM      3  C   UNL     1      36.990 -25.746 -13.145  0.00  0.00    +0.177 C 
ATOM      4  C   UNL     1      36.094 -24.153 -11.661  0.00  0.00    +0.196 C 
ATOM      5  C   UNL     1      37.572 -24.348 -11.356  0.00  0.00    +0.262 C 
ENDROOT
BRANCH   2   6
ATOM      6  O   UNL     1      34.744 -24.913 -13.556  0.00  0.00    -0.379 OA
ATOM      7  H   UNL     1      34.083 -24.496 -12.982  0.00  0.00    +0.211 HD
ENDBRANCH   2   6
BRANCH   4   8
ATOM      8  O   UNL     1      35.324 -25.059 -10.876  0.00  0.00    -0.378 OA
ATOM      9  H   UNL     1      35.665 -25.960 -10.995  0.00  0.00    +0.211 HD
ENDBRANCH   4   8
BRANCH   5  10
ATOM     10  O   UNL     1      38.278 -23.163 -11.703  0.00  0.00    -0.358 OA
ATOM     11  H   UNL     1      38.626 -23.247 -12.605  0.00  0.00    +0.213 HD
ENDBRANCH   5  10
BRANCH   3  12
ATOM     12  C   UNL     1      37.631 -25.976 -14.502  0.00  0.00    +0.186 C 
BRANCH  12  13
ATOM     13  O   UNL     1      38.790 -26.776 -14.332  0.00  0.00    -0.271 OA
BRANCH  13  14
ATOM     14  P   UNL     1      40.239 -26.088 -14.547  0.00  0.00    +0.473 P 
ATOM     15  O   UNL     1      41.400 -26.873 -14.008  0.00  0.00    -0.227 OA
BRANCH  14  16
ATOM     16  O   UNL     1      40.058 -24.607 -13.927  0.00  0.00    -0.303 OA
ATOM     17  H   UNL     1      40.116 -23.949 -14.638  0.00  0.00    +0.222 HD
ENDBRANCH  14  16
BRANCH  14  18
ATOM     18  O   UNL     1      40.279 -25.822 -16.142  0.00  0.00    -0.303 OA
ATOM     19  H   UNL     1      41.197 -25.853 -16.452  0.00  0.00    +0.222 HD
ENDBRANCH  14  18
ENDBRANCH  13  14
ENDBRANCH  12  13
ENDBRANCH   3  12
TORSDOF 8
ENDMDL
MODEL 3
REMARK VINA RESULT:      -6.8      1.767      2.997
REMARK  Name = 447634
REMARK  8 active torsions:
REMARK  status: ('A' for Active; 'I' for Inactive)
REMARK    1  A    between atoms: C_2  and  O_6
REMARK    2  A    between atoms: C_3  and  C_12
REMARK    3  A    between atoms: C_4  and  O_8
REMARK    4  A    between atoms: C_5  and  O_10
REMARK    5  A    between atoms: C_12  and  O_13
REMARK    6  A    between atoms: O_13  and  P_14
REMARK    7  A    between atoms: P_14  and  O_16
REMARK    8  A    between atoms: P_14  and  O_18
REMARK                            x       y       z     vdW  Elec       q    Type
REMARK                         _______ _______ _______ _____ _____    ______ ____
ROOT
ATOM      1  O   UNL     1      36.075 -23.844 -13.606  0.00  0.00    -0.326 OA
ATOM      2  C   UNL     1      37.899 -24.275 -12.170  0.00  0.00    +0.172 C 
ATOM      3  C   UNL     1      37.512 -23.925 -13.598  0.00  0.00    +0.177 C 
ATOM      4  C   UNL     1      36.824 -23.562 -11.376  0.00  0.00    +0.196 C 
ATOM      5  C   UNL     1      35.600 -23.810 -12.245  0.00  0.00    +0.262 C 
ENDROOT
BRANCH   2   6
ATOM      6  O   UNL     1      39.207 -23.846 -11.857  0.00  0.00    -0.379 OA
ATOM      7  H   UNL     1      39.328 -23.849 -10.895  0.00  0.00    +0.211 HD
ENDBRANCH   2   6
BRANCH   4   8
ATOM      8  O   UNL     1      37.100 -22.165 -11.333  0.00  0.00    -0.378 OA
ATOM      9  H   UNL     1      37.553 -21.899 -12.149  0.00  0.00    +0.211 HD
ENDBRANCH   4   8
BRANCH   5  10
ATOM     10  O   UNL     1      35.022 -25.059 -11.888  0.00  0.00    -0.358 OA
ATOM     11  H   UNL     1      35.680 -25.598 -11.419  0.00  0.00    +0.213 HD
ENDBRANCH   5  10
BRANCH   3  12
ATOM     12  C   UNL     1      37.973 -24.952 -14.617  0.00  0.00    +0.186 C 
BRANCH  12  13
ATOM     13  O   UNL     1      38.899 -25.829 -13.997  0.00  0.00    -0.271 OA
BRANCH  13  14
ATOM     14  P   UNL     1      40.412 -25.880 -14.567  0.00  0.00    +0.473 P 
ATOM     15  O   UNL     1      41.241 -27.026 -14.064  0.00  0.00    -0.227 OA
BRANCH  14  16
ATOM     16  O   UNL     1      40.996 -24.408 -14.239  0.00  0.00    -0.303 OA
ATOM     17  H   UNL     1      41.441 -24.422 -13.377  0.00  0.00    +0.222 HD
ENDBRANCH  14  16
BRANCH  14  18
ATOM     18  O   UNL     1      40.195 -25.846 -16.169  0.00  0.00    -0.303 OA
ATOM     19  H   UNL     1      39.457 -26.428 -16.407  0.00  0.00    +0.222 HD
ENDBRANCH  14  18
ENDBRANCH  13  14
ENDBRANCH  12  13
ENDBRANCH   3  12
TORSDOF 8
ENDMDL
MODEL 4
REMARK VINA RESULT:      -6.8      2.220      3.141
REMARK  Name = 447634
REMARK  8 active torsions:
REMARK  status: ('A' for Active; 'I' for Inactive)
REMARK    1  A    between atoms: C_2  and  O_6
REMARK    2  A    between atoms: C_3  and  C_12
REMARK    3  A    between atoms: C_4  and  O_8
REMARK    4  A    between atoms: C_5  and  O_10
REMARK    5  A    between atoms: C_12  and  O_13
REMARK    6  A    between atoms: O_13  and  P_14
REMARK    7  A    between atoms: P_14  and  O_16
REMARK    8  A    between atoms: P_14  and  O_18
REMARK                            x       y       z     vdW  Elec       q    Type
REMARK                         _______ _______ _______ _____ _____    ______ ____
ROOT
ATOM      1  O   UNL     1      36.244 -25.688 -11.384  0.00  0.00    -0.326 OA
ATOM      2  C   UNL     1      36.727 -23.781 -12.691  0.00  0.00    +0.172 C 
ATOM      3  C   UNL     1      36.802 -25.298 -12.653  0.00  0.00    +0.177 C 
ATOM      4  C   UNL     1      35.454 -23.517 -11.912  0.00  0.00    +0.196 C 
ATOM      5  C   UNL     1      35.564 -24.556 -10.806  0.00  0.00    +0.262 C 
ENDROOT
BRANCH   2   6
ATOM      6  O   UNL     1      36.688 -23.287 -14.013  0.00  0.00    -0.379 OA
ATOM      7  H   UNL     1      37.123 -22.421 -14.049  0.00  0.00    +0.211 HD
ENDBRANCH   2   6
BRANCH   4   8
ATOM      8  O   UNL     1      34.319 -23.806 -12.723  0.00  0.00    -0.378 OA
ATOM      9  H   UNL     1      33.567 -24.038 -12.156  0.00  0.00    +0.211 HD
ENDBRANCH   4   8
BRANCH   5  10
ATOM     10  O   UNL     1      36.323 -24.014  -9.732  0.00  0.00    -0.358 OA
ATOM     11  H   UNL     1      35.920 -23.180  -9.441  0.00  0.00    +0.213 HD
ENDBRANCH   5  10
BRANCH   3  12
ATOM     12  C   UNL     1      38.217 -25.835 -12.775  0.00  0.00    +0.186 C 
BRANCH  12  13
ATOM     13  O   UNL     1      39.028 -24.851 -13.399  0.00  0.00    -0.271 OA
BRANCH  13  14
ATOM     14  P   UNL     1      39.611 -25.158 -14.877  0.00  0.00    +0.473 P 
ATOM     15  O   UNL     1      41.077 -25.479 -14.925  0.00  0.00    -0.227 OA
BRANCH  14  16
ATOM     16  O   UNL     1      39.156 -23.874 -15.745  0.00  0.00    -0.303 OA
ATOM     17  H   UNL     1      39.875 -23.617 -16.345  0.00  0.00    +0.222 HD
ENDBRANCH  14  16
BRANCH  14  18
ATOM     18  O   UNL     1      38.638 -26.334 -15.412  0.00  0.00    -0.303 OA
ATOM     19  H   UNL     1      38.356 -26.132 -16.318  0.00  0.00    +0.222 HD
ENDBRANCH  14  18
ENDBRANCH  13  14
ENDBRANCH  12  13
ENDBRANCH   3  12
TORSDOF 8
ENDMDL
MODEL 5
REMARK VINA RESULT:      -6.8      2.248      4.026
REMARK  Name = 447634
REMARK  8 active torsions:
REMARK  status: ('A' for Active; 'I' for Inactive)
REMARK    1  A    between atoms: C_2  and  O_6
REMARK    2  A    between atoms: C_3  and  C_12
REMARK    3  A    between atoms: C_4  and  O_8
REMARK    4  A    between atoms: C_5  and  O_10
REMARK    5  A    between atoms: C_12  and  O_13
REMARK    6  A    between atoms: O_13  and  P_14
REMARK    7  A    between atoms: P_14  and  O_16
REMARK    8  A    between atoms: P_14  and  O_18
REMARK                            x       y       z     vdW  Elec       q    Type
REMARK                         _______ _______ _______ _____ _____    ______ ____
ROOT
ATOM      1  O   UNL     1      35.715 -23.284 -13.377  0.00  0.00    -0.326 OA
ATOM      2  C   UNL     1      37.742 -24.106 -12.487  0.00  0.00    +0.172 C 
ATOM      3  C   UNL     1      37.131 -23.322 -13.636  0.00  0.00    +0.177 C 
ATOM      4  C   UNL     1      36.837 -23.720 -11.335  0.00  0.00    +0.196 C 
ATOM      5  C   UNL     1      35.477 -23.707 -12.020  0.00  0.00    +0.262 C 
ENDROOT
BRANCH   2   6
ATOM      6  O   UNL     1      39.096 -23.763 -12.275  0.00  0.00    -0.379 OA
ATOM      7  H   UNL     1      39.359 -24.022 -11.378  0.00  0.00    +0.211 HD
ENDBRANCH   2   6
BRANCH   4   8
ATOM      8  O   UNL     1      37.154 -22.405 -10.888  0.00  0.00    -0.378 OA
ATOM      9  H   UNL     1      37.675 -21.949 -11.568  0.00  0.00    +0.211 HD
ENDBRANCH   4   8
BRANCH   5  10
ATOM     10  O   UNL     1      34.933 -25.021 -11.996  0.00  0.00    -0.358 OA
ATOM     11  H   UNL     1      33.971 -24.970 -11.882  0.00  0.00    +0.213 HD
ENDBRANCH   5  10
BRANCH   3  12
ATOM     12  C   UNL     1      37.385 -23.948 -14.996  0.00  0.00    +0.186 C 
BRANCH  12  13
ATOM     13  O   UNL     1      37.785 -25.297 -14.812  0.00  0.00    -0.271 OA
BRANCH  13  14
ATOM     14  P   UNL     1      36.671 -26.459 -14.977  0.00  0.00    +0.473 P 
ATOM     15  O   UNL     1      36.877 -27.372 -16.151  0.00  0.00    -0.227 OA
BRANCH  14  16
ATOM     16  O   UNL     1      35.269 -25.655 -14.963  0.00  0.00    -0.303 OA
ATOM     17  H   UNL     1      35.179 -25.149 -15.787  0.00  0.00    +0.222 HD
ENDBRANCH  14  16
BRANCH  14  18
ATOM     18  O   UNL     1      36.695 -27.189 -13.533  0.00  0.00    -0.303 OA
ATOM     19  H   UNL     1      35.974 -26.843 -12.985  0.00  0.00    +0.222 HD
ENDBRANCH  14  18
ENDBRANCH  13  14
ENDBRANCH  12  13
ENDBRANCH   3  12
TORSDOF 8
ENDMDL
MODEL 6
REMARK VINA RESULT:      -6.5      1.769      2.083
REMARK  Name = 447634
REMARK  8 active torsions:
REMARK  status: ('A' for Active; 'I' for Inactive)
REMARK    1  A    between atoms: C_2  and  O_6
REMARK    2  A    between atoms: C_3  and  C_12
REMARK    3  A    between atoms: C_4  and  O_8
REMARK    4  A    between atoms: C_5  and  O_10
REMARK    5  A    between atoms: C_12  and  O_13
REMARK    6  A    between atoms: O_13  and  P_14
REMARK    7  A    between atoms: P_14  and  O_16
REMARK    8  A    between atoms: P_14  and  O_18
REMARK                            x       y       z     vdW  Elec       q    Type
REMARK                         _______ _______ _______ _____ _____    ______ ____
ROOT
ATOM      1  O   UNL     1      36.981 -23.170 -13.886  0.00  0.00    -0.326 OA
ATOM      2  C   UNL     1      36.290 -25.029 -12.605  0.00  0.00    +0.172 C 
ATOM      3  C   UNL     1      37.258 -23.858 -12.652  0.00  0.00    +0.177 C 
ATOM      4  C   UNL     1      35.076 -24.453 -13.304  0.00  0.00    +0.196 C 
ATOM      5  C   UNL     1      35.731 -23.649 -14.418  0.00  0.00    +0.262 C 
ENDROOT
BRANCH   2   6
ATOM      6  O   UNL     1      36.030 -25.446 -11.281  0.00  0.00    -0.379 OA
ATOM      7  H   UNL     1      35.560 -26.294 -11.294  0.00  0.00    +0.211 HD
ENDBRANCH   2   6
BRANCH   4   8
ATOM      8  O   UNL     1      34.384 -23.570 -12.427  0.00  0.00    -0.378 OA
ATOM      9  H   UNL     1      33.430 -23.739 -12.483  0.00  0.00    +0.211 HD
ENDBRANCH   4   8
BRANCH   5  10
ATOM     10  O   UNL     1      35.958 -24.501 -15.534  0.00  0.00    -0.358 OA
ATOM     11  H   UNL     1      36.856 -24.359 -15.872  0.00  0.00    +0.213 HD
ENDBRANCH   5  10
BRANCH   3  12
ATOM     12  C   UNL     1      38.716 -24.280 -12.618  0.00  0.00    +0.186 C 
BRANCH  12  13
ATOM     13  O   UNL     1      38.827 -25.590 -13.149  0.00  0.00    -0.271 OA
BRANCH  13  14
ATOM     14  P   UNL     1      39.446 -25.770 -14.633  0.00  0.00    +0.473 P 
ATOM     15  O   UNL     1      40.769 -26.478 -14.687  0.00  0.00    -0.227 OA
BRANCH  14  16
ATOM     16  O   UNL     1      39.438 -24.271 -15.238  0.00  0.00    -0.303 OA
ATOM     17  H   UNL     1      40.122 -23.741 -14.797  0.00  0.00    +0.222 HD
ENDBRANCH  14  16
BRANCH  14  18
ATOM     18  O   UNL     1      38.248 -26.501 -15.437  0.00  0.00    -0.303 OA
ATOM     19  H   UNL     1      37.435 -25.979 -15.350  0.00  0.00    +0.222 HD
ENDBRANCH  14  18
ENDBRANCH  13  14
ENDBRANCH  12  13
ENDBRANCH   3  12
TORSDOF 8
ENDMDL
MODEL 7
REMARK VINA RESULT:      -6.4      2.621      5.163
REMARK  Name = 447634
REMARK  8 active torsions:
REMARK  status: ('A' for Active; 'I' for Inactive)
REMARK    1  A    between atoms: C_2  and  O_6
REMARK    2  A    between atoms: C_3  and  C_12
REMARK    3  A    between atoms: C_4  and  O_8
REMARK    4  A    between atoms: C_5  and  O_10
REMARK    5  A    between atoms: C_12  and  O_13
REMARK    6  A    between atoms: O_13  and  P_14
REMARK    7  A    between atoms: P_14  and  O_16
REMARK    8  A    between atoms: P_14  and  O_18
REMARK                            x       y       z     vdW  Elec       q    Type
REMARK                         _______ _______ _______ _____ _____    ______ ____
ROOT
ATOM      1  O   UNL     1      37.395 -24.581 -13.639  0.00  0.00    -0.326 OA
ATOM      2  C   UNL     1      36.566 -26.358 -14.954  0.00  0.00    +0.172 C 
ATOM      3  C   UNL     1      36.907 -24.877 -14.960  0.00  0.00    +0.177 C 
ATOM      4  C   UNL     1      37.615 -26.911 -14.010  0.00  0.00    +0.196 C 
ATOM      5  C   UNL     1      37.664 -25.819 -12.951  0.00  0.00    +0.262 C 
ENDROOT
BRANCH   2   6
ATOM      6  O   UNL     1      36.625 -26.919 -16.249  0.00  0.00    -0.379 OA
ATOM      7  H   UNL     1      36.851 -26.228 -16.891  0.00  0.00    +0.211 HD
ENDBRANCH   2   6
BRANCH   4   8
ATOM      8  O   UNL     1      38.873 -26.985 -14.673  0.00  0.00    -0.378 OA
ATOM      9  H   UNL     1      39.364 -27.757 -14.349  0.00  0.00    +0.211 HD
ENDBRANCH   4   8
BRANCH   5  10
ATOM     10  O   UNL     1      36.663 -26.074 -11.974  0.00  0.00    -0.358 OA
ATOM     11  H   UNL     1      36.641 -27.024 -11.774  0.00  0.00    +0.213 HD
ENDBRANCH   5  10
BRANCH   3  12
ATOM     12  C   UNL     1      35.719 -23.987 -15.278  0.00  0.00    +0.186 C 
BRANCH  12  13
ATOM     13  O   UNL     1      34.525 -24.720 -15.060  0.00  0.00    -0.271 OA
BRANCH  13  14
ATOM     14  P   UNL     1      33.597 -24.323 -13.795  0.00  0.00    +0.473 P 
ATOM     15  O   UNL     1      34.317 -24.248 -12.480  0.00  0.00    -0.227 OA
BRANCH  14  16
ATOM     16  O   UNL     1      32.382 -25.388 -13.859  0.00  0.00    -0.303 OA
ATOM     17  H   UNL     1      31.556 -24.953 -13.595  0.00  0.00    +0.222 HD
ENDBRANCH  14  16
BRANCH  14  18
ATOM     18  O   UNL     1      32.906 -22.942 -14.275  0.00  0.00    -0.303 OA
ATOM     19  H   UNL     1      33.595 -22.290 -14.478  0.00  0.00    +0.222 HD
ENDBRANCH  14  18
ENDBRANCH  13  14
ENDBRANCH  12  13
ENDBRANCH   3  12
TORSDOF 8
ENDMDL
MODEL 8
REMARK VINA RESULT:      -6.4      1.218      2.307
REMARK  Name = 447634
REMARK  8 active torsions:
REMARK  status: ('A' for Active; 'I' for Inactive)
REMARK    1  A    between atoms: C_2  and  O_6
REMARK    2  A    between atoms: C_3  and  C_12
REMARK    3  A    between atoms: C_4  and  O_8
REMARK    4  A    between atoms: C_5  and  O_10
REMARK    5  A    between atoms: C_12  and  O_13
REMARK    6  A    between atoms: O_13  and  P_14
REMARK    7  A    between atoms: P_14  and  O_16
REMARK    8  A    between atoms: P_14  and  O_18
REMARK                            x       y       z     vdW  Elec       q    Type
REMARK                         _______ _______ _______ _____ _____    ______ ____
ROOT
ATOM      1  O   UNL     1      35.875 -25.313 -15.648  0.00  0.00    -0.326 OA
ATOM      2  C   UNL     1      36.919 -24.192 -13.851  0.00  0.00    +0.172 C 
ATOM      3  C   UNL     1      37.172 -25.037 -15.089  0.00  0.00    +0.177 C 
ATOM      4  C   UNL     1      35.698 -23.396 -14.266  0.00  0.00    +0.196 C 
ATOM      5  C   UNL     1      34.904 -24.449 -15.026  0.00  0.00    +0.262 C 
ENDROOT
BRANCH   2   6
ATOM      6  O   UNL     1      38.031 -23.385 -13.525  0.00  0.00    -0.379 OA
ATOM      7  H   UNL     1      38.498 -23.768 -12.767  0.00  0.00    +0.211 HD
ENDBRANCH   2   6
BRANCH   4   8
ATOM      8  O   UNL     1      36.080 -22.354 -15.160  0.00  0.00    -0.378 OA
ATOM      9  H   UNL     1      36.571 -21.674 -14.673  0.00  0.00    +0.211 HD
ENDBRANCH   4   8
BRANCH   5  10
ATOM     10  O   UNL     1      34.102 -25.179 -14.106  0.00  0.00    -0.358 OA
ATOM     11  H   UNL     1      34.555 -25.225 -13.248  0.00  0.00    +0.213 HD
ENDBRANCH   5  10
BRANCH   3  12
ATOM     12  C   UNL     1      37.890 -26.341 -14.792  0.00  0.00    +0.186 C 
BRANCH  12  13
ATOM     13  O   UNL     1      38.942 -26.088 -13.875  0.00  0.00    -0.271 OA
BRANCH  13  14
ATOM     14  P   UNL     1      40.450 -25.964 -14.448  0.00  0.00    +0.473 P 
ATOM     15  O   UNL     1      41.395 -27.033 -13.979  0.00  0.00    -0.227 OA
BRANCH  14  16
ATOM     16  O   UNL     1      40.880 -24.450 -14.079  0.00  0.00    -0.303 OA
ATOM     17  H   UNL     1      41.847 -24.378 -14.087  0.00  0.00    +0.222 HD
ENDBRANCH  14  16
BRANCH  14  18
ATOM     18  O   UNL     1      40.224 -25.908 -16.048  0.00  0.00    -0.303 OA
ATOM     19  H   UNL     1      40.665 -25.122 -16.409  0.00  0.00    +0.222 HD
ENDBRANCH  14  18
ENDBRANCH  13  14
ENDBRANCH  12  13
ENDBRANCH   3  12
TORSDOF 8
ENDMDL
MODEL 9
REMARK VINA RESULT:      -6.0      2.637      3.931
REMARK  Name = 447634
REMARK  8 active torsions:
REMARK  status: ('A' for Active; 'I' for Inactive)
REMARK    1  A    between atoms: C_2  and  O_6
REMARK    2  A    between atoms: C_3  and  C_12
REMARK    3  A    between atoms: C_4  and  O_8
REMARK    4  A    between atoms: C_5  and  O_10
REMARK    5  A    between atoms: C_12  and  O_13
REMARK    6  A    between atoms: O_13  and  P_14
REMARK    7  A    between atoms: P_14  and  O_16
REMARK    8  A    between atoms: P_14  and  O_18
REMARK                            x       y       z     vdW  Elec       q    Type
REMARK                         _______ _______ _______ _____ _____    ______ ____
ROOT
ATOM      1  O   UNL     1      34.961 -24.969 -14.693  0.00  0.00    -0.326 OA
ATOM      2  C   UNL     1      36.112 -23.163 -15.688  0.00  0.00    +0.172 C 
ATOM      3  C   UNL     1      36.227 -24.624 -15.284  0.00  0.00    +0.177 C 
ATOM      4  C   UNL     1      34.648 -23.063 -16.066  0.00  0.00    +0.196 C 
ATOM      5  C   UNL     1      34.007 -23.932 -14.994  0.00  0.00    +0.262 C 
ENDROOT
BRANCH   2   6
ATOM      6  O   UNL     1      36.988 -22.836 -16.746  0.00  0.00    -0.379 OA
ATOM      7  H   UNL     1      37.358 -23.650 -17.123  0.00  0.00    +0.211 HD
ENDBRANCH   2   6
BRANCH   4   8
ATOM      8  O   UNL     1      34.436 -23.653 -17.344  0.00  0.00    -0.378 OA
ATOM      9  H   UNL     1      34.258 -22.957 -17.997  0.00  0.00    +0.211 HD
ENDBRANCH   4   8
BRANCH   5  10
ATOM     10  O   UNL     1      33.754 -23.138 -13.841  0.00  0.00    -0.358 OA
ATOM     11  H   UNL     1      34.356 -22.376 -13.835  0.00  0.00    +0.213 HD
ENDBRANCH   5  10
BRANCH   3  12
ATOM     12  C   UNL     1      37.345 -24.888 -14.291  0.00  0.00    +0.186 C 
BRANCH  12  13
ATOM     13  O   UNL     1      37.714 -23.663 -13.679  0.00  0.00    -0.271 OA
BRANCH  13  14
ATOM     14  P   UNL     1      37.392 -23.461 -12.106  0.00  0.00    +0.473 P 
ATOM     15  O   UNL     1      37.893 -24.557 -11.211  0.00  0.00    -0.227 OA
BRANCH  14  16
ATOM     16  O   UNL     1      35.795 -23.213 -12.069  0.00  0.00    -0.303 OA
ATOM     17  H   UNL     1      35.439 -23.522 -11.221  0.00  0.00    +0.222 HD
ENDBRANCH  14  16
BRANCH  14  18
ATOM     18  O   UNL     1      38.004 -21.995 -11.799  0.00  0.00    -0.303 OA
ATOM     19  H   UNL     1      37.323 -21.322 -11.955  0.00  0.00    +0.222 HD
ENDBRANCH  14  18
ENDBRANCH  13  14
ENDBRANCH  12  13
ENDBRANCH   3  12
TORSDOF 8
ENDMDL
