MODEL 1
REMARK VINA RESULT:     -12.0      0.000      0.000
REMARK  Name = 71226662
REMARK  4 active torsions:
REMARK  status: ('A' for Active; 'I' for Inactive)
REMARK    1  A    between atoms: C_5  and  C_15
REMARK    2  A    between atoms: C_7  and  C_23
REMARK    3  A    between atoms: C_19  and  C_20
REMARK    4  A    between atoms: C_28  and  C_31
REMARK                            x       y       z     vdW  Elec       q    Type
REMARK                         _______ _______ _______ _____ _____    ______ ____
ROOT
ATOM      1  N   UNL     1      32.930 -24.248 -14.666  0.00  0.00    -0.251 N 
ATOM      2  N   UNL     1      34.871 -23.691 -15.587  0.00  0.00    -0.392 NA
ATOM      3  N   UNL     1      30.286 -23.766 -15.354  0.00  0.00    -0.231 NA
ATOM      4  N   UNL     1      30.856 -22.565 -17.253  0.00  0.00    -0.344 N 
ATOM      5  C   UNL     1      34.292 -24.321 -14.585  0.00  0.00    +0.182 C 
ATOM      6  C   UNL     1      32.622 -23.525 -15.792  0.00  0.00    +0.185 C 
ATOM      7  C   UNL     1      33.836 -23.191 -16.345  0.00  0.00    +0.136 C 
ATOM      8  C   UNL     1      31.922 -24.742 -13.864  0.00  0.00    +0.089 C 
ATOM      9  C   UNL     1      31.230 -23.281 -16.138  0.00  0.00    +0.128 C 
ATOM     10  C   UNL     1      30.654 -24.488 -14.230  0.00  0.00    +0.116 C 
ATOM     11  H   UNL     1      29.901 -22.424 -17.450  0.00  0.00    +0.143 HD
ATOM     12  H   UNL     1      31.542 -22.194 -17.853  0.00  0.00    +0.143 HD
ENDROOT
BRANCH   5  15
ATOM     13  O   UNL     1      36.417 -26.690 -15.393  0.00  0.00    -0.260 OA
ATOM     14  N   UNL     1      36.459 -25.159 -13.650  0.00  0.00    -0.263 N 
ATOM     15  C   UNL     1      35.009 -25.049 -13.463  0.00  0.00    +0.143 C 
ATOM     16  C   UNL     1      34.866 -24.333 -12.114  0.00  0.00    +0.030 C 
ATOM     17  C   UNL     1      36.129 -23.482 -12.018  0.00  0.00    +0.024 C 
ATOM     18  C   UNL     1      37.187 -24.359 -12.669  0.00  0.00    +0.095 C 
ATOM     19  C   UNL     1      37.034 -26.021 -14.572  0.00  0.00    +0.293 C 
BRANCH  19  20
ATOM     20  C   UNL     1      38.475 -26.135 -14.560  0.00  0.00    -0.007 C 
ATOM     21  C   UNL     1      39.672 -26.229 -14.550  0.00  0.00    -0.081 C 
ATOM     22  C   UNL     1      41.130 -26.345 -14.537  0.00  0.00    +0.090 C 
ENDBRANCH  19  20
ENDBRANCH   5  15
BRANCH   7  23
ATOM     23  C   UNL     1      34.058 -22.434 -17.538  0.00  0.00    +0.028 C 
ATOM     24  C   UNL     1      32.976 -22.052 -18.333  0.00  0.00    +0.002 C 
ATOM     25  C   UNL     1      35.355 -22.078 -17.907  0.00  0.00    +0.002 C 
ATOM     26  C   UNL     1      33.193 -21.315 -19.497  0.00  0.00    +0.005 C 
ATOM     27  C   UNL     1      35.571 -21.341 -19.071  0.00  0.00    +0.005 C 
ATOM     28  C   UNL     1      34.491 -20.959 -19.866  0.00  0.00    +0.054 C 
BRANCH  28  31
ATOM     29  O   UNL     1      35.202 -20.756 -22.072  0.00  0.00    -0.270 OA
ATOM     30  N   UNL     1      34.378 -18.830 -21.013  0.00  0.00    -0.266 N 
ATOM     31  C   UNL     1      34.716 -20.189 -21.079  0.00  0.00    +0.251 C 
ATOM     32  H   UNL     1      34.001 -18.524 -20.157  0.00  0.00    +0.157 HD
ATOM     33  N   UNL     1      34.114 -16.578 -21.734  0.00  0.00    -0.229 NA
ATOM     34  C   UNL     1      34.508 -17.840 -22.018  0.00  0.00    +0.134 C 
ATOM     35  C   UNL     1      35.034 -18.232 -23.238  0.00  0.00    +0.034 C 
ATOM     36  C   UNL     1      35.166 -17.267 -24.230  0.00  0.00    +0.004 C 
ATOM     37  C   UNL     1      34.256 -15.668 -22.723  0.00  0.00    +0.100 C 
ATOM     38  C   UNL     1      34.772 -15.958 -23.976  0.00  0.00    +0.021 C 
ENDBRANCH  28  31
ENDBRANCH   7  23
TORSDOF 4
ENDMDL
MODEL 2
REMARK VINA RESULT:     -11.0     11.192     19.874
REMARK  Name = 71226662
REMARK  4 active torsions:
REMARK  status: ('A' for Active; 'I' for Inactive)
REMARK    1  A    between atoms: C_5  and  C_15
REMARK    2  A    between atoms: C_7  and  C_23
REMARK    3  A    between atoms: C_19  and  C_20
REMARK    4  A    between atoms: C_28  and  C_31
REMARK                            x       y       z     vdW  Elec       q    Type
REMARK                         _______ _______ _______ _____ _____    ______ ____
ROOT
ATOM      1  N   UNL     1      31.689  -3.358 -25.374  0.00  0.00    -0.251 N 
ATOM      2  N   UNL     1      32.508  -5.241 -26.217  0.00  0.00    -0.392 NA
ATOM      3  N   UNL     1      30.520  -2.708 -22.943  0.00  0.00    -0.231 NA
ATOM      4  N   UNL     1      30.718  -4.865 -22.117  0.00  0.00    -0.344 N 
ATOM      5  C   UNL     1      32.284  -3.963 -26.446  0.00  0.00    +0.182 C 
ATOM      6  C   UNL     1      31.525  -4.313 -24.401  0.00  0.00    +0.185 C 
ATOM      7  C   UNL     1      32.038  -5.468 -24.944  0.00  0.00    +0.136 C 
ATOM      8  C   UNL     1      31.271  -2.063 -25.149  0.00  0.00    +0.089 C 
ATOM      9  C   UNL     1      30.910  -3.955 -23.131  0.00  0.00    +0.128 C 
ATOM     10  C   UNL     1      30.710  -1.787 -23.960  0.00  0.00    +0.116 C 
ATOM     11  H   UNL     1      30.298  -4.580 -21.273  0.00  0.00    +0.143 HD
ATOM     12  H   UNL     1      31.002  -5.801 -22.233  0.00  0.00    +0.143 HD
ENDROOT
BRANCH   5  15
ATOM     13  O   UNL     1      34.738  -1.786 -26.347  0.00  0.00    -0.260 OA
ATOM     14  N   UNL     1      34.056  -3.210 -28.047  0.00  0.00    -0.263 N 
ATOM     15  C   UNL     1      32.626  -3.216 -27.722  0.00  0.00    +0.143 C 
ATOM     16  C   UNL     1      31.971  -3.842 -28.961  0.00  0.00    +0.030 C 
ATOM     17  C   UNL     1      33.052  -4.763 -29.518  0.00  0.00    +0.024 C 
ATOM     18  C   UNL     1      34.336  -3.995 -29.246  0.00  0.00    +0.095 C 
ATOM     19  C   UNL     1      34.980  -2.443 -27.354  0.00  0.00    +0.293 C 
BRANCH  19  20
ATOM     20  C   UNL     1      36.333  -2.420 -27.862  0.00  0.00    -0.007 C 
ATOM     21  C   UNL     1      37.457  -2.400 -28.284  0.00  0.00    -0.081 C 
ATOM     22  C   UNL     1      38.826  -2.376 -28.799  0.00  0.00    +0.090 C 
ENDBRANCH  19  20
ENDBRANCH   5  15
BRANCH   7  23
ATOM     23  C   UNL     1      32.103  -6.754 -24.322  0.00  0.00    +0.028 C 
ATOM     24  C   UNL     1      30.939  -7.504 -24.146  0.00  0.00    +0.002 C 
ATOM     25  C   UNL     1      33.330  -7.259 -23.891  0.00  0.00    +0.002 C 
ATOM     26  C   UNL     1      31.003  -8.758 -23.538  0.00  0.00    +0.005 C 
ATOM     27  C   UNL     1      33.393  -8.513 -23.284  0.00  0.00    +0.005 C 
ATOM     28  C   UNL     1      32.230  -9.263 -23.108  0.00  0.00    +0.054 C 
BRANCH  28  31
ATOM     29  O   UNL     1      31.879 -10.701 -21.313  0.00  0.00    -0.270 OA
ATOM     30  N   UNL     1      32.861 -11.596 -23.247  0.00  0.00    -0.266 N 
ATOM     31  C   UNL     1      32.296 -10.571 -22.476  0.00  0.00    +0.251 C 
ATOM     32  H   UNL     1      33.146 -11.341 -24.155  0.00  0.00    +0.157 HD
ATOM     33  N   UNL     1      33.643 -13.773 -23.803  0.00  0.00    -0.229 NA
ATOM     34  C   UNL     1      33.077 -12.950 -22.892  0.00  0.00    +0.134 C 
ATOM     35  C   UNL     1      32.689 -13.348 -21.623  0.00  0.00    +0.034 C 
ATOM     36  C   UNL     1      32.897 -14.675 -21.264  0.00  0.00    +0.004 C 
ATOM     37  C   UNL     1      33.829 -15.056 -23.419  0.00  0.00    +0.100 C 
ATOM     38  C   UNL     1      33.477 -15.552 -22.174  0.00  0.00    +0.021 C 
ENDBRANCH  28  31
ENDBRANCH   7  23
TORSDOF 4
ENDMDL
MODEL 3
REMARK VINA RESULT:     -10.8      9.138     16.802
REMARK  Name = 71226662
REMARK  4 active torsions:
REMARK  status: ('A' for Active; 'I' for Inactive)
REMARK    1  A    between atoms: C_5  and  C_15
REMARK    2  A    between atoms: C_7  and  C_23
REMARK    3  A    between atoms: C_19  and  C_20
REMARK    4  A    between atoms: C_28  and  C_31
REMARK                            x       y       z     vdW  Elec       q    Type
REMARK                         _______ _______ _______ _____ _____    ______ ____
ROOT
ATOM      1  N   UNL     1      32.435  -6.940 -21.831  0.00  0.00    -0.251 N 
ATOM      2  N   UNL     1      32.937  -7.698 -23.856  0.00  0.00    -0.392 NA
ATOM      3  N   UNL     1      31.986  -8.178 -19.389  0.00  0.00    -0.231 NA
ATOM      4  N   UNL     1      32.330 -10.303 -20.249  0.00  0.00    -0.344 N 
ATOM      5  C   UNL     1      32.700  -6.622 -23.134  0.00  0.00    +0.182 C 
ATOM      6  C   UNL     1      32.510  -8.307 -21.717  0.00  0.00    +0.185 C 
ATOM      7  C   UNL     1      32.820  -8.753 -22.980  0.00  0.00    +0.136 C 
ATOM      8  C   UNL     1      32.134  -6.169 -20.727  0.00  0.00    +0.089 C 
ATOM      9  C   UNL     1      32.270  -8.940 -20.429  0.00  0.00    +0.128 C 
ATOM     10  C   UNL     1      31.924  -6.805 -19.562  0.00  0.00    +0.116 C 
ATOM     11  H   UNL     1      32.162 -10.690 -19.359  0.00  0.00    +0.143 HD
ATOM     12  H   UNL     1      32.542 -10.892 -21.009  0.00  0.00    +0.143 HD
ENDROOT
BRANCH   5  15
ATOM     13  O   UNL     1      34.659  -5.900 -25.667  0.00  0.00    -0.260 OA
ATOM     14  N   UNL     1      32.567  -5.073 -25.097  0.00  0.00    -0.263 N 
ATOM     15  C   UNL     1      32.709  -5.192 -23.642  0.00  0.00    +0.143 C 
ATOM     16  C   UNL     1      31.540  -4.366 -23.091  0.00  0.00    +0.030 C 
ATOM     17  C   UNL     1      30.475  -4.471 -24.178  0.00  0.00    +0.024 C 
ATOM     18  C   UNL     1      31.289  -4.468 -25.462  0.00  0.00    +0.095 C 
ATOM     19  C   UNL     1      33.588  -5.391 -25.980  0.00  0.00    +0.293 C 
BRANCH  19  20
ATOM     20  C   UNL     1      33.368  -5.098 -27.378  0.00  0.00    -0.007 C 
ATOM     21  C   UNL     1      33.185  -4.854 -28.540  0.00  0.00    -0.081 C 
ATOM     22  C   UNL     1      32.962  -4.559 -29.954  0.00  0.00    +0.090 C 
ENDBRANCH  19  20
ENDBRANCH   5  15
BRANCH   7  23
ATOM     23  C   UNL     1      33.009 -10.111 -23.388  0.00  0.00    +0.028 C 
ATOM     24  C   UNL     1      32.252 -11.128 -22.804  0.00  0.00    +0.002 C 
ATOM     25  C   UNL     1      33.951 -10.419 -24.370  0.00  0.00    +0.002 C 
ATOM     26  C   UNL     1      32.438 -12.451 -23.201  0.00  0.00    +0.005 C 
ATOM     27  C   UNL     1      34.136 -11.743 -24.768  0.00  0.00    +0.005 C 
ATOM     28  C   UNL     1      33.380 -12.760 -24.184  0.00  0.00    +0.054 C 
BRANCH  28  31
ATOM     29  O   UNL     1      33.140 -14.501 -25.707  0.00  0.00    -0.270 OA
ATOM     30  N   UNL     1      34.224 -14.971 -23.679  0.00  0.00    -0.266 N 
ATOM     31  C   UNL     1      33.571 -14.140 -24.599  0.00  0.00    +0.251 C 
ATOM     32  H   UNL     1      34.510 -14.541 -22.841  0.00  0.00    +0.157 HD
ATOM     33  N   UNL     1      35.169 -16.959 -22.775  0.00  0.00    -0.229 NA
ATOM     34  C   UNL     1      34.526 -16.351 -23.797  0.00  0.00    +0.134 C 
ATOM     35  C   UNL     1      34.140 -16.993 -24.962  0.00  0.00    +0.034 C 
ATOM     36  C   UNL     1      34.430 -18.346 -25.087  0.00  0.00    +0.004 C 
ATOM     37  C   UNL     1      35.436 -18.275 -22.932  0.00  0.00    +0.100 C 
ATOM     38  C   UNL     1      35.091 -19.008 -24.057  0.00  0.00    +0.021 C 
ENDBRANCH  28  31
ENDBRANCH   7  23
TORSDOF 4
ENDMDL
MODEL 4
REMARK VINA RESULT:      -9.4      1.611      2.893
REMARK  Name = 71226662
REMARK  4 active torsions:
REMARK  status: ('A' for Active; 'I' for Inactive)
REMARK    1  A    between atoms: C_5  and  C_15
REMARK    2  A    between atoms: C_7  and  C_23
REMARK    3  A    between atoms: C_19  and  C_20
REMARK    4  A    between atoms: C_28  and  C_31
REMARK                            x       y       z     vdW  Elec       q    Type
REMARK                         _______ _______ _______ _____ _____    ______ ____
ROOT
ATOM      1  N   UNL     1      34.961 -23.722 -15.719  0.00  0.00    -0.251 N 
ATOM      2  N   UNL     1      36.585 -22.793 -16.913  0.00  0.00    -0.392 NA
ATOM      3  N   UNL     1      32.197 -23.744 -15.954  0.00  0.00    -0.231 NA
ATOM      4  N   UNL     1      32.212 -22.431 -17.864  0.00  0.00    -0.344 N 
ATOM      5  C   UNL     1      36.307 -23.535 -15.860  0.00  0.00    +0.182 C 
ATOM      6  C   UNL     1      34.342 -23.056 -16.748  0.00  0.00    +0.185 C 
ATOM      7  C   UNL     1      35.365 -22.489 -17.472  0.00  0.00    +0.136 C 
ATOM      8  C   UNL     1      34.208 -24.409 -14.789  0.00  0.00    +0.089 C 
ATOM      9  C   UNL     1      32.891 -23.077 -16.857  0.00  0.00    +0.128 C 
ATOM     10  C   UNL     1      32.873 -24.397 -14.936  0.00  0.00    +0.116 C 
ATOM     11  H   UNL     1      31.228 -22.472 -17.900  0.00  0.00    +0.143 HD
ATOM     12  H   UNL     1      32.708 -21.928 -18.550  0.00  0.00    +0.143 HD
ENDROOT
BRANCH   5  15
ATOM     13  O   UNL     1      36.444 -22.316 -12.815  0.00  0.00    -0.260 OA
ATOM     14  N   UNL     1      36.770 -24.480 -13.588  0.00  0.00    -0.263 N 
ATOM     15  C   UNL     1      37.322 -24.128 -14.900  0.00  0.00    +0.143 C 
ATOM     16  C   UNL     1      37.914 -25.446 -15.414  0.00  0.00    +0.030 C 
ATOM     17  C   UNL     1      37.051 -26.517 -14.753  0.00  0.00    +0.024 C 
ATOM     18  C   UNL     1      36.756 -25.926 -13.383  0.00  0.00    +0.095 C 
ATOM     19  C   UNL     1      36.430 -23.529 -12.637  0.00  0.00    +0.293 C 
BRANCH  19  20
ATOM     20  C   UNL     1      36.028 -24.012 -11.334  0.00  0.00    -0.007 C 
ATOM     21  C   UNL     1      35.694 -24.412 -10.253  0.00  0.00    -0.081 C 
ATOM     22  C   UNL     1      35.287 -24.901  -8.936  0.00  0.00    +0.090 C 
ENDBRANCH  19  20
ENDBRANCH   5  15
BRANCH   7  23
ATOM     23  C   UNL     1      35.242 -21.688 -18.651  0.00  0.00    +0.028 C 
ATOM     24  C   UNL     1      33.987 -21.480 -19.226  0.00  0.00    +0.002 C 
ATOM     25  C   UNL     1      36.376 -21.114 -19.226  0.00  0.00    +0.002 C 
ATOM     26  C   UNL     1      33.868 -20.699 -20.375  0.00  0.00    +0.005 C 
ATOM     27  C   UNL     1      36.256 -20.334 -20.375  0.00  0.00    +0.005 C 
ATOM     28  C   UNL     1      35.003 -20.126 -20.950  0.00  0.00    +0.054 C 
BRANCH  28  31
ATOM     29  O   UNL     1      35.153 -19.813 -23.250  0.00  0.00    -0.270 OA
ATOM     30  N   UNL     1      34.467 -17.986 -21.947  0.00  0.00    -0.266 N 
ATOM     31  C   UNL     1      34.878 -19.311 -22.148  0.00  0.00    +0.251 C 
ATOM     32  H   UNL     1      34.283 -17.732 -21.014  0.00  0.00    +0.157 HD
ATOM     33  N   UNL     1      33.877 -15.745 -22.489  0.00  0.00    -0.229 NA
ATOM     34  C   UNL     1      34.283 -16.964 -22.911  0.00  0.00    +0.134 C 
ATOM     35  C   UNL     1      34.532 -17.283 -24.236  0.00  0.00    +0.034 C 
ATOM     36  C   UNL     1      34.355 -16.286 -25.189  0.00  0.00    +0.004 C 
ATOM     37  C   UNL     1      33.715 -14.802 -23.444  0.00  0.00    +0.100 C 
ATOM     38  C   UNL     1      33.938 -15.019 -24.794  0.00  0.00    +0.021 C 
ENDBRANCH  28  31
ENDBRANCH   7  23
TORSDOF 4
ENDMDL
MODEL 5
REMARK VINA RESULT:      -9.3      4.639     13.459
REMARK  Name = 71226662
REMARK  4 active torsions:
REMARK  status: ('A' for Active; 'I' for Inactive)
REMARK    1  A    between atoms: C_5  and  C_15
REMARK    2  A    between atoms: C_7  and  C_23
REMARK    3  A    between atoms: C_19  and  C_20
REMARK    4  A    between atoms: C_28  and  C_31
REMARK                            x       y       z     vdW  Elec       q    Type
REMARK                         _______ _______ _______ _____ _____    ______ ____
ROOT
ATOM      1  N   UNL     1      33.114 -12.975 -25.775  0.00  0.00    -0.251 N 
ATOM      2  N   UNL     1      33.883 -12.902 -23.695  0.00  0.00    -0.392 NA
ATOM      3  N   UNL     1      32.578 -15.050 -27.538  0.00  0.00    -0.231 NA
ATOM      4  N   UNL     1      33.233 -16.683 -26.027  0.00  0.00    -0.344 N 
ATOM      5  C   UNL     1      33.462 -12.184 -24.716  0.00  0.00    +0.182 C 
ATOM      6  C   UNL     1      33.327 -14.280 -25.403  0.00  0.00    +0.185 C 
ATOM      7  C   UNL     1      33.803 -14.210 -24.115  0.00  0.00    +0.136 C 
ATOM      8  C   UNL     1      32.630 -12.685 -27.035  0.00  0.00    +0.089 C 
ATOM      9  C   UNL     1      33.041 -15.356 -26.340  0.00  0.00    +0.128 C 
ATOM     10  C   UNL     1      32.383 -13.716 -27.860  0.00  0.00    +0.116 C 
ATOM     11  H   UNL     1      33.026 -17.380 -26.692  0.00  0.00    +0.143 HD
ATOM     12  H   UNL     1      33.576 -16.936 -25.140  0.00  0.00    +0.143 HD
ENDROOT
BRANCH   5  15
ATOM     13  O   UNL     1      31.132 -10.749 -22.903  0.00  0.00    -0.260 OA
ATOM     14  N   UNL     1      33.278 -10.041 -23.433  0.00  0.00    -0.263 N 
ATOM     15  C   UNL     1      33.360 -10.671 -24.756  0.00  0.00    +0.143 C 
ATOM     16  C   UNL     1      34.590 -10.016 -25.397  0.00  0.00    +0.030 C 
ATOM     17  C   UNL     1      35.478  -9.665 -24.207  0.00  0.00    +0.024 C 
ATOM     18  C   UNL     1      34.478  -9.266 -23.134  0.00  0.00    +0.095 C 
ATOM     19  C   UNL     1      32.137 -10.095 -22.646  0.00  0.00    +0.293 C 
BRANCH  19  20
ATOM     20  C   UNL     1      32.139  -9.318 -21.427  0.00  0.00    -0.007 C 
ATOM     21  C   UNL     1      32.140  -8.672 -20.415  0.00  0.00    -0.081 C 
ATOM     22  C   UNL     1      32.141  -7.886 -19.182  0.00  0.00    +0.090 C 
ENDBRANCH  19  20
ENDBRANCH   5  15
BRANCH   7  23
ATOM     23  C   UNL     1      34.177 -15.307 -23.277  0.00  0.00    +0.028 C 
ATOM     24  C   UNL     1      33.513 -15.520 -22.068  0.00  0.00    +0.002 C 
ATOM     25  C   UNL     1      35.206 -16.164 -23.668  0.00  0.00    +0.002 C 
ATOM     26  C   UNL     1      33.880 -16.590 -21.251  0.00  0.00    +0.005 C 
ATOM     27  C   UNL     1      35.571 -17.233 -22.851  0.00  0.00    +0.005 C 
ATOM     28  C   UNL     1      34.909 -17.447 -21.643  0.00  0.00    +0.054 C 
BRANCH  28  31
ATOM     29  O   UNL     1      36.463 -18.645 -20.394  0.00  0.00    -0.270 OA
ATOM     30  N   UNL     1      34.275 -19.487 -20.504  0.00  0.00    -0.266 N 
ATOM     31  C   UNL     1      35.289 -18.563 -20.791  0.00  0.00    +0.251 C 
ATOM     32  H   UNL     1      33.392 -19.287 -20.890  0.00  0.00    +0.157 HD
ATOM     33  N   UNL     1      33.240 -21.421 -19.583  0.00  0.00    -0.229 NA
ATOM     34  C   UNL     1      34.356 -20.671 -19.731  0.00  0.00    +0.134 C 
ATOM     35  C   UNL     1      35.583 -20.987 -19.170  0.00  0.00    +0.034 C 
ATOM     36  C   UNL     1      35.672 -22.148 -18.410  0.00  0.00    +0.004 C 
ATOM     37  C   UNL     1      33.365 -22.542 -18.837  0.00  0.00    +0.100 C 
ATOM     38  C   UNL     1      34.546 -22.946 -18.236  0.00  0.00    +0.021 C 
ENDBRANCH  28  31
ENDBRANCH   7  23
TORSDOF 4
ENDMDL
