MODEL 1
REMARK VINA RESULT:      -6.9      0.000      0.000
REMARK  Name = 24916881
REMARK  9 active torsions:
REMARK  status: ('A' for Active; 'I' for Inactive)
REMARK    1  A    between atoms: C_1  and  C_4
REMARK    2  A    between atoms: C_1  and  C_5
REMARK    3  A    between atoms: C_1  and  C_12
REMARK    4  A    between atoms: C_5  and  C_6
REMARK    5  A    between atoms: C_6  and  C_7
REMARK    6  A    between atoms: C_7  and  N_8
REMARK    7  A    between atoms: C_12  and  C_15
REMARK    8  A    between atoms: N_13  and  C_18
REMARK    9  A    between atoms: C_18  and  C_19
REMARK                            x       y       z     vdW  Elec       q    Type
REMARK                         _______ _______ _______ _____ _____    ______ ____
ROOT
ATOM      1  C   UNL     1      35.258 -19.533 -21.562  0.00  0.00    +0.109 C 
ENDROOT
BRANCH   1   4
ATOM      2  O   UNL     1      36.862 -19.455 -19.796  0.00  0.00    -0.246 OA
ATOM      3  O   UNL     1      36.011 -21.476 -20.440  0.00  0.00    -0.246 OA
ATOM      4  C   UNL     1      36.133 -20.218 -20.490  0.00  0.00    +0.365 C 
ENDBRANCH   1   4
BRANCH   1   5
ATOM      5  C   UNL     1      33.936 -19.048 -20.941  0.00  0.00    +0.009 C 
BRANCH   5   6
ATOM      6  C   UNL     1      32.866 -20.148 -20.907  0.00  0.00    -0.023 C 
BRANCH   6   7
ATOM      7  C   UNL     1      32.744 -20.830 -19.549  0.00  0.00    -0.086 C 
BRANCH   7   8
ATOM      8  N   UNL     1      33.138 -22.255 -19.642  0.00  0.00    +0.380 N 
ATOM      9  H   UNL     1      32.322 -22.845 -19.483  0.00  0.00    -0.089 HD
ATOM     10  H   UNL     1      33.846 -22.458 -18.935  0.00  0.00    -0.089 HD
ATOM     11  H   UNL     1      33.520 -22.443 -20.569  0.00  0.00    -0.089 HD
ENDBRANCH   7   8
ENDBRANCH   6   7
ENDBRANCH   5   6
ENDBRANCH   1   5
BRANCH   1  12
ATOM     12  C   UNL     1      36.034 -18.344 -22.157  0.00  0.00    +0.054 C 
BRANCH  12  15
ATOM     13  N   UNL     1      34.148 -16.108 -24.347  0.00  0.00    -0.247 NA
ATOM     14  N   UNL     1      34.937 -18.184 -24.403  0.00  0.00    -0.259 NA
ATOM     15  C   UNL     1      35.254 -17.590 -23.207  0.00  0.00    +0.050 C 
ATOM     16  C   UNL     1      34.775 -16.302 -23.150  0.00  0.00    +0.115 C 
ATOM     17  C   UNL     1      34.270 -17.265 -25.066  0.00  0.00    +0.200 C 
BRANCH  13  18
ATOM     18  C   UNL     1      33.477 -14.905 -24.776  0.00  0.00    +0.074 C 
BRANCH  18  19
ATOM     19  C   UNL     1      33.030 -14.997 -26.235  0.00  0.00    +0.017 C 
ATOM     20  C   UNL     1      33.239 -13.679 -26.964  0.00  0.00    +0.001 C 
ENDBRANCH  18  19
ENDBRANCH  13  18
ENDBRANCH  12  15
ENDBRANCH   1  12
TORSDOF 9
ENDMDL
MODEL 2
REMARK VINA RESULT:      -6.9      7.307     10.346
REMARK  Name = 24916881
REMARK  9 active torsions:
REMARK  status: ('A' for Active; 'I' for Inactive)
REMARK    1  A    between atoms: C_1  and  C_4
REMARK    2  A    between atoms: C_1  and  C_5
REMARK    3  A    between atoms: C_1  and  C_12
REMARK    4  A    between atoms: C_5  and  C_6
REMARK    5  A    between atoms: C_6  and  C_7
REMARK    6  A    between atoms: C_7  and  N_8
REMARK    7  A    between atoms: C_12  and  C_15
REMARK    8  A    between atoms: N_13  and  C_18
REMARK    9  A    between atoms: C_18  and  C_19
REMARK                            x       y       z     vdW  Elec       q    Type
REMARK                         _______ _______ _______ _____ _____    ______ ____
ROOT
ATOM      1  C   UNL     1      36.744 -24.002 -12.579  0.00  0.00    +0.109 C 
ENDROOT
BRANCH   1   4
ATOM      2  O   UNL     1      36.599 -23.880 -10.200  0.00  0.00    -0.246 OA
ATOM      3  O   UNL     1      34.929 -24.917 -11.366  0.00  0.00    -0.246 OA
ATOM      4  C   UNL     1      36.023 -24.292 -11.245  0.00  0.00    +0.365 C 
ENDBRANCH   1   4
BRANCH   1   5
ATOM      5  C   UNL     1      38.245 -24.316 -12.453  0.00  0.00    +0.009 C 
BRANCH   5   6
ATOM      6  C   UNL     1      38.619 -25.663 -13.088  0.00  0.00    -0.023 C 
BRANCH   6   7
ATOM      7  C   UNL     1      39.759 -25.560 -14.093  0.00  0.00    -0.086 C 
BRANCH   7   8
ATOM      8  N   UNL     1      39.314 -24.862 -15.322  0.00  0.00    +0.380 N 
ATOM      9  H   UNL     1      38.556 -25.389 -15.757  0.00  0.00    -0.089 HD
ATOM     10  H   UNL     1      40.095 -24.791 -15.975  0.00  0.00    -0.089 HD
ATOM     11  H   UNL     1      38.985 -23.927 -15.082  0.00  0.00    -0.089 HD
ENDBRANCH   7   8
ENDBRANCH   6   7
ENDBRANCH   5   6
ENDBRANCH   1   5
BRANCH   1  12
ATOM     12  C   UNL     1      36.112 -24.863 -13.688  0.00  0.00    +0.054 C 
BRANCH  12  15
ATOM     13  N   UNL     1      34.772 -23.220 -16.664  0.00  0.00    -0.247 NA
ATOM     14  N   UNL     1      36.627 -23.154 -15.445  0.00  0.00    -0.259 NA
ATOM     15  C   UNL     1      35.750 -24.071 -14.922  0.00  0.00    +0.050 C 
ATOM     16  C   UNL     1      34.593 -24.130 -15.662  0.00  0.00    +0.115 C 
ATOM     17  C   UNL     1      36.007 -22.659 -16.493  0.00  0.00    +0.200 C 
BRANCH  13  18
ATOM     18  C   UNL     1      33.831 -22.907 -17.712  0.00  0.00    +0.074 C 
BRANCH  18  19
ATOM     19  C   UNL     1      34.504 -22.181 -18.878  0.00  0.00    +0.017 C 
ATOM     20  C   UNL     1      33.526 -21.273 -19.606  0.00  0.00    +0.001 C 
ENDBRANCH  18  19
ENDBRANCH  13  18
ENDBRANCH  12  15
ENDBRANCH   1  12
TORSDOF 9
ENDMDL
MODEL 3
REMARK VINA RESULT:      -6.8      2.790      3.625
REMARK  Name = 24916881
REMARK  9 active torsions:
REMARK  status: ('A' for Active; 'I' for Inactive)
REMARK    1  A    between atoms: C_1  and  C_4
REMARK    2  A    between atoms: C_1  and  C_5
REMARK    3  A    between atoms: C_1  and  C_12
REMARK    4  A    between atoms: C_5  and  C_6
REMARK    5  A    between atoms: C_6  and  C_7
REMARK    6  A    between atoms: C_7  and  N_8
REMARK    7  A    between atoms: C_12  and  C_15
REMARK    8  A    between atoms: N_13  and  C_18
REMARK    9  A    between atoms: C_18  and  C_19
REMARK                            x       y       z     vdW  Elec       q    Type
REMARK                         _______ _______ _______ _____ _____    ______ ____
ROOT
ATOM      1  C   UNL     1      34.615 -20.293 -20.477  0.00  0.00    +0.109 C 
ENDROOT
BRANCH   1   4
ATOM      2  O   UNL     1      33.114 -21.920 -19.583  0.00  0.00    -0.246 OA
ATOM      3  O   UNL     1      32.272 -20.173 -20.793  0.00  0.00    -0.246 OA
ATOM      4  C   UNL     1      33.193 -20.856 -20.259  0.00  0.00    +0.365 C 
ENDBRANCH   1   4
BRANCH   1   5
ATOM      5  C   UNL     1      35.664 -21.397 -20.260  0.00  0.00    +0.009 C 
BRANCH   5   6
ATOM      6  C   UNL     1      36.749 -20.985 -19.255  0.00  0.00    -0.023 C 
BRANCH   6   7
ATOM      7  C   UNL     1      36.614 -21.676 -17.904  0.00  0.00    -0.086 C 
BRANCH   7   8
ATOM      8  N   UNL     1      37.293 -20.893 -16.844  0.00  0.00    +0.380 N 
ATOM      9  H   UNL     1      38.156 -21.364 -16.573  0.00  0.00    -0.089 HD
ATOM     10  H   UNL     1      36.679 -20.816 -16.033  0.00  0.00    -0.089 HD
ATOM     11  H   UNL     1      37.509 -19.961 -17.196  0.00  0.00    -0.089 HD
ENDBRANCH   7   8
ENDBRANCH   6   7
ENDBRANCH   5   6
ENDBRANCH   1   5
BRANCH   1  12
ATOM     12  C   UNL     1      34.717 -19.735 -21.908  0.00  0.00    +0.054 C 
BRANCH  12  15
ATOM     13  N   UNL     1      34.657 -16.102 -21.513  0.00  0.00    -0.247 NA
ATOM     14  N   UNL     1      35.154 -17.575 -23.099  0.00  0.00    -0.259 NA
ATOM     15  C   UNL     1      34.763 -18.226 -21.956  0.00  0.00    +0.050 C 
ATOM     16  C   UNL     1      34.450 -17.333 -20.959  0.00  0.00    +0.115 C 
ATOM     17  C   UNL     1      35.080 -16.298 -22.799  0.00  0.00    +0.200 C 
BRANCH  13  18
ATOM     18  C   UNL     1      34.466 -14.829 -20.863  0.00  0.00    +0.074 C 
BRANCH  18  19
ATOM     19  C   UNL     1      32.984 -14.518 -20.653  0.00  0.00    +0.017 C 
ATOM     20  C   UNL     1      32.374 -13.868 -21.885  0.00  0.00    +0.001 C 
ENDBRANCH  18  19
ENDBRANCH  13  18
ENDBRANCH  12  15
ENDBRANCH   1  12
TORSDOF 9
ENDMDL
MODEL 4
REMARK VINA RESULT:      -6.7      7.793     10.774
REMARK  Name = 24916881
REMARK  9 active torsions:
REMARK  status: ('A' for Active; 'I' for Inactive)
REMARK    1  A    between atoms: C_1  and  C_4
REMARK    2  A    between atoms: C_1  and  C_5
REMARK    3  A    between atoms: C_1  and  C_12
REMARK    4  A    between atoms: C_5  and  C_6
REMARK    5  A    between atoms: C_6  and  C_7
REMARK    6  A    between atoms: C_7  and  N_8
REMARK    7  A    between atoms: C_12  and  C_15
REMARK    8  A    between atoms: N_13  and  C_18
REMARK    9  A    between atoms: C_18  and  C_19
REMARK                            x       y       z     vdW  Elec       q    Type
REMARK                         _______ _______ _______ _____ _____    ______ ____
ROOT
ATOM      1  C   UNL     1      36.509 -23.585 -12.881  0.00  0.00    +0.109 C 
ENDROOT
BRANCH   1   4
ATOM      2  O   UNL     1      38.242 -22.591 -11.574  0.00  0.00    -0.246 OA
ATOM      3  O   UNL     1      36.622 -23.819 -10.529  0.00  0.00    -0.246 OA
ATOM      4  C   UNL     1      37.197 -23.299 -11.528  0.00  0.00    +0.365 C 
ENDBRANCH   1   4
BRANCH   1   5
ATOM      5  C   UNL     1      37.456 -24.370 -13.805  0.00  0.00    +0.009 C 
BRANCH   5   6
ATOM      6  C   UNL     1      37.560 -25.851 -13.416  0.00  0.00    -0.023 C 
BRANCH   6   7
ATOM      7  C   UNL     1      37.512 -26.794 -14.612  0.00  0.00    -0.086 C 
BRANCH   7   8
ATOM      8  N   UNL     1      36.138 -26.873 -15.162  0.00  0.00    +0.380 N 
ATOM      9  H   UNL     1      35.737 -25.937 -15.213  0.00  0.00    -0.089 HD
ATOM     10  H   UNL     1      35.562 -27.455 -14.553  0.00  0.00    -0.089 HD
ATOM     11  H   UNL     1      36.168 -27.283 -16.095  0.00  0.00    -0.089 HD
ENDBRANCH   7   8
ENDBRANCH   6   7
ENDBRANCH   5   6
ENDBRANCH   1   5
BRANCH   1  12
ATOM     12  C   UNL     1      35.222 -24.390 -12.628  0.00  0.00    +0.054 C 
BRANCH  12  15
ATOM     13  N   UNL     1      32.915 -23.553 -15.336  0.00  0.00    -0.247 NA
ATOM     14  N   UNL     1      32.812 -23.957 -13.155  0.00  0.00    -0.259 NA
ATOM     15  C   UNL     1      34.109 -24.052 -13.592  0.00  0.00    +0.050 C 
ATOM     16  C   UNL     1      34.198 -23.805 -14.941  0.00  0.00    +0.115 C 
ATOM     17  C   UNL     1      32.118 -23.655 -14.230  0.00  0.00    +0.200 C 
BRANCH  13  18
ATOM     18  C   UNL     1      32.480 -23.237 -16.674  0.00  0.00    +0.074 C 
BRANCH  18  19
ATOM     19  C   UNL     1      33.649 -23.217 -17.659  0.00  0.00    +0.017 C 
ATOM     20  C   UNL     1      33.423 -22.204 -18.770  0.00  0.00    +0.001 C 
ENDBRANCH  18  19
ENDBRANCH  13  18
ENDBRANCH  12  15
ENDBRANCH   1  12
TORSDOF 9
ENDMDL
MODEL 5
REMARK VINA RESULT:      -6.7      2.853      4.043
REMARK  Name = 24916881
REMARK  9 active torsions:
REMARK  status: ('A' for Active; 'I' for Inactive)
REMARK    1  A    between atoms: C_1  and  C_4
REMARK    2  A    between atoms: C_1  and  C_5
REMARK    3  A    between atoms: C_1  and  C_12
REMARK    4  A    between atoms: C_5  and  C_6
REMARK    5  A    between atoms: C_6  and  C_7
REMARK    6  A    between atoms: C_7  and  N_8
REMARK    7  A    between atoms: C_12  and  C_15
REMARK    8  A    between atoms: N_13  and  C_18
REMARK    9  A    between atoms: C_18  and  C_19
REMARK                            x       y       z     vdW  Elec       q    Type
REMARK                         _______ _______ _______ _____ _____    ______ ____
ROOT
ATOM      1  C   UNL     1      35.642 -18.058 -21.884  0.00  0.00    +0.109 C 
ENDROOT
BRANCH   1   4
ATOM      2  O   UNL     1      35.934 -19.702 -20.177  0.00  0.00    -0.246 OA
ATOM      3  O   UNL     1      37.749 -19.013 -21.382  0.00  0.00    -0.246 OA
ATOM      4  C   UNL     1      36.525 -19.023 -21.063  0.00  0.00    +0.365 C 
ENDBRANCH   1   4
BRANCH   1   5
ATOM      5  C   UNL     1      34.545 -18.840 -22.625  0.00  0.00    +0.009 C 
BRANCH   5   6
ATOM      6  C   UNL     1      34.915 -19.127 -24.087  0.00  0.00    -0.023 C 
BRANCH   6   7
ATOM      7  C   UNL     1      34.271 -18.161 -25.074  0.00  0.00    -0.086 C 
BRANCH   7   8
ATOM      8  N   UNL     1      35.139 -16.980 -25.294  0.00  0.00    +0.380 N 
ATOM      9  H   UNL     1      35.886 -17.224 -25.945  0.00  0.00    -0.089 HD
ATOM     10  H   UNL     1      35.547 -16.688 -24.405  0.00  0.00    -0.089 HD
ATOM     11  H   UNL     1      34.584 -16.217 -25.681  0.00  0.00    -0.089 HD
ENDBRANCH   7   8
ENDBRANCH   6   7
ENDBRANCH   5   6
ENDBRANCH   1   5
BRANCH   1  12
ATOM     12  C   UNL     1      35.011 -17.026 -20.932  0.00  0.00    +0.054 C 
BRANCH  12  15
ATOM     13  N   UNL     1      33.235 -14.129 -22.277  0.00  0.00    -0.247 NA
ATOM     14  N   UNL     1      35.002 -15.365 -22.808  0.00  0.00    -0.259 NA
ATOM     15  C   UNL     1      34.429 -15.832 -21.651  0.00  0.00    +0.050 C 
ATOM     16  C   UNL     1      33.332 -15.080 -21.303  0.00  0.00    +0.115 C 
ATOM     17  C   UNL     1      34.259 -14.339 -23.159  0.00  0.00    +0.200 C 
BRANCH  13  18
ATOM     18  C   UNL     1      32.236 -13.091 -22.362  0.00  0.00    +0.074 C 
BRANCH  18  19
ATOM     19  C   UNL     1      31.839 -12.575 -20.978  0.00  0.00    +0.017 C 
ATOM     20  C   UNL     1      30.928 -11.361 -21.079  0.00  0.00    +0.001 C 
ENDBRANCH  18  19
ENDBRANCH  13  18
ENDBRANCH  12  15
ENDBRANCH   1  12
TORSDOF 9
ENDMDL
MODEL 6
REMARK VINA RESULT:      -6.6      2.701      6.775
REMARK  Name = 24916881
REMARK  9 active torsions:
REMARK  status: ('A' for Active; 'I' for Inactive)
REMARK    1  A    between atoms: C_1  and  C_4
REMARK    2  A    between atoms: C_1  and  C_5
REMARK    3  A    between atoms: C_1  and  C_12
REMARK    4  A    between atoms: C_5  and  C_6
REMARK    5  A    between atoms: C_6  and  C_7
REMARK    6  A    between atoms: C_7  and  N_8
REMARK    7  A    between atoms: C_12  and  C_15
REMARK    8  A    between atoms: N_13  and  C_18
REMARK    9  A    between atoms: C_18  and  C_19
REMARK                            x       y       z     vdW  Elec       q    Type
REMARK                         _______ _______ _______ _____ _____    ______ ____
ROOT
ATOM      1  C   UNL     1      35.105 -17.124 -23.438  0.00  0.00    +0.109 C 
ENDROOT
BRANCH   1   4
ATOM      2  O   UNL     1      34.270 -18.937 -24.747  0.00  0.00    -0.246 OA
ATOM      3  O   UNL     1      34.811 -16.971 -25.781  0.00  0.00    -0.246 OA
ATOM      4  C   UNL     1      34.684 -17.744 -24.788  0.00  0.00    +0.365 C 
ENDBRANCH   1   4
BRANCH   1   5
ATOM      5  C   UNL     1      34.985 -15.591 -23.494  0.00  0.00    +0.009 C 
BRANCH   5   6
ATOM      6  C   UNL     1      33.569 -15.101 -23.161  0.00  0.00    -0.023 C 
BRANCH   6   7
ATOM      7  C   UNL     1      33.054 -14.041 -24.127  0.00  0.00    -0.086 C 
BRANCH   7   8
ATOM      8  N   UNL     1      32.907 -14.602 -25.490  0.00  0.00    +0.380 N 
ATOM      9  H   UNL     1      32.062 -15.171 -25.535  0.00  0.00    -0.089 HD
ATOM     10  H   UNL     1      33.718 -15.181 -25.708  0.00  0.00    -0.089 HD
ATOM     11  H   UNL     1      32.842 -13.840 -26.166  0.00  0.00    -0.089 HD
ENDBRANCH   7   8
ENDBRANCH   6   7
ENDBRANCH   5   6
ENDBRANCH   1   5
BRANCH   1  12
ATOM     12  C   UNL     1      34.204 -17.688 -22.325  0.00  0.00    +0.054 C 
BRANCH  12  15
ATOM     13  N   UNL     1      35.390 -20.403 -20.185  0.00  0.00    -0.247 NA
ATOM     14  N   UNL     1      36.246 -18.642 -21.233  0.00  0.00    -0.259 NA
ATOM     15  C   UNL     1      34.895 -18.717 -21.463  0.00  0.00    +0.050 C 
ATOM     16  C   UNL     1      34.343 -19.802 -20.823  0.00  0.00    +0.115 C 
ATOM     17  C   UNL     1      36.512 -19.671 -20.460  0.00  0.00    +0.200 C 
BRANCH  13  18
ATOM     18  C   UNL     1      35.326 -21.592 -19.371  0.00  0.00    +0.074 C 
BRANCH  18  19
ATOM     19  C   UNL     1      33.887 -22.081 -19.199  0.00  0.00    +0.017 C 
ATOM     20  C   UNL     1      33.718 -22.868 -17.909  0.00  0.00    +0.001 C 
ENDBRANCH  18  19
ENDBRANCH  13  18
ENDBRANCH  12  15
ENDBRANCH   1  12
TORSDOF 9
ENDMDL
MODEL 7
REMARK VINA RESULT:      -6.6      2.777      6.685
REMARK  Name = 24916881
REMARK  9 active torsions:
REMARK  status: ('A' for Active; 'I' for Inactive)
REMARK    1  A    between atoms: C_1  and  C_4
REMARK    2  A    between atoms: C_1  and  C_5
REMARK    3  A    between atoms: C_1  and  C_12
REMARK    4  A    between atoms: C_5  and  C_6
REMARK    5  A    between atoms: C_6  and  C_7
REMARK    6  A    between atoms: C_7  and  N_8
REMARK    7  A    between atoms: C_12  and  C_15
REMARK    8  A    between atoms: N_13  and  C_18
REMARK    9  A    between atoms: C_18  and  C_19
REMARK                            x       y       z     vdW  Elec       q    Type
REMARK                         _______ _______ _______ _____ _____    ______ ____
ROOT
ATOM      1  C   UNL     1      34.293 -16.314 -22.315  0.00  0.00    +0.109 C 
ENDROOT
BRANCH   1   4
ATOM      2  O   UNL     1      34.928 -15.278 -20.260  0.00  0.00    -0.246 OA
ATOM      3  O   UNL     1      32.716 -15.683 -20.666  0.00  0.00    -0.246 OA
ATOM      4  C   UNL     1      33.950 -15.694 -20.942  0.00  0.00    +0.365 C 
ENDBRANCH   1   4
BRANCH   1   5
ATOM      5  C   UNL     1      34.587 -15.207 -23.341  0.00  0.00    +0.009 C 
BRANCH   5   6
ATOM      6  C   UNL     1      33.308 -14.615 -23.950  0.00  0.00    -0.023 C 
BRANCH   6   7
ATOM      7  C   UNL     1      33.018 -13.195 -23.481  0.00  0.00    -0.086 C 
BRANCH   7   8
ATOM      8  N   UNL     1      31.904 -13.183 -22.504  0.00  0.00    +0.380 N 
ATOM      9  H   UNL     1      31.101 -12.701 -22.908  0.00  0.00    -0.089 HD
ATOM     10  H   UNL     1      32.199 -12.696 -21.657  0.00  0.00    -0.089 HD
ATOM     11  H   UNL     1      31.645 -14.142 -22.272  0.00  0.00    -0.089 HD
ENDBRANCH   7   8
ENDBRANCH   6   7
ENDBRANCH   5   6
ENDBRANCH   1   5
BRANCH   1  12
ATOM     12  C   UNL     1      35.516 -17.234 -22.157  0.00  0.00    +0.054 C 
BRANCH  12  15
ATOM     13  N   UNL     1      34.272 -20.196 -20.414  0.00  0.00    -0.247 NA
ATOM     14  N   UNL     1      36.228 -19.219 -20.805  0.00  0.00    -0.259 NA
ATOM     15  C   UNL     1      35.216 -18.497 -21.386  0.00  0.00    +0.050 C 
ATOM     16  C   UNL     1      33.994 -19.084 -21.157  0.00  0.00    +0.115 C 
ATOM     17  C   UNL     1      35.626 -20.235 -20.228  0.00  0.00    +0.200 C 
BRANCH  13  18
ATOM     18  C   UNL     1      33.315 -21.153 -19.916  0.00  0.00    +0.074 C 
BRANCH  18  19
ATOM     19  C   UNL     1      34.003 -22.347 -19.253  0.00  0.00    +0.017 C 
ATOM     20  C   UNL     1      33.242 -22.811 -18.020  0.00  0.00    +0.001 C 
ENDBRANCH  18  19
ENDBRANCH  13  18
ENDBRANCH  12  15
ENDBRANCH   1  12
TORSDOF 9
ENDMDL
MODEL 8
REMARK VINA RESULT:      -6.6      3.660      5.337
REMARK  Name = 24916881
REMARK  9 active torsions:
REMARK  status: ('A' for Active; 'I' for Inactive)
REMARK    1  A    between atoms: C_1  and  C_4
REMARK    2  A    between atoms: C_1  and  C_5
REMARK    3  A    between atoms: C_1  and  C_12
REMARK    4  A    between atoms: C_5  and  C_6
REMARK    5  A    between atoms: C_6  and  C_7
REMARK    6  A    between atoms: C_7  and  N_8
REMARK    7  A    between atoms: C_12  and  C_15
REMARK    8  A    between atoms: N_13  and  C_18
REMARK    9  A    between atoms: C_18  and  C_19
REMARK                            x       y       z     vdW  Elec       q    Type
REMARK                         _______ _______ _______ _____ _____    ______ ____
ROOT
ATOM      1  C   UNL     1      34.754 -15.614 -22.517  0.00  0.00    +0.109 C 
ENDROOT
BRANCH   1   4
ATOM      2  O   UNL     1      34.496 -17.519 -21.101  0.00  0.00    -0.246 OA
ATOM      3  O   UNL     1      34.841 -15.466 -20.156  0.00  0.00    -0.246 OA
ATOM      4  C   UNL     1      34.691 -16.271 -21.120  0.00  0.00    +0.365 C 
ENDBRANCH   1   4
BRANCH   1   5
ATOM      5  C   UNL     1      35.422 -16.567 -23.524  0.00  0.00    +0.009 C 
BRANCH   5   6
ATOM      6  C   UNL     1      34.478 -16.968 -24.667  0.00  0.00    -0.023 C 
BRANCH   6   7
ATOM      7  C   UNL     1      34.378 -18.475 -24.866  0.00  0.00    -0.086 C 
BRANCH   7   8
ATOM      8  N   UNL     1      34.793 -19.194 -23.638  0.00  0.00    +0.380 N 
ATOM      9  H   UNL     1      34.026 -19.783 -23.313  0.00  0.00    -0.089 HD
ATOM     10  H   UNL     1      35.031 -18.518 -22.913  0.00  0.00    -0.089 HD
ATOM     11  H   UNL     1      35.606 -19.775 -23.843  0.00  0.00    -0.089 HD
ENDBRANCH   7   8
ENDBRANCH   6   7
ENDBRANCH   5   6
ENDBRANCH   1   5
BRANCH   1  12
ATOM     12  C   UNL     1      33.325 -15.272 -22.974  0.00  0.00    +0.054 C 
BRANCH  12  15
ATOM     13  N   UNL     1      32.282 -11.803 -22.485  0.00  0.00    -0.247 NA
ATOM     14  N   UNL     1      33.629 -12.939 -23.837  0.00  0.00    -0.259 NA
ATOM     15  C   UNL     1      33.030 -13.791 -22.943  0.00  0.00    +0.050 C 
ATOM     16  C   UNL     1      32.190 -13.109 -22.095  0.00  0.00    +0.115 C 
ATOM     17  C   UNL     1      33.158 -11.750 -23.534  0.00  0.00    +0.200 C 
BRANCH  13  18
ATOM     18  C   UNL     1      31.584 -10.685 -21.899  0.00  0.00    +0.074 C 
BRANCH  18  19
ATOM     19  C   UNL     1      30.732 -11.114 -20.704  0.00  0.00    +0.017 C 
ATOM     20  C   UNL     1      31.344 -10.652 -19.391  0.00  0.00    +0.001 C 
ENDBRANCH  18  19
ENDBRANCH  13  18
ENDBRANCH  12  15
ENDBRANCH   1  12
TORSDOF 9
ENDMDL
MODEL 9
REMARK VINA RESULT:      -6.5      3.344      4.073
REMARK  Name = 24916881
REMARK  9 active torsions:
REMARK  status: ('A' for Active; 'I' for Inactive)
REMARK    1  A    between atoms: C_1  and  C_4
REMARK    2  A    between atoms: C_1  and  C_5
REMARK    3  A    between atoms: C_1  and  C_12
REMARK    4  A    between atoms: C_5  and  C_6
REMARK    5  A    between atoms: C_6  and  C_7
REMARK    6  A    between atoms: C_7  and  N_8
REMARK    7  A    between atoms: C_12  and  C_15
REMARK    8  A    between atoms: N_13  and  C_18
REMARK    9  A    between atoms: C_18  and  C_19
REMARK                            x       y       z     vdW  Elec       q    Type
REMARK                         _______ _______ _______ _____ _____    ______ ____
ROOT
ATOM      1  C   UNL     1      34.579 -18.149 -23.150  0.00  0.00    +0.109 C 
ENDROOT
BRANCH   1   4
ATOM      2  O   UNL     1      34.526 -17.464 -25.437  0.00  0.00    -0.246 OA
ATOM      3  O   UNL     1      34.609 -19.694 -24.943  0.00  0.00    -0.246 OA
ATOM      4  C   UNL     1      34.571 -18.462 -24.663  0.00  0.00    +0.365 C 
ENDBRANCH   1   4
BRANCH   1   5
ATOM      5  C   UNL     1      35.294 -19.272 -22.378  0.00  0.00    +0.009 C 
BRANCH   5   6
ATOM      6  C   UNL     1      34.678 -19.514 -20.993  0.00  0.00    -0.023 C 
BRANCH   6   7
ATOM      7  C   UNL     1      33.178 -19.778 -21.037  0.00  0.00    -0.086 C 
BRANCH   7   8
ATOM      8  N   UNL     1      32.742 -20.524 -19.832  0.00  0.00    +0.380 N 
ATOM      9  H   UNL     1      31.764 -20.794 -19.935  0.00  0.00    -0.089 HD
ATOM     10  H   UNL     1      32.845 -19.929 -19.009  0.00  0.00    -0.089 HD
ATOM     11  H   UNL     1      33.317 -21.359 -19.723  0.00  0.00    -0.089 HD
ENDBRANCH   7   8
ENDBRANCH   6   7
ENDBRANCH   5   6
ENDBRANCH   1   5
BRANCH   1  12
ATOM     12  C   UNL     1      35.294 -16.806 -22.921  0.00  0.00    +0.054 C 
BRANCH  12  15
ATOM     13  N   UNL     1      33.042 -14.144 -21.826  0.00  0.00    -0.247 NA
ATOM     14  N   UNL     1      34.341 -15.686 -20.893  0.00  0.00    -0.259 NA
ATOM     15  C   UNL     1      34.416 -15.769 -22.261  0.00  0.00    +0.050 C 
ATOM     16  C   UNL     1      33.619 -14.823 -22.861  0.00  0.00    +0.115 C 
ATOM     17  C   UNL     1      33.505 -14.697 -20.664  0.00  0.00    +0.200 C 
BRANCH  13  18
ATOM     18  C   UNL     1      32.114 -13.045 -21.936  0.00  0.00    +0.074 C 
BRANCH  18  19
ATOM     19  C   UNL     1      31.877 -12.368 -20.585  0.00  0.00    +0.017 C 
ATOM     20  C   UNL     1      30.915 -11.197 -20.713  0.00  0.00    +0.001 C 
ENDBRANCH  18  19
ENDBRANCH  13  18
ENDBRANCH  12  15
ENDBRANCH   1  12
TORSDOF 9
ENDMDL
