MODEL 1
REMARK VINA RESULT:      -7.4      0.000      0.000
REMARK  Name = 64782
REMARK  4 active torsions:
REMARK  status: ('A' for Active; 'I' for Inactive)
REMARK    1  A    between atoms: C_1  and  C_2
REMARK    2  A    between atoms: C_1  and  O_8
REMARK    3  A    between atoms: C_1  and  C_10
REMARK    4  A    between atoms: C_10  and  N_12
REMARK                            x       y       z     vdW  Elec       q    Type
REMARK                         _______ _______ _______ _____ _____    ______ ____
ROOT
ATOM      1  C   UNL     1      35.491 -18.150 -21.946  0.00  0.00    +0.114 C 
ENDROOT
BRANCH   1   2
ATOM      2  C   UNL     1      34.989 -19.306 -21.108  0.00  0.00    +0.002 C 
ATOM      3  C   UNL     1      35.906 -20.171 -20.536  0.00  0.00    -0.002 C 
ATOM      4  C   UNL     1      33.627 -19.473 -20.931  0.00  0.00    -0.002 C 
ATOM      5  C   UNL     1      35.444 -21.238 -19.763  0.00  0.00    -0.000 C 
ATOM      6  C   UNL     1      33.166 -20.538 -20.158  0.00  0.00    -0.000 C 
ATOM      7  C   UNL     1      34.075 -21.421 -19.574  0.00  0.00    -0.000 C 
ENDBRANCH   1   2
BRANCH   1   8
ATOM      8  O   UNL     1      36.872 -18.405 -22.218  0.00  0.00    -0.382 OA
ATOM      9  H   UNL     1      37.375 -17.579 -22.133  0.00  0.00    +0.211 HD
ENDBRANCH   1   8
BRANCH   1  10
ATOM     10  C   UNL     1      34.717 -17.963 -23.271  0.00  0.00    -0.026 C 
ATOM     11  C   UNL     1      34.892 -19.146 -24.226  0.00  0.00    -0.020 C 
BRANCH  10  12
ATOM     12  N   UNL     1      35.196 -16.754 -23.954  0.00  0.00    +0.387 N 
ATOM     13  C   UNL     1      34.797 -15.562 -23.210  0.00  0.00    -0.101 C 
ATOM     14  C   UNL     1      34.680 -16.707 -25.319  0.00  0.00    -0.101 C 
ATOM     15  H   UNL     1      36.215 -16.781 -23.996  0.00  0.00    -0.080 HD
ENDBRANCH  10  12
ENDBRANCH   1  10
TORSDOF 4
ENDMDL
MODEL 2
REMARK VINA RESULT:      -7.4      0.079      1.342
REMARK  Name = 64782
REMARK  4 active torsions:
REMARK  status: ('A' for Active; 'I' for Inactive)
REMARK    1  A    between atoms: C_1  and  C_2
REMARK    2  A    between atoms: C_1  and  O_8
REMARK    3  A    between atoms: C_1  and  C_10
REMARK    4  A    between atoms: C_10  and  N_12
REMARK                            x       y       z     vdW  Elec       q    Type
REMARK                         _______ _______ _______ _____ _____    ______ ____
ROOT
ATOM      1  C   UNL     1      35.435 -18.130 -21.974  0.00  0.00    +0.114 C 
ENDROOT
BRANCH   1   2
ATOM      2  C   UNL     1      34.923 -19.279 -21.133  0.00  0.00    +0.002 C 
ATOM      3  C   UNL     1      33.560 -19.419 -20.941  0.00  0.00    -0.002 C 
ATOM      4  C   UNL     1      35.828 -20.164 -20.574  0.00  0.00    -0.002 C 
ATOM      5  C   UNL     1      33.087 -20.479 -20.165  0.00  0.00    -0.000 C 
ATOM      6  C   UNL     1      35.356 -21.222 -19.798  0.00  0.00    -0.000 C 
ATOM      7  C   UNL     1      33.985 -21.380 -19.594  0.00  0.00    -0.000 C 
ENDBRANCH   1   2
BRANCH   1   8
ATOM      8  O   UNL     1      36.828 -18.370 -22.197  0.00  0.00    -0.382 OA
ATOM      9  H   UNL     1      36.951 -19.274 -22.526  0.00  0.00    +0.211 HD
ENDBRANCH   1   8
BRANCH   1  10
ATOM     10  C   UNL     1      34.703 -17.976 -23.326  0.00  0.00    -0.026 C 
ATOM     11  C   UNL     1      34.950 -19.157 -24.267  0.00  0.00    -0.020 C 
BRANCH  10  12
ATOM     12  N   UNL     1      35.165 -16.755 -24.000  0.00  0.00    +0.387 N 
ATOM     13  C   UNL     1      34.814 -15.578 -23.209  0.00  0.00    -0.101 C 
ATOM     14  C   UNL     1      34.588 -16.668 -25.338  0.00  0.00    -0.101 C 
ATOM     15  H   UNL     1      36.180 -16.792 -24.089  0.00  0.00    -0.080 HD
ENDBRANCH  10  12
ENDBRANCH   1  10
TORSDOF 4
ENDMDL
MODEL 3
REMARK VINA RESULT:      -7.1      1.887      4.986
REMARK  Name = 64782
REMARK  4 active torsions:
REMARK  status: ('A' for Active; 'I' for Inactive)
REMARK    1  A    between atoms: C_1  and  C_2
REMARK    2  A    between atoms: C_1  and  O_8
REMARK    3  A    between atoms: C_1  and  C_10
REMARK    4  A    between atoms: C_10  and  N_12
REMARK                            x       y       z     vdW  Elec       q    Type
REMARK                         _______ _______ _______ _____ _____    ______ ____
ROOT
ATOM      1  C   UNL     1      35.606 -18.943 -21.452  0.00  0.00    +0.114 C 
ENDROOT
BRANCH   1   2
ATOM      2  C   UNL     1      35.207 -18.304 -22.765  0.00  0.00    +0.002 C 
ATOM      3  C   UNL     1      35.196 -16.923 -22.866  0.00  0.00    -0.002 C 
ATOM      4  C   UNL     1      34.863 -19.112 -23.834  0.00  0.00    -0.002 C 
ATOM      5  C   UNL     1      34.827 -16.334 -24.076  0.00  0.00    -0.000 C 
ATOM      6  C   UNL     1      34.495 -18.523 -25.043  0.00  0.00    -0.000 C 
ATOM      7  C   UNL     1      34.477 -17.133 -25.164  0.00  0.00    -0.000 C 
ENDBRANCH   1   2
BRANCH   1   8
ATOM      8  O   UNL     1      35.609 -17.903 -20.470  0.00  0.00    -0.382 OA
ATOM      9  H   UNL     1      36.522 -17.624 -20.298  0.00  0.00    +0.211 HD
ENDBRANCH   1   8
BRANCH   1  10
ATOM     10  C   UNL     1      34.667 -20.088 -21.009  0.00  0.00    -0.026 C 
ATOM     11  C   UNL     1      33.236 -19.609 -20.756  0.00  0.00    -0.020 C 
BRANCH  10  12
ATOM     12  N   UNL     1      35.173 -20.685 -19.765  0.00  0.00    +0.387 N 
ATOM     13  C   UNL     1      36.525 -21.200 -19.966  0.00  0.00    -0.101 C 
ATOM     14  C   UNL     1      34.277 -21.746 -19.314  0.00  0.00    -0.101 C 
ATOM     15  H   UNL     1      35.206 -19.965 -19.044  0.00  0.00    -0.080 HD
ENDBRANCH  10  12
ENDBRANCH   1  10
TORSDOF 4
ENDMDL
MODEL 4
REMARK VINA RESULT:      -7.0      1.019      2.042
REMARK  Name = 64782
REMARK  4 active torsions:
REMARK  status: ('A' for Active; 'I' for Inactive)
REMARK    1  A    between atoms: C_1  and  C_2
REMARK    2  A    between atoms: C_1  and  O_8
REMARK    3  A    between atoms: C_1  and  C_10
REMARK    4  A    between atoms: C_10  and  N_12
REMARK                            x       y       z     vdW  Elec       q    Type
REMARK                         _______ _______ _______ _____ _____    ______ ____
ROOT
ATOM      1  C   UNL     1      35.536 -17.856 -21.860  0.00  0.00    +0.114 C 
ENDROOT
BRANCH   1   2
ATOM      2  C   UNL     1      35.123 -19.094 -21.093  0.00  0.00    +0.002 C 
ATOM      3  C   UNL     1      33.776 -19.386 -20.960  0.00  0.00    -0.002 C 
ATOM      4  C   UNL     1      36.099 -19.904 -20.541  0.00  0.00    -0.002 C 
ATOM      5  C   UNL     1      33.396 -20.527 -20.252  0.00  0.00    -0.000 C 
ATOM      6  C   UNL     1      35.718 -21.044 -19.834  0.00  0.00    -0.000 C 
ATOM      7  C   UNL     1      34.365 -21.356 -19.690  0.00  0.00    -0.000 C 
ENDBRANCH   1   2
BRANCH   1   8
ATOM      8  O   UNL     1      36.656 -18.226 -22.669  0.00  0.00    -0.382 OA
ATOM      9  H   UNL     1      36.503 -17.940 -23.583  0.00  0.00    +0.211 HD
ENDBRANCH   1   8
BRANCH   1  10
ATOM     10  C   UNL     1      34.413 -17.272 -22.747  0.00  0.00    -0.026 C 
ATOM     11  C   UNL     1      34.821 -17.165 -24.217  0.00  0.00    -0.020 C 
BRANCH  10  12
ATOM     12  N   UNL     1      34.063 -15.926 -22.274  0.00  0.00    +0.387 N 
ATOM     13  C   UNL     1      34.500 -14.921 -23.240  0.00  0.00    -0.101 C 
ATOM     14  C   UNL     1      34.662 -15.679 -20.965  0.00  0.00    -0.101 C 
ATOM     15  H   UNL     1      33.049 -15.863 -22.180  0.00  0.00    -0.080 HD
ENDBRANCH  10  12
ENDBRANCH   1  10
TORSDOF 4
ENDMDL
MODEL 5
REMARK VINA RESULT:      -7.0      1.519      2.104
REMARK  Name = 64782
REMARK  4 active torsions:
REMARK  status: ('A' for Active; 'I' for Inactive)
REMARK    1  A    between atoms: C_1  and  C_2
REMARK    2  A    between atoms: C_1  and  O_8
REMARK    3  A    between atoms: C_1  and  C_10
REMARK    4  A    between atoms: C_10  and  N_12
REMARK                            x       y       z     vdW  Elec       q    Type
REMARK                         _______ _______ _______ _____ _____    ______ ____
ROOT
ATOM      1  C   UNL     1      34.098 -18.642 -21.502  0.00  0.00    +0.114 C 
ENDROOT
BRANCH   1   2
ATOM      2  C   UNL     1      34.380 -19.873 -20.669  0.00  0.00    +0.002 C 
ATOM      3  C   UNL     1      35.691 -20.273 -20.479  0.00  0.00    -0.002 C 
ATOM      4  C   UNL     1      33.321 -20.572 -20.115  0.00  0.00    -0.002 C 
ATOM      5  C   UNL     1      35.950 -21.409 -19.711  0.00  0.00    -0.000 C 
ATOM      6  C   UNL     1      33.581 -21.707 -19.347  0.00  0.00    -0.000 C 
ATOM      7  C   UNL     1      34.896 -22.126 -19.145  0.00  0.00    -0.000 C 
ENDBRANCH   1   2
BRANCH   1   8
ATOM      8  O   UNL     1      32.903 -18.053 -20.979  0.00  0.00    -0.382 OA
ATOM      9  H   UNL     1      32.150 -18.304 -21.537  0.00  0.00    +0.211 HD
ENDBRANCH   1   8
BRANCH   1  10
ATOM     10  C   UNL     1      35.246 -17.608 -21.490  0.00  0.00    -0.026 C 
ATOM     11  C   UNL     1      34.847 -16.295 -20.814  0.00  0.00    -0.020 C 
BRANCH  10  12
ATOM     12  N   UNL     1      35.650 -17.304 -22.869  0.00  0.00    +0.387 N 
ATOM     13  C   UNL     1      35.040 -16.052 -23.309  0.00  0.00    -0.101 C 
ATOM     14  C   UNL     1      35.276 -18.401 -23.757  0.00  0.00    -0.101 C 
ATOM     15  H   UNL     1      36.663 -17.197 -22.900  0.00  0.00    -0.080 HD
ENDBRANCH  10  12
ENDBRANCH   1  10
TORSDOF 4
ENDMDL
MODEL 6
REMARK VINA RESULT:      -6.6      2.271      3.671
REMARK  Name = 64782
REMARK  4 active torsions:
REMARK  status: ('A' for Active; 'I' for Inactive)
REMARK    1  A    between atoms: C_1  and  C_2
REMARK    2  A    between atoms: C_1  and  O_8
REMARK    3  A    between atoms: C_1  and  C_10
REMARK    4  A    between atoms: C_10  and  N_12
REMARK                            x       y       z     vdW  Elec       q    Type
REMARK                         _______ _______ _______ _____ _____    ______ ____
ROOT
ATOM      1  C   UNL     1      34.782 -16.031 -24.559  0.00  0.00    +0.114 C 
ENDROOT
BRANCH   1   2
ATOM      2  C   UNL     1      34.854 -17.071 -23.461  0.00  0.00    +0.002 C 
ATOM      3  C   UNL     1      34.752 -18.410 -23.794  0.00  0.00    -0.002 C 
ATOM      4  C   UNL     1      35.020 -16.659 -22.150  0.00  0.00    -0.002 C 
ATOM      5  C   UNL     1      34.818 -19.369 -22.782  0.00  0.00    -0.000 C 
ATOM      6  C   UNL     1      35.086 -17.618 -21.139  0.00  0.00    -0.000 C 
ATOM      7  C   UNL     1      34.985 -18.973 -21.455  0.00  0.00    -0.000 C 
ENDBRANCH   1   2
BRANCH   1   8
ATOM      8  O   UNL     1      34.894 -16.732 -25.801  0.00  0.00    -0.382 OA
ATOM      9  H   UNL     1      35.702 -16.451 -26.258  0.00  0.00    +0.211 HD
ENDBRANCH   1   8
BRANCH   1  10
ATOM     10  C   UNL     1      33.481 -15.196 -24.538  0.00  0.00    -0.026 C 
ATOM     11  C   UNL     1      32.995 -14.830 -25.942  0.00  0.00    -0.020 C 
BRANCH  10  12
ATOM     12  N   UNL     1      33.710 -13.948 -23.798  0.00  0.00    +0.387 N 
ATOM     13  C   UNL     1      32.714 -13.798 -22.740  0.00  0.00    -0.101 C 
ATOM     14  C   UNL     1      33.672 -12.807 -24.708  0.00  0.00    -0.101 C 
ATOM     15  H   UNL     1      34.634 -13.985 -23.367  0.00  0.00    -0.080 HD
ENDBRANCH  10  12
ENDBRANCH   1  10
TORSDOF 4
ENDMDL
MODEL 7
REMARK VINA RESULT:      -6.5      1.822      4.916
REMARK  Name = 64782
REMARK  4 active torsions:
REMARK  status: ('A' for Active; 'I' for Inactive)
REMARK    1  A    between atoms: C_1  and  C_2
REMARK    2  A    between atoms: C_1  and  O_8
REMARK    3  A    between atoms: C_1  and  C_10
REMARK    4  A    between atoms: C_10  and  N_12
REMARK                            x       y       z     vdW  Elec       q    Type
REMARK                         _______ _______ _______ _____ _____    ______ ____
ROOT
ATOM      1  C   UNL     1      35.266 -18.298 -22.319  0.00  0.00    +0.114 C 
ENDROOT
BRANCH   1   2
ATOM      2  C   UNL     1      34.890 -16.835 -22.207  0.00  0.00    +0.002 C 
ATOM      3  C   UNL     1      34.741 -16.088 -23.362  0.00  0.00    -0.002 C 
ATOM      4  C   UNL     1      34.705 -16.279 -20.954  0.00  0.00    -0.002 C 
ATOM      5  C   UNL     1      34.395 -14.739 -23.258  0.00  0.00    -0.000 C 
ATOM      6  C   UNL     1      34.359 -14.932 -20.851  0.00  0.00    -0.000 C 
ATOM      7  C   UNL     1      34.204 -14.162 -22.004  0.00  0.00    -0.000 C 
ENDBRANCH   1   2
BRANCH   1   8
ATOM      8  O   UNL     1      36.502 -18.353 -23.036  0.00  0.00    -0.382 OA
ATOM      9  H   UNL     1      36.554 -17.601 -23.648  0.00  0.00    +0.211 HD
ENDBRANCH   1   8
BRANCH   1  10
ATOM     10  C   UNL     1      35.414 -19.006 -20.954  0.00  0.00    -0.026 C 
ATOM     11  C   UNL     1      36.851 -19.451 -20.675  0.00  0.00    -0.020 C 
BRANCH  10  12
ATOM     12  N   UNL     1      34.556 -20.199 -20.923  0.00  0.00    +0.387 N 
ATOM     13  C   UNL     1      33.158 -19.810 -20.764  0.00  0.00    -0.101 C 
ATOM     14  C   UNL     1      34.971 -21.090 -19.843  0.00  0.00    -0.101 C 
ATOM     15  H   UNL     1      34.654 -20.697 -21.807  0.00  0.00    -0.080 HD
ENDBRANCH  10  12
ENDBRANCH   1  10
TORSDOF 4
ENDMDL
MODEL 8
REMARK VINA RESULT:      -6.3      4.422      7.080
REMARK  Name = 64782
REMARK  4 active torsions:
REMARK  status: ('A' for Active; 'I' for Inactive)
REMARK    1  A    between atoms: C_1  and  C_2
REMARK    2  A    between atoms: C_1  and  O_8
REMARK    3  A    between atoms: C_1  and  C_10
REMARK    4  A    between atoms: C_10  and  N_12
REMARK                            x       y       z     vdW  Elec       q    Type
REMARK                         _______ _______ _______ _____ _____    ______ ____
ROOT
ATOM      1  C   UNL     1      33.224 -22.948 -18.434  0.00  0.00    +0.114 C 
ENDROOT
BRANCH   1   2
ATOM      2  C   UNL     1      33.897 -21.861 -19.245  0.00  0.00    +0.002 C 
ATOM      3  C   UNL     1      35.277 -21.863 -19.361  0.00  0.00    -0.002 C 
ATOM      4  C   UNL     1      33.120 -20.890 -19.851  0.00  0.00    -0.002 C 
ATOM      5  C   UNL     1      35.897 -20.861 -20.108  0.00  0.00    -0.000 C 
ATOM      6  C   UNL     1      33.741 -19.889 -20.598  0.00  0.00    -0.000 C 
ATOM      7  C   UNL     1      35.130 -19.875 -20.726  0.00  0.00    -0.000 C 
ENDBRANCH   1   2
BRANCH   1   8
ATOM      8  O   UNL     1      33.789 -24.191 -18.860  0.00  0.00    -0.382 OA
ATOM      9  H   UNL     1      34.211 -24.630 -18.105  0.00  0.00    +0.211 HD
ENDBRANCH   1   8
BRANCH   1  10
ATOM     10  C   UNL     1      33.400 -22.783 -16.908  0.00  0.00    -0.026 C 
ATOM     11  C   UNL     1      34.728 -23.352 -16.404  0.00  0.00    -0.020 C 
BRANCH  10  12
ATOM     12  N   UNL     1      32.312 -23.480 -16.209  0.00  0.00    +0.387 N 
ATOM     13  C   UNL     1      31.027 -22.870 -16.539  0.00  0.00    -0.101 C 
ATOM     14  C   UNL     1      32.541 -23.454 -14.767  0.00  0.00    -0.101 C 
ATOM     15  H   UNL     1      32.296 -24.453 -16.514  0.00  0.00    -0.080 HD
ENDBRANCH  10  12
ENDBRANCH   1  10
TORSDOF 4
ENDMDL
MODEL 9
REMARK VINA RESULT:      -6.2      1.679      2.538
REMARK  Name = 64782
REMARK  4 active torsions:
REMARK  status: ('A' for Active; 'I' for Inactive)
REMARK    1  A    between atoms: C_1  and  C_2
REMARK    2  A    between atoms: C_1  and  O_8
REMARK    3  A    between atoms: C_1  and  C_10
REMARK    4  A    between atoms: C_10  and  N_12
REMARK                            x       y       z     vdW  Elec       q    Type
REMARK                         _______ _______ _______ _____ _____    ______ ____
ROOT
ATOM      1  C   UNL     1      33.842 -16.541 -21.672  0.00  0.00    +0.114 C 
ENDROOT
BRANCH   1   2
ATOM      2  C   UNL     1      34.422 -17.885 -21.290  0.00  0.00    +0.002 C 
ATOM      3  C   UNL     1      35.797 -18.044 -21.266  0.00  0.00    -0.002 C 
ATOM      4  C   UNL     1      33.567 -18.926 -20.973  0.00  0.00    -0.002 C 
ATOM      5  C   UNL     1      36.332 -19.284 -20.914  0.00  0.00    -0.000 C 
ATOM      6  C   UNL     1      34.102 -20.164 -20.621  0.00  0.00    -0.000 C 
ATOM      7  C   UNL     1      35.485 -20.344 -20.591  0.00  0.00    -0.000 C 
ENDBRANCH   1   2
BRANCH   1   8
ATOM      8  O   UNL     1      33.947 -15.702 -20.518  0.00  0.00    -0.382 OA
ATOM      9  H   UNL     1      34.875 -15.456 -20.382  0.00  0.00    +0.211 HD
ENDBRANCH   1   8
BRANCH   1  10
ATOM     10  C   UNL     1      34.552 -15.878 -22.875  0.00  0.00    -0.026 C 
ATOM     11  C   UNL     1      34.457 -14.351 -22.844  0.00  0.00    -0.020 C 
BRANCH  10  12
ATOM     12  N   UNL     1      33.940 -16.346 -24.126  0.00  0.00    +0.387 N 
ATOM     13  C   UNL     1      34.874 -17.200 -24.855  0.00  0.00    -0.101 C 
ATOM     14  C   UNL     1      33.534 -15.208 -24.945  0.00  0.00    -0.101 C 
ATOM     15  H   UNL     1      33.110 -16.894 -23.902  0.00  0.00    -0.080 HD
ENDBRANCH  10  12
ENDBRANCH   1  10
TORSDOF 4
ENDMDL
