MODEL 1
REMARK VINA RESULT:      -7.8      0.000      0.000
REMARK  Name = 24836815
REMARK  19 active torsions:
REMARK  status: ('A' for Active; 'I' for Inactive)
REMARK    1  A    between atoms: P_1  and  C_4
REMARK    2  A    between atoms: P_1  and  C_18
REMARK    3  A    between atoms: C_4  and  C_5
REMARK    4  A    between atoms: C_5  and  P_6
REMARK    5  A    between atoms: C_5  and  P_12
REMARK    6  A    between atoms: P_6  and  O_8
REMARK    7  A    between atoms: P_6  and  O_10
REMARK    8  A    between atoms: P_12  and  O_14
REMARK    9  A    between atoms: P_12  and  O_16
REMARK   10  A    between atoms: C_18  and  C_19
REMARK   11  A    between atoms: C_19  and  C_20
REMARK   12  A    between atoms: C_20  and  C_21
REMARK   13  A    between atoms: C_21  and  C_22
REMARK   14  A    between atoms: C_22  and  C_23
REMARK   15  A    between atoms: C_23  and  C_24
REMARK   16  A    between atoms: C_24  and  C_25
REMARK   17  A    between atoms: C_25  and  C_26
REMARK   18  A    between atoms: C_26  and  C_27
REMARK   19  A    between atoms: C_27  and  C_28
REMARK                            x       y       z     vdW  Elec       q    Type
REMARK                         _______ _______ _______ _____ _____    ______ ____
ROOT
ATOM      1  P   UNL     1      34.794 -23.592 -15.306  0.00  0.00    -0.089 P 
ATOM      2  C   UNL     1      35.843 -22.195 -15.310  0.00  0.00    +0.023 C 
ATOM      3  C   UNL     1      33.360 -23.290 -14.355  0.00  0.00    +0.023 C 
ENDROOT
BRANCH   1   4
ATOM      4  C   UNL     1      35.643 -25.002 -14.718  0.00  0.00    +0.043 C 
BRANCH   4   5
ATOM      5  C   UNL     1      36.854 -24.669 -13.834  0.00  0.00    +0.211 C 
BRANCH   5   6
ATOM      6  P   UNL     1      36.467 -25.116 -12.091  0.00  0.00    +0.348 P 
ATOM      7  O   UNL     1      35.064 -24.797 -11.664  0.00  0.00    -0.258 OA
BRANCH   6   8
ATOM      8  O   UNL     1      37.624 -24.372 -11.244  0.00  0.00    -0.323 OA
ATOM      9  H   UNL     1      37.484 -23.414 -11.277  0.00  0.00    +0.220 HD
ENDBRANCH   6   8
BRANCH   6  10
ATOM     10  O   UNL     1      36.878 -26.676 -12.007  0.00  0.00    -0.323 OA
ATOM     11  H   UNL     1      37.660 -26.834 -12.557  0.00  0.00    +0.220 HD
ENDBRANCH   6  10
ENDBRANCH   5   6
BRANCH   5  12
ATOM     12  P   UNL     1      38.402 -25.237 -14.643  0.00  0.00    +0.348 P 
ATOM     13  O   UNL     1      39.248 -24.149 -15.235  0.00  0.00    -0.258 OA
BRANCH  12  14
ATOM     14  O   UNL     1      37.888 -26.356 -15.689  0.00  0.00    -0.323 OA
ATOM     15  H   UNL     1      36.929 -26.274 -15.805  0.00  0.00    +0.220 HD
ENDBRANCH  12  14
BRANCH  12  16
ATOM     16  O   UNL     1      39.127 -26.107 -13.490  0.00  0.00    -0.323 OA
ATOM     17  H   UNL     1      40.039 -25.797 -13.377  0.00  0.00    +0.220 HD
ENDBRANCH  12  16
ENDBRANCH   5  12
ENDBRANCH   4   5
ENDBRANCH   1   4
BRANCH   1  18
ATOM     18  C   UNL     1      34.283 -23.915 -17.007  0.00  0.00    +0.018 C 
BRANCH  18  19
ATOM     19  C   UNL     1      33.079 -23.095 -17.452  0.00  0.00    +0.004 C 
BRANCH  19  20
ATOM     20  C   UNL     1      33.297 -22.288 -18.735  0.00  0.00    +0.000 C 
BRANCH  20  21
ATOM     21  C   UNL     1      34.755 -22.094 -19.163  0.00  0.00    +0.000 C 
BRANCH  21  22
ATOM     22  C   UNL     1      34.987 -20.815 -19.973  0.00  0.00    +0.000 C 
BRANCH  22  23
ATOM     23  C   UNL     1      33.663 -20.236 -20.479  0.00  0.00    +0.000 C 
BRANCH  23  24
ATOM     24  C   UNL     1      33.841 -19.037 -21.414  0.00  0.00    +0.000 C 
BRANCH  24  25
ATOM     25  C   UNL     1      35.271 -18.496 -21.446  0.00  0.00    +0.000 C 
BRANCH  25  26
ATOM     26  C   UNL     1      35.796 -18.399 -22.880  0.00  0.00    +0.000 C 
BRANCH  26  27
ATOM     27  C   UNL     1      34.926 -19.207 -23.846  0.00  0.00    +0.000 C 
BRANCH  27  28
ATOM     28  C   UNL     1      34.381 -18.327 -24.970  0.00  0.00    +0.000 C 
ATOM     29  C   UNL     1      34.825 -16.881 -24.810  0.00  0.00    +0.000 C 
ENDBRANCH  27  28
ENDBRANCH  26  27
ENDBRANCH  25  26
ENDBRANCH  24  25
ENDBRANCH  23  24
ENDBRANCH  22  23
ENDBRANCH  21  22
ENDBRANCH  20  21
ENDBRANCH  19  20
ENDBRANCH  18  19
ENDBRANCH   1  18
TORSDOF 19
ENDMDL
MODEL 2
REMARK VINA RESULT:      -7.6      1.209      1.901
REMARK  Name = 24836815
REMARK  19 active torsions:
REMARK  status: ('A' for Active; 'I' for Inactive)
REMARK    1  A    between atoms: P_1  and  C_4
REMARK    2  A    between atoms: P_1  and  C_18
REMARK    3  A    between atoms: C_4  and  C_5
REMARK    4  A    between atoms: C_5  and  P_6
REMARK    5  A    between atoms: C_5  and  P_12
REMARK    6  A    between atoms: P_6  and  O_8
REMARK    7  A    between atoms: P_6  and  O_10
REMARK    8  A    between atoms: P_12  and  O_14
REMARK    9  A    between atoms: P_12  and  O_16
REMARK   10  A    between atoms: C_18  and  C_19
REMARK   11  A    between atoms: C_19  and  C_20
REMARK   12  A    between atoms: C_20  and  C_21
REMARK   13  A    between atoms: C_21  and  C_22
REMARK   14  A    between atoms: C_22  and  C_23
REMARK   15  A    between atoms: C_23  and  C_24
REMARK   16  A    between atoms: C_24  and  C_25
REMARK   17  A    between atoms: C_25  and  C_26
REMARK   18  A    between atoms: C_26  and  C_27
REMARK   19  A    between atoms: C_27  and  C_28
REMARK                            x       y       z     vdW  Elec       q    Type
REMARK                         _______ _______ _______ _____ _____    ______ ____
ROOT
ATOM      1  P   UNL     1      34.780 -23.627 -15.335  0.00  0.00    -0.089 P 
ATOM      2  C   UNL     1      35.903 -22.293 -15.433  0.00  0.00    +0.023 C 
ATOM      3  C   UNL     1      33.387 -23.198 -14.371  0.00  0.00    +0.023 C 
ENDROOT
BRANCH   1   4
ATOM      4  C   UNL     1      35.564 -25.051 -14.694  0.00  0.00    +0.043 C 
BRANCH   4   5
ATOM      5  C   UNL     1      36.797 -24.741 -13.832  0.00  0.00    +0.211 C 
BRANCH   5   6
ATOM      6  P   UNL     1      36.396 -25.072 -12.067  0.00  0.00    +0.348 P 
ATOM      7  O   UNL     1      34.968 -24.802 -11.692  0.00  0.00    -0.258 OA
BRANCH   6   8
ATOM      8  O   UNL     1      37.491 -24.200 -11.261  0.00  0.00    -0.323 OA
ATOM      9  H   UNL     1      37.285 -24.218 -10.314  0.00  0.00    +0.220 HD
ENDBRANCH   6   8
BRANCH   6  10
ATOM     10  O   UNL     1      36.891 -26.595 -11.853  0.00  0.00    -0.323 OA
ATOM     11  H   UNL     1      37.786 -26.594 -11.478  0.00  0.00    +0.220 HD
ENDBRANCH   6  10
ENDBRANCH   5   6
BRANCH   5  12
ATOM     12  P   UNL     1      38.306 -25.439 -14.615  0.00  0.00    +0.348 P 
ATOM     13  O   UNL     1      39.263 -26.103 -13.672  0.00  0.00    -0.258 OA
BRANCH  12  14
ATOM     14  O   UNL     1      38.909 -24.189 -15.444  0.00  0.00    -0.323 OA
ATOM     15  H   UNL     1      39.773 -24.431 -15.810  0.00  0.00    +0.220 HD
ENDBRANCH  12  14
BRANCH  12  16
ATOM     16  O   UNL     1      37.714 -26.402 -15.769  0.00  0.00    -0.323 OA
ATOM     17  H   UNL     1      37.002 -26.948 -15.400  0.00  0.00    +0.220 HD
ENDBRANCH  12  16
ENDBRANCH   5  12
ENDBRANCH   4   5
ENDBRANCH   1   4
BRANCH   1  18
ATOM     18  C   UNL     1      34.211 -24.005 -17.006  0.00  0.00    +0.018 C 
BRANCH  18  19
ATOM     19  C   UNL     1      33.496 -22.846 -17.688  0.00  0.00    +0.004 C 
BRANCH  19  20
ATOM     20  C   UNL     1      33.793 -22.707 -19.184  0.00  0.00    +0.000 C 
BRANCH  20  21
ATOM     21  C   UNL     1      34.264 -21.325 -19.646  0.00  0.00    +0.000 C 
BRANCH  21  22
ATOM     22  C   UNL     1      33.153 -20.484 -20.282  0.00  0.00    +0.000 C 
BRANCH  22  23
ATOM     23  C   UNL     1      33.732 -19.275 -21.022  0.00  0.00    +0.000 C 
BRANCH  23  24
ATOM     24  C   UNL     1      35.262 -19.271 -21.080  0.00  0.00    +0.000 C 
BRANCH  24  25
ATOM     25  C   UNL     1      35.835 -18.167 -21.970  0.00  0.00    +0.000 C 
BRANCH  25  26
ATOM     26  C   UNL     1      34.720 -17.367 -22.647  0.00  0.00    +0.000 C 
BRANCH  26  27
ATOM     27  C   UNL     1      34.850 -15.871 -22.352  0.00  0.00    +0.000 C 
BRANCH  27  28
ATOM     28  C   UNL     1      34.386 -15.544 -20.932  0.00  0.00    +0.000 C 
ATOM     29  C   UNL     1      32.871 -15.599 -20.816  0.00  0.00    +0.000 C 
ENDBRANCH  27  28
ENDBRANCH  26  27
ENDBRANCH  25  26
ENDBRANCH  24  25
ENDBRANCH  23  24
ENDBRANCH  22  23
ENDBRANCH  21  22
ENDBRANCH  20  21
ENDBRANCH  19  20
ENDBRANCH  18  19
ENDBRANCH   1  18
TORSDOF 19
ENDMDL
MODEL 3
REMARK VINA RESULT:      -7.4      1.794      3.461
REMARK  Name = 24836815
REMARK  19 active torsions:
REMARK  status: ('A' for Active; 'I' for Inactive)
REMARK    1  A    between atoms: P_1  and  C_4
REMARK    2  A    between atoms: P_1  and  C_18
REMARK    3  A    between atoms: C_4  and  C_5
REMARK    4  A    between atoms: C_5  and  P_6
REMARK    5  A    between atoms: C_5  and  P_12
REMARK    6  A    between atoms: P_6  and  O_8
REMARK    7  A    between atoms: P_6  and  O_10
REMARK    8  A    between atoms: P_12  and  O_14
REMARK    9  A    between atoms: P_12  and  O_16
REMARK   10  A    between atoms: C_18  and  C_19
REMARK   11  A    between atoms: C_19  and  C_20
REMARK   12  A    between atoms: C_20  and  C_21
REMARK   13  A    between atoms: C_21  and  C_22
REMARK   14  A    between atoms: C_22  and  C_23
REMARK   15  A    between atoms: C_23  and  C_24
REMARK   16  A    between atoms: C_24  and  C_25
REMARK   17  A    between atoms: C_25  and  C_26
REMARK   18  A    between atoms: C_26  and  C_27
REMARK   19  A    between atoms: C_27  and  C_28
REMARK                            x       y       z     vdW  Elec       q    Type
REMARK                         _______ _______ _______ _____ _____    ______ ____
ROOT
ATOM      1  P   UNL     1      36.994 -23.692 -12.674  0.00  0.00    -0.089 P 
ATOM      2  C   UNL     1      37.541 -22.430 -11.595  0.00  0.00    +0.023 C 
ATOM      3  C   UNL     1      35.498 -24.391 -12.103  0.00  0.00    +0.023 C 
ENDROOT
BRANCH   1   4
ATOM      4  C   UNL     1      38.221 -24.921 -12.862  0.00  0.00    +0.043 C 
BRANCH   4   5
ATOM      5  C   UNL     1      38.419 -25.379 -14.315  0.00  0.00    +0.211 C 
BRANCH   5   6
ATOM      6  P   UNL     1      40.221 -25.478 -14.674  0.00  0.00    +0.348 P 
ATOM      7  O   UNL     1      40.999 -24.251 -14.301  0.00  0.00    -0.258 OA
BRANCH   6   8
ATOM      8  O   UNL     1      40.272 -25.869 -16.241  0.00  0.00    -0.323 OA
ATOM      9  H   UNL     1      39.819 -25.186 -16.759  0.00  0.00    +0.220 HD
ENDBRANCH   6   8
BRANCH   6  10
ATOM     10  O   UNL     1      40.674 -26.838 -13.929  0.00  0.00    -0.323 OA
ATOM     11  H   UNL     1      41.614 -27.004 -14.102  0.00  0.00    +0.220 HD
ENDBRANCH   6  10
ENDBRANCH   5   6
BRANCH   5  12
ATOM     12  P   UNL     1      37.291 -26.779 -14.693  0.00  0.00    +0.348 P 
ATOM     13  O   UNL     1      36.252 -26.496 -15.737  0.00  0.00    -0.258 OA
BRANCH  12  14
ATOM     14  O   UNL     1      36.715 -27.198 -13.243  0.00  0.00    -0.323 OA
ATOM     15  H   UNL     1      35.759 -27.347 -13.306  0.00  0.00    +0.220 HD
ENDBRANCH  12  14
BRANCH  12  16
ATOM     16  O   UNL     1      38.304 -27.985 -15.056  0.00  0.00    -0.323 OA
ATOM     17  H   UNL     1      37.979 -28.809 -14.663  0.00  0.00    +0.220 HD
ENDBRANCH  12  16
ENDBRANCH   5  12
ENDBRANCH   4   5
ENDBRANCH   1   4
BRANCH   1  18
ATOM     18  C   UNL     1      36.688 -22.953 -14.292  0.00  0.00    +0.018 C 
BRANCH  18  19
ATOM     19  C   UNL     1      35.275 -23.182 -14.814  0.00  0.00    +0.004 C 
BRANCH  19  20
ATOM     20  C   UNL     1      35.122 -23.015 -16.329  0.00  0.00    +0.000 C 
BRANCH  20  21
ATOM     21  C   UNL     1      33.694 -23.124 -16.872  0.00  0.00    +0.000 C 
BRANCH  21  22
ATOM     22  C   UNL     1      33.632 -23.261 -18.396  0.00  0.00    +0.000 C 
BRANCH  22  23
ATOM     23  C   UNL     1      34.215 -22.024 -19.085  0.00  0.00    +0.000 C 
BRANCH  23  24
ATOM     24  C   UNL     1      33.149 -21.045 -19.585  0.00  0.00    +0.000 C 
BRANCH  24  25
ATOM     25  C   UNL     1      33.668 -20.065 -20.638  0.00  0.00    +0.000 C 
BRANCH  25  26
ATOM     26  C   UNL     1      35.197 -20.067 -20.691  0.00  0.00    +0.000 C 
BRANCH  26  27
ATOM     27  C   UNL     1      35.727 -18.895 -21.519  0.00  0.00    +0.000 C 
BRANCH  27  28
ATOM     28  C   UNL     1      34.705 -18.447 -22.564  0.00  0.00    +0.000 C 
ATOM     29  C   UNL     1      34.950 -19.118 -23.906  0.00  0.00    +0.000 C 
ENDBRANCH  27  28
ENDBRANCH  26  27
ENDBRANCH  25  26
ENDBRANCH  24  25
ENDBRANCH  23  24
ENDBRANCH  22  23
ENDBRANCH  21  22
ENDBRANCH  20  21
ENDBRANCH  19  20
ENDBRANCH  18  19
ENDBRANCH   1  18
TORSDOF 19
ENDMDL
MODEL 4
REMARK VINA RESULT:      -7.2      0.971      2.686
REMARK  Name = 24836815
REMARK  19 active torsions:
REMARK  status: ('A' for Active; 'I' for Inactive)
REMARK    1  A    between atoms: P_1  and  C_4
REMARK    2  A    between atoms: P_1  and  C_18
REMARK    3  A    between atoms: C_4  and  C_5
REMARK    4  A    between atoms: C_5  and  P_6
REMARK    5  A    between atoms: C_5  and  P_12
REMARK    6  A    between atoms: P_6  and  O_8
REMARK    7  A    between atoms: P_6  and  O_10
REMARK    8  A    between atoms: P_12  and  O_14
REMARK    9  A    between atoms: P_12  and  O_16
REMARK   10  A    between atoms: C_18  and  C_19
REMARK   11  A    between atoms: C_19  and  C_20
REMARK   12  A    between atoms: C_20  and  C_21
REMARK   13  A    between atoms: C_21  and  C_22
REMARK   14  A    between atoms: C_22  and  C_23
REMARK   15  A    between atoms: C_23  and  C_24
REMARK   16  A    between atoms: C_24  and  C_25
REMARK   17  A    between atoms: C_25  and  C_26
REMARK   18  A    between atoms: C_26  and  C_27
REMARK   19  A    between atoms: C_27  and  C_28
REMARK                            x       y       z     vdW  Elec       q    Type
REMARK                         _______ _______ _______ _____ _____    ______ ____
ROOT
ATOM      1  P   UNL     1      34.973 -23.695 -15.216  0.00  0.00    -0.089 P 
ATOM      2  C   UNL     1      33.522 -23.350 -14.307  0.00  0.00    +0.023 C 
ATOM      3  C   UNL     1      35.076 -25.397 -15.598  0.00  0.00    +0.023 C 
ENDROOT
BRANCH   1   4
ATOM      4  C   UNL     1      36.391 -23.168 -14.343  0.00  0.00    +0.043 C 
BRANCH   4   5
ATOM      5  C   UNL     1      37.084 -24.290 -13.555  0.00  0.00    +0.211 C 
BRANCH   5   6
ATOM      6  P   UNL     1      38.548 -24.876 -14.505  0.00  0.00    +0.348 P 
ATOM      7  O   UNL     1      38.451 -26.294 -14.985  0.00  0.00    -0.258 OA
BRANCH   6   8
ATOM      8  O   UNL     1      39.787 -24.573 -13.514  0.00  0.00    -0.323 OA
ATOM      9  H   UNL     1      40.544 -25.123 -13.766  0.00  0.00    +0.220 HD
ENDBRANCH   6   8
BRANCH   6  10
ATOM     10  O   UNL     1      38.709 -23.762 -15.664  0.00  0.00    -0.323 OA
ATOM     11  H   UNL     1      39.643 -23.517 -15.749  0.00  0.00    +0.220 HD
ENDBRANCH   6  10
ENDBRANCH   5   6
BRANCH   5  12
ATOM     12  P   UNL     1      37.220 -23.826 -11.783  0.00  0.00    +0.348 P 
ATOM     13  O   UNL     1      35.915 -23.703 -11.055  0.00  0.00    -0.258 OA
BRANCH  12  14
ATOM     14  O   UNL     1      38.119 -22.484 -11.816  0.00  0.00    -0.323 OA
ATOM     15  H   UNL     1      37.552 -21.711 -11.672  0.00  0.00    +0.220 HD
ENDBRANCH  12  14
BRANCH  12  16
ATOM     16  O   UNL     1      38.228 -24.937 -11.183  0.00  0.00    -0.323 OA
ATOM     17  H   UNL     1      37.726 -25.730 -10.938  0.00  0.00    +0.220 HD
ENDBRANCH  12  16
ENDBRANCH   5  12
ENDBRANCH   4   5
ENDBRANCH   1   4
BRANCH   1  18
ATOM     18  C   UNL     1      34.895 -22.775 -16.767  0.00  0.00    +0.018 C 
BRANCH  18  19
ATOM     19  C   UNL     1      33.660 -23.085 -17.603  0.00  0.00    +0.004 C 
BRANCH  19  20
ATOM     20  C   UNL     1      33.458 -22.160 -18.807  0.00  0.00    +0.000 C 
BRANCH  20  21
ATOM     21  C   UNL     1      34.647 -22.040 -19.765  0.00  0.00    +0.000 C 
BRANCH  21  22
ATOM     22  C   UNL     1      34.979 -20.595 -20.146  0.00  0.00    +0.000 C 
BRANCH  22  23
ATOM     23  C   UNL     1      33.820 -19.946 -20.908  0.00  0.00    +0.000 C 
BRANCH  23  24
ATOM     24  C   UNL     1      34.127 -18.524 -21.387  0.00  0.00    +0.000 C 
BRANCH  24  25
ATOM     25  C   UNL     1      35.272 -18.456 -22.399  0.00  0.00    +0.000 C 
BRANCH  25  26
ATOM     26  C   UNL     1      34.980 -19.326 -23.624  0.00  0.00    +0.000 C 
BRANCH  26  27
ATOM     27  C   UNL     1      34.290 -18.522 -24.727  0.00  0.00    +0.000 C 
BRANCH  27  28
ATOM     28  C   UNL     1      34.887 -17.119 -24.847  0.00  0.00    +0.000 C 
ATOM     29  C   UNL     1      33.891 -16.141 -25.450  0.00  0.00    +0.000 C 
ENDBRANCH  27  28
ENDBRANCH  26  27
ENDBRANCH  25  26
ENDBRANCH  24  25
ENDBRANCH  23  24
ENDBRANCH  22  23
ENDBRANCH  21  22
ENDBRANCH  20  21
ENDBRANCH  19  20
ENDBRANCH  18  19
ENDBRANCH   1  18
TORSDOF 19
ENDMDL
MODEL 5
REMARK VINA RESULT:      -7.0      9.438     12.686
REMARK  Name = 24836815
REMARK  19 active torsions:
REMARK  status: ('A' for Active; 'I' for Inactive)
REMARK    1  A    between atoms: P_1  and  C_4
REMARK    2  A    between atoms: P_1  and  C_18
REMARK    3  A    between atoms: C_4  and  C_5
REMARK    4  A    between atoms: C_5  and  P_6
REMARK    5  A    between atoms: C_5  and  P_12
REMARK    6  A    between atoms: P_6  and  O_8
REMARK    7  A    between atoms: P_6  and  O_10
REMARK    8  A    between atoms: P_12  and  O_14
REMARK    9  A    between atoms: P_12  and  O_16
REMARK   10  A    between atoms: C_18  and  C_19
REMARK   11  A    between atoms: C_19  and  C_20
REMARK   12  A    between atoms: C_20  and  C_21
REMARK   13  A    between atoms: C_21  and  C_22
REMARK   14  A    between atoms: C_22  and  C_23
REMARK   15  A    between atoms: C_23  and  C_24
REMARK   16  A    between atoms: C_24  and  C_25
REMARK   17  A    between atoms: C_25  and  C_26
REMARK   18  A    between atoms: C_26  and  C_27
REMARK   19  A    between atoms: C_27  and  C_28
REMARK                            x       y       z     vdW  Elec       q    Type
REMARK                         _______ _______ _______ _____ _____    ______ ____
ROOT
ATOM      1  P   UNL     1      33.375 -13.524 -24.010  0.00  0.00    -0.089 P 
ATOM      2  C   UNL     1      32.786 -14.108 -25.548  0.00  0.00    +0.023 C 
ATOM      3  C   UNL     1      34.083 -11.936 -24.178  0.00  0.00    +0.023 C 
ENDROOT
BRANCH   1   4
ATOM      4  C   UNL     1      34.523 -14.646 -23.320  0.00  0.00    +0.043 C 
BRANCH   4   5
ATOM      5  C   UNL     1      33.948 -16.051 -23.084  0.00  0.00    +0.211 C 
BRANCH   5   6
ATOM      6  P   UNL     1      34.816 -17.247 -24.180  0.00  0.00    +0.348 P 
ATOM      7  O   UNL     1      35.052 -16.753 -25.578  0.00  0.00    -0.258 OA
BRANCH   6   8
ATOM      8  O   UNL     1      33.914 -18.582 -24.071  0.00  0.00    -0.323 OA
ATOM      9  H   UNL     1      34.480 -19.364 -24.165  0.00  0.00    +0.220 HD
ENDBRANCH   6   8
BRANCH   6  10
ATOM     10  O   UNL     1      36.148 -17.619 -23.344  0.00  0.00    -0.323 OA
ATOM     11  H   UNL     1      35.906 -17.826 -22.429  0.00  0.00    +0.220 HD
ENDBRANCH   6  10
ENDBRANCH   5   6
BRANCH   5  12
ATOM     12  P   UNL     1      33.768 -16.364 -21.283  0.00  0.00    +0.348 P 
ATOM     13  O   UNL     1      32.405 -16.087 -20.722  0.00  0.00    -0.258 OA
BRANCH  12  14
ATOM     14  O   UNL     1      34.969 -15.503 -20.631  0.00  0.00    -0.323 OA
ATOM     15  H   UNL     1      35.808 -15.973 -20.754  0.00  0.00    +0.220 HD
ENDBRANCH  12  14
BRANCH  12  16
ATOM     16  O   UNL     1      34.270 -17.891 -21.119  0.00  0.00    -0.323 OA
ATOM     17  H   UNL     1      34.996 -17.926 -20.477  0.00  0.00    +0.220 HD
ENDBRANCH  12  16
ENDBRANCH   5  12
ENDBRANCH   4   5
ENDBRANCH   1   4
BRANCH   1  18
ATOM     18  C   UNL     1      31.970 -13.396 -22.883  0.00  0.00    +0.018 C 
BRANCH  18  19
ATOM     19  C   UNL     1      32.281 -12.642 -21.597  0.00  0.00    +0.004 C 
BRANCH  19  20
ATOM     20  C   UNL     1      31.352 -11.459 -21.312  0.00  0.00    +0.000 C 
BRANCH  20  21
ATOM     21  C   UNL     1      31.185 -11.080 -19.837  0.00  0.00    +0.000 C 
BRANCH  21  22
ATOM     22  C   UNL     1      31.779  -9.713 -19.489  0.00  0.00    +0.000 C 
BRANCH  22  23
ATOM     23  C   UNL     1      32.282  -8.994 -20.744  0.00  0.00    +0.000 C 
BRANCH  23  24
ATOM     24  C   UNL     1      32.324  -7.471 -20.598  0.00  0.00    +0.000 C 
BRANCH  24  25
ATOM     25  C   UNL     1      31.730  -6.727 -21.796  0.00  0.00    +0.000 C 
BRANCH  25  26
ATOM     26  C   UNL     1      32.130  -7.393 -23.115  0.00  0.00    +0.000 C 
BRANCH  26  27
ATOM     27  C   UNL     1      32.778  -6.389 -24.071  0.00  0.00    +0.000 C 
BRANCH  27  28
ATOM     28  C   UNL     1      34.199  -6.812 -24.440  0.00  0.00    +0.000 C 
ATOM     29  C   UNL     1      34.736  -7.859 -23.477  0.00  0.00    +0.000 C 
ENDBRANCH  27  28
ENDBRANCH  26  27
ENDBRANCH  25  26
ENDBRANCH  24  25
ENDBRANCH  23  24
ENDBRANCH  22  23
ENDBRANCH  21  22
ENDBRANCH  20  21
ENDBRANCH  19  20
ENDBRANCH  18  19
ENDBRANCH   1  18
TORSDOF 19
ENDMDL
MODEL 6
REMARK VINA RESULT:      -7.0      1.255      2.249
REMARK  Name = 24836815
REMARK  19 active torsions:
REMARK  status: ('A' for Active; 'I' for Inactive)
REMARK    1  A    between atoms: P_1  and  C_4
REMARK    2  A    between atoms: P_1  and  C_18
REMARK    3  A    between atoms: C_4  and  C_5
REMARK    4  A    between atoms: C_5  and  P_6
REMARK    5  A    between atoms: C_5  and  P_12
REMARK    6  A    between atoms: P_6  and  O_8
REMARK    7  A    between atoms: P_6  and  O_10
REMARK    8  A    between atoms: P_12  and  O_14
REMARK    9  A    between atoms: P_12  and  O_16
REMARK   10  A    between atoms: C_18  and  C_19
REMARK   11  A    between atoms: C_19  and  C_20
REMARK   12  A    between atoms: C_20  and  C_21
REMARK   13  A    between atoms: C_21  and  C_22
REMARK   14  A    between atoms: C_22  and  C_23
REMARK   15  A    between atoms: C_23  and  C_24
REMARK   16  A    between atoms: C_24  and  C_25
REMARK   17  A    between atoms: C_25  and  C_26
REMARK   18  A    between atoms: C_26  and  C_27
REMARK   19  A    between atoms: C_27  and  C_28
REMARK                            x       y       z     vdW  Elec       q    Type
REMARK                         _______ _______ _______ _____ _____    ______ ____
ROOT
ATOM      1  P   UNL     1      34.249 -23.465 -15.476  0.00  0.00    -0.089 P 
ATOM      2  C   UNL     1      32.952 -22.868 -14.469  0.00  0.00    +0.023 C 
ATOM      3  C   UNL     1      33.739 -23.580 -17.143  0.00  0.00    +0.023 C 
ENDROOT
BRANCH   1   4
ATOM      4  C   UNL     1      34.823 -25.009 -14.894  0.00  0.00    +0.043 C 
BRANCH   4   5
ATOM      5  C   UNL     1      36.212 -24.946 -14.242  0.00  0.00    +0.211 C 
BRANCH   5   6
ATOM      6  P   UNL     1      36.017 -24.600 -12.445  0.00  0.00    +0.348 P 
ATOM      7  O   UNL     1      36.427 -23.218 -12.029  0.00  0.00    -0.258 OA
BRANCH   6   8
ATOM      8  O   UNL     1      36.839 -25.798 -11.739  0.00  0.00    -0.323 OA
ATOM      9  H   UNL     1      36.387 -26.640 -11.903  0.00  0.00    +0.220 HD
ENDBRANCH   6   8
BRANCH   6  10
ATOM     10  O   UNL     1      34.473 -24.979 -12.159  0.00  0.00    -0.323 OA
ATOM     11  H   UNL     1      33.934 -24.173 -12.177  0.00  0.00    +0.220 HD
ENDBRANCH   6  10
ENDBRANCH   5   6
BRANCH   5  12
ATOM     12  P   UNL     1      37.254 -26.337 -14.838  0.00  0.00    +0.348 P 
ATOM     13  O   UNL     1      37.574 -27.379 -13.809  0.00  0.00    -0.258 OA
BRANCH  12  14
ATOM     14  O   UNL     1      38.533 -25.594 -15.488  0.00  0.00    -0.323 OA
ATOM     15  H   UNL     1      38.595 -25.820 -16.429  0.00  0.00    +0.220 HD
ENDBRANCH  12  14
BRANCH  12  16
ATOM     16  O   UNL     1      36.444 -26.883 -16.125  0.00  0.00    -0.323 OA
ATOM     17  H   UNL     1      36.786 -27.755 -16.376  0.00  0.00    +0.220 HD
ENDBRANCH  12  16
ENDBRANCH   5  12
ENDBRANCH   4   5
ENDBRANCH   1   4
BRANCH   1  18
ATOM     18  C   UNL     1      35.616 -22.289 -15.386  0.00  0.00    +0.018 C 
BRANCH  18  19
ATOM     19  C   UNL     1      36.714 -22.545 -16.410  0.00  0.00    +0.004 C 
BRANCH  19  20
ATOM     20  C   UNL     1      36.894 -21.429 -17.443  0.00  0.00    +0.000 C 
BRANCH  20  21
ATOM     21  C   UNL     1      36.117 -21.600 -18.752  0.00  0.00    +0.000 C 
BRANCH  21  22
ATOM     22  C   UNL     1      36.526 -20.599 -19.837  0.00  0.00    +0.000 C 
BRANCH  22  23
ATOM     23  C   UNL     1      35.520 -20.597 -20.992  0.00  0.00    +0.000 C 
BRANCH  23  24
ATOM     24  C   UNL     1      34.341 -19.646 -20.772  0.00  0.00    +0.000 C 
BRANCH  24  25
ATOM     25  C   UNL     1      34.525 -18.283 -21.441  0.00  0.00    +0.000 C 
BRANCH  25  26
ATOM     26  C   UNL     1      34.745 -18.431 -22.948  0.00  0.00    +0.000 C 
BRANCH  26  27
ATOM     27  C   UNL     1      35.003 -17.075 -23.609  0.00  0.00    +0.000 C 
BRANCH  27  28
ATOM     28  C   UNL     1      34.635 -17.102 -25.092  0.00  0.00    +0.000 C 
ATOM     29  C   UNL     1      33.794 -15.895 -25.479  0.00  0.00    +0.000 C 
ENDBRANCH  27  28
ENDBRANCH  26  27
ENDBRANCH  25  26
ENDBRANCH  24  25
ENDBRANCH  23  24
ENDBRANCH  22  23
ENDBRANCH  21  22
ENDBRANCH  20  21
ENDBRANCH  19  20
ENDBRANCH  18  19
ENDBRANCH   1  18
TORSDOF 19
ENDMDL
MODEL 7
REMARK VINA RESULT:      -7.0      9.509     13.196
REMARK  Name = 24836815
REMARK  19 active torsions:
REMARK  status: ('A' for Active; 'I' for Inactive)
REMARK    1  A    between atoms: P_1  and  C_4
REMARK    2  A    between atoms: P_1  and  C_18
REMARK    3  A    between atoms: C_4  and  C_5
REMARK    4  A    between atoms: C_5  and  P_6
REMARK    5  A    between atoms: C_5  and  P_12
REMARK    6  A    between atoms: P_6  and  O_8
REMARK    7  A    between atoms: P_6  and  O_10
REMARK    8  A    between atoms: P_12  and  O_14
REMARK    9  A    between atoms: P_12  and  O_16
REMARK   10  A    between atoms: C_18  and  C_19
REMARK   11  A    between atoms: C_19  and  C_20
REMARK   12  A    between atoms: C_20  and  C_21
REMARK   13  A    between atoms: C_21  and  C_22
REMARK   14  A    between atoms: C_22  and  C_23
REMARK   15  A    between atoms: C_23  and  C_24
REMARK   16  A    between atoms: C_24  and  C_25
REMARK   17  A    between atoms: C_25  and  C_26
REMARK   18  A    between atoms: C_26  and  C_27
REMARK   19  A    between atoms: C_27  and  C_28
REMARK                            x       y       z     vdW  Elec       q    Type
REMARK                         _______ _______ _______ _____ _____    ______ ____
ROOT
ATOM      1  P   UNL     1      33.369 -13.474 -24.105  0.00  0.00    -0.089 P 
ATOM      2  C   UNL     1      32.259 -12.966 -22.855  0.00  0.00    +0.023 C 
ATOM      3  C   UNL     1      32.512 -14.226 -25.429  0.00  0.00    +0.023 C 
ENDROOT
BRANCH   1   4
ATOM      4  C   UNL     1      34.580 -14.554 -23.456  0.00  0.00    +0.043 C 
BRANCH   4   5
ATOM      5  C   UNL     1      34.032 -15.936 -23.072  0.00  0.00    +0.211 C 
BRANCH   5   6
ATOM      6  P   UNL     1      34.812 -17.211 -24.145  0.00  0.00    +0.348 P 
ATOM      7  O   UNL     1      33.910 -18.352 -24.513  0.00  0.00    -0.258 OA
BRANCH   6   8
ATOM      8  O   UNL     1      36.142 -17.629 -23.329  0.00  0.00    -0.323 OA
ATOM      9  H   UNL     1      35.892 -18.127 -22.536  0.00  0.00    +0.220 HD
ENDBRANCH   6   8
BRANCH   6  10
ATOM     10  O   UNL     1      35.384 -16.353 -25.389  0.00  0.00    -0.323 OA
ATOM     11  H   UNL     1      36.298 -16.087 -25.204  0.00  0.00    +0.220 HD
ENDBRANCH   6  10
ENDBRANCH   5   6
BRANCH   5  12
ATOM     12  P   UNL     1      34.000 -16.116 -21.244  0.00  0.00    +0.348 P 
ATOM     13  O   UNL     1      34.893 -15.172 -20.496  0.00  0.00    -0.258 OA
BRANCH  12  14
ATOM     14  O   UNL     1      34.313 -17.685 -21.018  0.00  0.00    -0.323 OA
ATOM     15  H   UNL     1      33.533 -18.209 -21.260  0.00  0.00    +0.220 HD
ENDBRANCH  12  14
BRANCH  12  16
ATOM     16  O   UNL     1      32.430 -15.992 -20.885  0.00  0.00    -0.323 OA
ATOM     17  H   UNL     1      32.313 -15.352 -20.166  0.00  0.00    +0.220 HD
ENDBRANCH  12  16
ENDBRANCH   5  12
ENDBRANCH   4   5
ENDBRANCH   1   4
BRANCH   1  18
ATOM     18  C   UNL     1      34.208 -12.007 -24.740  0.00  0.00    +0.018 C 
BRANCH  18  19
ATOM     19  C   UNL     1      33.868 -10.729 -23.984  0.00  0.00    +0.004 C 
BRANCH  19  20
ATOM     20  C   UNL     1      34.758  -9.531 -24.326  0.00  0.00    +0.000 C 
BRANCH  20  21
ATOM     21  C   UNL     1      34.532  -8.269 -23.487  0.00  0.00    +0.000 C 
BRANCH  21  22
ATOM     22  C   UNL     1      34.209  -7.030 -24.326  0.00  0.00    +0.000 C 
BRANCH  22  23
ATOM     23  C   UNL     1      32.882  -6.401 -23.892  0.00  0.00    +0.000 C 
BRANCH  23  24
ATOM     24  C   UNL     1      32.083  -7.273 -22.920  0.00  0.00    +0.000 C 
BRANCH  24  25
ATOM     25  C   UNL     1      31.772  -6.579 -21.593  0.00  0.00    +0.000 C 
BRANCH  25  26
ATOM     26  C   UNL     1      32.316  -7.381 -20.408  0.00  0.00    +0.000 C 
BRANCH  26  27
ATOM     27  C   UNL     1      32.299  -8.883 -20.698  0.00  0.00    +0.000 C 
BRANCH  27  28
ATOM     28  C   UNL     1      31.915  -9.684 -19.453  0.00  0.00    +0.000 C 
ATOM     29  C   UNL     1      31.143 -10.943 -19.818  0.00  0.00    +0.000 C 
ENDBRANCH  27  28
ENDBRANCH  26  27
ENDBRANCH  25  26
ENDBRANCH  24  25
ENDBRANCH  23  24
ENDBRANCH  22  23
ENDBRANCH  21  22
ENDBRANCH  20  21
ENDBRANCH  19  20
ENDBRANCH  18  19
ENDBRANCH   1  18
TORSDOF 19
ENDMDL
MODEL 8
REMARK VINA RESULT:      -6.9      9.600     13.337
REMARK  Name = 24836815
REMARK  19 active torsions:
REMARK  status: ('A' for Active; 'I' for Inactive)
REMARK    1  A    between atoms: P_1  and  C_4
REMARK    2  A    between atoms: P_1  and  C_18
REMARK    3  A    between atoms: C_4  and  C_5
REMARK    4  A    between atoms: C_5  and  P_6
REMARK    5  A    between atoms: C_5  and  P_12
REMARK    6  A    between atoms: P_6  and  O_8
REMARK    7  A    between atoms: P_6  and  O_10
REMARK    8  A    between atoms: P_12  and  O_14
REMARK    9  A    between atoms: P_12  and  O_16
REMARK   10  A    between atoms: C_18  and  C_19
REMARK   11  A    between atoms: C_19  and  C_20
REMARK   12  A    between atoms: C_20  and  C_21
REMARK   13  A    between atoms: C_21  and  C_22
REMARK   14  A    between atoms: C_22  and  C_23
REMARK   15  A    between atoms: C_23  and  C_24
REMARK   16  A    between atoms: C_24  and  C_25
REMARK   17  A    between atoms: C_25  and  C_26
REMARK   18  A    between atoms: C_26  and  C_27
REMARK   19  A    between atoms: C_27  and  C_28
REMARK                            x       y       z     vdW  Elec       q    Type
REMARK                         _______ _______ _______ _____ _____    ______ ____
ROOT
ATOM      1  P   UNL     1      33.418 -13.564 -23.945  0.00  0.00    -0.089 P 
ATOM      2  C   UNL     1      32.125 -13.240 -22.814  0.00  0.00    +0.023 C 
ATOM      3  C   UNL     1      32.783 -14.158 -25.460  0.00  0.00    +0.023 C 
ENDROOT
BRANCH   1   4
ATOM      4  C   UNL     1      34.565 -14.693 -23.266  0.00  0.00    +0.043 C 
BRANCH   4   5
ATOM      5  C   UNL     1      33.982 -16.092 -23.020  0.00  0.00    +0.211 C 
BRANCH   5   6
ATOM      6  P   UNL     1      34.858 -17.306 -24.091  0.00  0.00    +0.348 P 
ATOM      7  O   UNL     1      35.078 -16.845 -25.502  0.00  0.00    -0.258 OA
BRANCH   6   8
ATOM      8  O   UNL     1      33.973 -18.649 -23.941  0.00  0.00    -0.323 OA
ATOM      9  H   UNL     1      33.262 -18.643 -24.600  0.00  0.00    +0.220 HD
ENDBRANCH   6   8
BRANCH   6  10
ATOM     10  O   UNL     1      36.199 -17.640 -23.255  0.00  0.00    -0.323 OA
ATOM     11  H   UNL     1      36.698 -18.335 -23.710  0.00  0.00    +0.220 HD
ENDBRANCH   6  10
ENDBRANCH   5   6
BRANCH   5  12
ATOM     12  P   UNL     1      33.779 -16.383 -21.217  0.00  0.00    +0.348 P 
ATOM     13  O   UNL     1      32.404 -16.115 -20.680  0.00  0.00    -0.258 OA
BRANCH  12  14
ATOM     14  O   UNL     1      34.960 -15.498 -20.560  0.00  0.00    -0.323 OA
ATOM     15  H   UNL     1      34.860 -14.573 -20.832  0.00  0.00    +0.220 HD
ENDBRANCH  12  14
BRANCH  12  16
ATOM     16  O   UNL     1      34.296 -17.901 -21.024  0.00  0.00    -0.323 OA
ATOM     17  H   UNL     1      33.935 -18.264 -20.201  0.00  0.00    +0.220 HD
ENDBRANCH  12  16
ENDBRANCH   5  12
ENDBRANCH   4   5
ENDBRANCH   1   4
BRANCH   1  18
ATOM     18  C   UNL     1      34.282 -12.012 -24.267  0.00  0.00    +0.018 C 
BRANCH  18  19
ATOM     19  C   UNL     1      33.353 -10.845 -24.577  0.00  0.00    +0.004 C 
BRANCH  19  20
ATOM     20  C   UNL     1      33.573  -9.607 -23.702  0.00  0.00    +0.000 C 
BRANCH  20  21
ATOM     21  C   UNL     1      34.864  -8.826 -23.961  0.00  0.00    +0.000 C 
BRANCH  21  22
ATOM     22  C   UNL     1      34.727  -7.322 -23.709  0.00  0.00    +0.000 C 
BRANCH  22  23
ATOM     23  C   UNL     1      33.911  -6.650 -24.817  0.00  0.00    +0.000 C 
BRANCH  23  24
ATOM     24  C   UNL     1      32.678  -5.904 -24.298  0.00  0.00    +0.000 C 
BRANCH  24  25
ATOM     25  C   UNL     1      31.422  -6.774 -24.233  0.00  0.00    +0.000 C 
BRANCH  25  26
ATOM     26  C   UNL     1      30.975  -6.994 -22.786  0.00  0.00    +0.000 C 
BRANCH  26  27
ATOM     27  C   UNL     1      31.787  -6.133 -21.816  0.00  0.00    +0.000 C 
BRANCH  27  28
ATOM     28  C   UNL     1      32.460  -6.989 -20.743  0.00  0.00    +0.000 C 
ATOM     29  C   UNL     1      31.963  -8.426 -20.786  0.00  0.00    +0.000 C 
ENDBRANCH  27  28
ENDBRANCH  26  27
ENDBRANCH  25  26
ENDBRANCH  24  25
ENDBRANCH  23  24
ENDBRANCH  22  23
ENDBRANCH  21  22
ENDBRANCH  20  21
ENDBRANCH  19  20
ENDBRANCH  18  19
ENDBRANCH   1  18
TORSDOF 19
ENDMDL
MODEL 9
REMARK VINA RESULT:      -6.9      1.553      2.504
REMARK  Name = 24836815
REMARK  19 active torsions:
REMARK  status: ('A' for Active; 'I' for Inactive)
REMARK    1  A    between atoms: P_1  and  C_4
REMARK    2  A    between atoms: P_1  and  C_18
REMARK    3  A    between atoms: C_4  and  C_5
REMARK    4  A    between atoms: C_5  and  P_6
REMARK    5  A    between atoms: C_5  and  P_12
REMARK    6  A    between atoms: P_6  and  O_8
REMARK    7  A    between atoms: P_6  and  O_10
REMARK    8  A    between atoms: P_12  and  O_14
REMARK    9  A    between atoms: P_12  and  O_16
REMARK   10  A    between atoms: C_18  and  C_19
REMARK   11  A    between atoms: C_19  and  C_20
REMARK   12  A    between atoms: C_20  and  C_21
REMARK   13  A    between atoms: C_21  and  C_22
REMARK   14  A    between atoms: C_22  and  C_23
REMARK   15  A    between atoms: C_23  and  C_24
REMARK   16  A    between atoms: C_24  and  C_25
REMARK   17  A    between atoms: C_25  and  C_26
REMARK   18  A    between atoms: C_26  and  C_27
REMARK   19  A    between atoms: C_27  and  C_28
REMARK                            x       y       z     vdW  Elec       q    Type
REMARK                         _______ _______ _______ _____ _____    ______ ____
ROOT
ATOM      1  P   UNL     1      33.922 -23.499 -15.517  0.00  0.00    -0.089 P 
ATOM      2  C   UNL     1      32.609 -22.668 -14.717  0.00  0.00    +0.023 C 
ATOM      3  C   UNL     1      33.439 -24.035 -17.108  0.00  0.00    +0.023 C 
ENDROOT
BRANCH   1   4
ATOM      4  C   UNL     1      34.483 -24.843 -14.552  0.00  0.00    +0.043 C 
BRANCH   4   5
ATOM      5  C   UNL     1      35.939 -24.702 -14.085  0.00  0.00    +0.211 C 
BRANCH   5   6
ATOM      6  P   UNL     1      35.960 -24.371 -12.274  0.00  0.00    +0.348 P 
ATOM      7  O   UNL     1      36.213 -25.581 -11.423  0.00  0.00    -0.258 OA
BRANCH   6   8
ATOM      8  O   UNL     1      34.548 -23.633 -12.010  0.00  0.00    -0.323 OA
ATOM      9  H   UNL     1      34.296 -23.125 -12.797  0.00  0.00    +0.220 HD
ENDBRANCH   6   8
BRANCH   6  10
ATOM     10  O   UNL     1      37.044 -23.182 -12.126  0.00  0.00    -0.323 OA
ATOM     11  H   UNL     1      36.841 -22.658 -11.336  0.00  0.00    +0.220 HD
ENDBRANCH   6  10
ENDBRANCH   5   6
BRANCH   5  12
ATOM     12  P   UNL     1      36.971 -26.031 -14.824  0.00  0.00    +0.348 P 
ATOM     13  O   UNL     1      36.290 -26.854 -15.877  0.00  0.00    -0.258 OA
BRANCH  12  14
ATOM     14  O   UNL     1      37.496 -26.856 -13.537  0.00  0.00    -0.323 OA
ATOM     15  H   UNL     1      37.136 -26.459 -12.729  0.00  0.00    +0.220 HD
ENDBRANCH  12  14
BRANCH  12  16
ATOM     16  O   UNL     1      38.288 -25.243 -15.327  0.00  0.00    -0.323 OA
ATOM     17  H   UNL     1      38.142 -24.910 -16.226  0.00  0.00    +0.220 HD
ENDBRANCH  12  16
ENDBRANCH   5  12
ENDBRANCH   4   5
ENDBRANCH   1   4
BRANCH   1  18
ATOM     18  C   UNL     1      35.289 -22.336 -15.707  0.00  0.00    +0.018 C 
BRANCH  18  19
ATOM     19  C   UNL     1      36.089 -22.532 -16.988  0.00  0.00    +0.004 C 
BRANCH  19  20
ATOM     20  C   UNL     1      35.579 -21.726 -18.187  0.00  0.00    +0.000 C 
BRANCH  20  21
ATOM     21  C   UNL     1      36.596 -21.473 -19.304  0.00  0.00    +0.000 C 
BRANCH  21  22
ATOM     22  C   UNL     1      36.111 -20.470 -20.353  0.00  0.00    +0.000 C 
BRANCH  22  23
ATOM     23  C   UNL     1      34.582 -20.368 -20.353  0.00  0.00    +0.000 C 
BRANCH  23  24
ATOM     24  C   UNL     1      34.032 -19.468 -21.462  0.00  0.00    +0.000 C 
BRANCH  24  25
ATOM     25  C   UNL     1      35.119 -18.863 -22.352  0.00  0.00    +0.000 C 
BRANCH  25  26
ATOM     26  C   UNL     1      35.032 -17.335 -22.372  0.00  0.00    +0.000 C 
BRANCH  26  27
ATOM     27  C   UNL     1      34.918 -16.765 -20.957  0.00  0.00    +0.000 C 
BRANCH  27  28
ATOM     28  C   UNL     1      34.470 -15.304 -20.982  0.00  0.00    +0.000 C 
ATOM     29  C   UNL     1      34.375 -14.775 -22.404  0.00  0.00    +0.000 C 
ENDBRANCH  27  28
ENDBRANCH  26  27
ENDBRANCH  25  26
ENDBRANCH  24  25
ENDBRANCH  23  24
ENDBRANCH  22  23
ENDBRANCH  21  22
ENDBRANCH  20  21
ENDBRANCH  19  20
ENDBRANCH  18  19
ENDBRANCH   1  18
TORSDOF 19
ENDMDL
