MODEL 1
REMARK VINA RESULT:      -7.1      0.000      0.000
REMARK  Name = 8405
REMARK  0 active torsions:
REMARK  status: ('A' for Active; 'I' for Inactive)
REMARK                            x       y       z     vdW  Elec       q    Type
REMARK                         _______ _______ _______ _____ _____    ______ ____
ROOT
ATOM      1  N   UNL     1      35.217 -22.505 -18.507  0.00  0.00    -0.242 NA
ATOM      2  C   UNL     1      34.287 -20.496 -20.246  0.00  0.00    +0.003 C 
ATOM      3  C   UNL     1      35.666 -20.616 -19.971  0.00  0.00    +0.019 C 
ATOM      4  C   UNL     1      33.851 -19.484 -21.118  0.00  0.00    +0.000 C 
ATOM      5  C   UNL     1      36.577 -19.729 -20.568  0.00  0.00    +0.002 C 
ATOM      6  C   UNL     1      33.396 -21.389 -19.642  0.00  0.00    +0.021 C 
ATOM      7  C   UNL     1      36.063 -21.633 -19.100  0.00  0.00    +0.099 C 
ATOM      8  C   UNL     1      34.766 -18.609 -21.704  0.00  0.00    +0.000 C 
ATOM      9  C   UNL     1      36.126 -18.731 -21.430  0.00  0.00    +0.000 C 
ATOM     10  C   UNL     1      33.906 -22.360 -18.793  0.00  0.00    +0.099 C 
ENDROOT
TORSDOF 0
ENDMDL
MODEL 2
REMARK VINA RESULT:      -7.1      0.962      2.131
REMARK  Name = 8405
REMARK  0 active torsions:
REMARK  status: ('A' for Active; 'I' for Inactive)
REMARK                            x       y       z     vdW  Elec       q    Type
REMARK                         _______ _______ _______ _____ _____    ______ ____
ROOT
ATOM      1  N   UNL     1      32.912 -21.995 -19.371  0.00  0.00    -0.242 NA
ATOM      2  C   UNL     1      35.352 -20.747 -20.019  0.00  0.00    +0.003 C 
ATOM      3  C   UNL     1      34.131 -20.189 -20.453  0.00  0.00    +0.019 C 
ATOM      4  C   UNL     1      36.555 -20.104 -20.356  0.00  0.00    +0.000 C 
ATOM      5  C   UNL     1      34.134 -19.007 -21.211  0.00  0.00    +0.002 C 
ATOM      6  C   UNL     1      35.328 -21.926 -19.265  0.00  0.00    +0.021 C 
ATOM      7  C   UNL     1      32.956 -20.856 -20.099  0.00  0.00    +0.099 C 
ATOM      8  C   UNL     1      36.544 -18.929 -21.110  0.00  0.00    +0.000 C 
ATOM      9  C   UNL     1      35.337 -18.381 -21.536  0.00  0.00    +0.000 C 
ATOM     10  C   UNL     1      34.099 -22.500 -18.974  0.00  0.00    +0.099 C 
ENDROOT
TORSDOF 0
ENDMDL
MODEL 3
REMARK VINA RESULT:      -6.9      1.787      3.473
REMARK  Name = 8405
REMARK  0 active torsions:
REMARK  status: ('A' for Active; 'I' for Inactive)
REMARK                            x       y       z     vdW  Elec       q    Type
REMARK                         _______ _______ _______ _____ _____    ______ ____
ROOT
ATOM      1  N   UNL     1      36.360 -18.435 -21.674  0.00  0.00    -0.242 NA
ATOM      2  C   UNL     1      34.246 -19.978 -20.637  0.00  0.00    +0.003 C 
ATOM      3  C   UNL     1      35.582 -20.294 -20.312  0.00  0.00    +0.019 C 
ATOM      4  C   UNL     1      33.210 -20.765 -20.106  0.00  0.00    +0.000 C 
ATOM      5  C   UNL     1      35.858 -21.382 -19.469  0.00  0.00    +0.002 C 
ATOM      6  C   UNL     1      33.992 -18.890 -21.479  0.00  0.00    +0.021 C 
ATOM      7  C   UNL     1      36.585 -19.490 -20.859  0.00  0.00    +0.099 C 
ATOM      8  C   UNL     1      33.497 -21.844 -19.268  0.00  0.00    +0.000 C 
ATOM      9  C   UNL     1      34.818 -22.153 -18.950  0.00  0.00    +0.000 C 
ATOM     10  C   UNL     1      35.069 -18.162 -21.963  0.00  0.00    +0.099 C 
ENDROOT
TORSDOF 0
ENDMDL
MODEL 4
REMARK VINA RESULT:      -6.9      1.944      4.055
REMARK  Name = 8405
REMARK  0 active torsions:
REMARK  status: ('A' for Active; 'I' for Inactive)
REMARK                            x       y       z     vdW  Elec       q    Type
REMARK                         _______ _______ _______ _____ _____    ______ ____
ROOT
ATOM      1  N   UNL     1      34.777 -17.952 -21.989  0.00  0.00    -0.242 NA
ATOM      2  C   UNL     1      35.513 -20.183 -20.436  0.00  0.00    +0.003 C 
ATOM      3  C   UNL     1      34.150 -19.882 -20.648  0.00  0.00    +0.019 C 
ATOM      4  C   UNL     1      35.852 -21.301 -19.657  0.00  0.00    +0.000 C 
ATOM      5  C   UNL     1      33.159 -20.699 -20.082  0.00  0.00    +0.002 C 
ATOM      6  C   UNL     1      36.486 -19.356 -21.008  0.00  0.00    +0.021 C 
ATOM      7  C   UNL     1      33.852 -18.763 -21.427  0.00  0.00    +0.099 C 
ATOM      8  C   UNL     1      34.857 -22.106 -19.100  0.00  0.00    +0.000 C 
ATOM      9  C   UNL     1      33.513 -21.806 -19.311  0.00  0.00    +0.000 C 
ATOM     10  C   UNL     1      36.070 -18.270 -21.765  0.00  0.00    +0.099 C 
ENDROOT
TORSDOF 0
ENDMDL
MODEL 5
REMARK VINA RESULT:      -6.5      4.130      5.270
REMARK  Name = 8405
REMARK  0 active torsions:
REMARK  status: ('A' for Active; 'I' for Inactive)
REMARK                            x       y       z     vdW  Elec       q    Type
REMARK                         _______ _______ _______ _____ _____    ______ ____
ROOT
ATOM      1  N   UNL     1      34.943 -15.989 -20.368  0.00  0.00    -0.242 NA
ATOM      2  C   UNL     1      34.557 -16.251 -23.145  0.00  0.00    +0.003 C 
ATOM      3  C   UNL     1      34.942 -17.367 -22.372  0.00  0.00    +0.019 C 
ATOM      4  C   UNL     1      34.371 -16.410 -24.528  0.00  0.00    +0.000 C 
ATOM      5  C   UNL     1      35.134 -18.613 -22.991  0.00  0.00    +0.002 C 
ATOM      6  C   UNL     1      34.372 -15.019 -22.509  0.00  0.00    +0.021 C 
ATOM      7  C   UNL     1      35.117 -17.171 -21.001  0.00  0.00    +0.099 C 
ATOM      8  C   UNL     1      34.565 -17.654 -25.132  0.00  0.00    +0.000 C 
ATOM      9  C   UNL     1      34.945 -18.753 -24.366  0.00  0.00    +0.000 C 
ATOM     10  C   UNL     1      34.575 -14.944 -21.139  0.00  0.00    +0.099 C 
ENDROOT
TORSDOF 0
ENDMDL
MODEL 6
REMARK VINA RESULT:      -6.5      4.211      6.038
REMARK  Name = 8405
REMARK  0 active torsions:
REMARK  status: ('A' for Active; 'I' for Inactive)
REMARK                            x       y       z     vdW  Elec       q    Type
REMARK                         _______ _______ _______ _____ _____    ______ ____
ROOT
ATOM      1  N   UNL     1      34.040 -16.434 -25.890  0.00  0.00    -0.242 NA
ATOM      2  C   UNL     1      34.491 -16.443 -23.111  0.00  0.00    +0.003 C 
ATOM      3  C   UNL     1      34.840 -17.566 -23.891  0.00  0.00    +0.019 C 
ATOM      4  C   UNL     1      34.727 -16.474 -21.726  0.00  0.00    +0.000 C 
ATOM      5  C   UNL     1      35.414 -18.691 -23.278  0.00  0.00    +0.002 C 
ATOM      6  C   UNL     1      33.920 -15.332 -23.740  0.00  0.00    +0.021 C 
ATOM      7  C   UNL     1      34.591 -17.499 -25.263  0.00  0.00    +0.099 C 
ATOM      8  C   UNL     1      35.299 -17.599 -21.128  0.00  0.00    +0.000 C 
ATOM      9  C   UNL     1      35.642 -18.705 -21.903  0.00  0.00    +0.000 C 
ATOM     10  C   UNL     1      33.719 -15.379 -25.112  0.00  0.00    +0.099 C 
ENDROOT
TORSDOF 0
ENDMDL
MODEL 7
REMARK VINA RESULT:      -6.5      4.657      5.880
REMARK  Name = 8405
REMARK  0 active torsions:
REMARK  status: ('A' for Active; 'I' for Inactive)
REMARK                            x       y       z     vdW  Elec       q    Type
REMARK                         _______ _______ _______ _____ _____    ______ ____
ROOT
ATOM      1  N   UNL     1      34.364 -17.277 -25.557  0.00  0.00    -0.242 NA
ATOM      2  C   UNL     1      34.678 -17.164 -22.761  0.00  0.00    +0.003 C 
ATOM      3  C   UNL     1      34.394 -15.991 -23.493  0.00  0.00    +0.019 C 
ATOM      4  C   UNL     1      34.830 -17.080 -21.367  0.00  0.00    +0.000 C 
ATOM      5  C   UNL     1      34.269 -14.764 -22.822  0.00  0.00    +0.002 C 
ATOM      6  C   UNL     1      34.800 -18.377 -23.448  0.00  0.00    +0.021 C 
ATOM      7  C   UNL     1      34.250 -16.114 -24.876  0.00  0.00    +0.099 C 
ATOM      8  C   UNL     1      34.703 -15.854 -20.712  0.00  0.00    +0.000 C 
ATOM      9  C   UNL     1      34.423 -14.698 -21.438  0.00  0.00    +0.000 C 
ATOM     10  C   UNL     1      34.636 -18.378 -24.825  0.00  0.00    +0.099 C 
ENDROOT
TORSDOF 0
ENDMDL
MODEL 8
REMARK VINA RESULT:      -6.5      3.989      5.553
REMARK  Name = 8405
REMARK  0 active torsions:
REMARK  status: ('A' for Active; 'I' for Inactive)
REMARK                            x       y       z     vdW  Elec       q    Type
REMARK                         _______ _______ _______ _____ _____    ______ ____
ROOT
ATOM      1  N   UNL     1      34.473 -14.340 -22.488  0.00  0.00    -0.242 NA
ATOM      2  C   UNL     1      34.697 -17.036 -21.708  0.00  0.00    +0.003 C 
ATOM      3  C   UNL     1      34.722 -16.687 -23.074  0.00  0.00    +0.019 C 
ATOM      4  C   UNL     1      34.811 -18.388 -21.346  0.00  0.00    +0.000 C 
ATOM      5  C   UNL     1      34.860 -17.689 -24.048  0.00  0.00    +0.002 C 
ATOM      6  C   UNL     1      34.559 -16.022 -20.752  0.00  0.00    +0.021 C 
ATOM      7  C   UNL     1      34.607 -15.333 -23.396  0.00  0.00    +0.099 C 
ATOM      8  C   UNL     1      34.947 -19.375 -22.323  0.00  0.00    +0.000 C 
ATOM      9  C   UNL     1      34.972 -19.027 -23.672  0.00  0.00    +0.000 C 
ATOM     10  C   UNL     1      34.452 -14.710 -21.190  0.00  0.00    +0.099 C 
ENDROOT
TORSDOF 0
ENDMDL
MODEL 9
REMARK VINA RESULT:      -6.4      3.317      5.024
REMARK  Name = 8405
REMARK  0 active torsions:
REMARK  status: ('A' for Active; 'I' for Inactive)
REMARK                            x       y       z     vdW  Elec       q    Type
REMARK                         _______ _______ _______ _____ _____    ______ ____
ROOT
ATOM      1  N   UNL     1      35.455 -17.771 -20.777  0.00  0.00    -0.242 NA
ATOM      2  C   UNL     1      34.932 -17.512 -23.531  0.00  0.00    +0.003 C 
ATOM      3  C   UNL     1      34.582 -16.475 -22.641  0.00  0.00    +0.019 C 
ATOM      4  C   UNL     1      34.660 -17.357 -24.901  0.00  0.00    +0.000 C 
ATOM      5  C   UNL     1      33.971 -15.310 -23.132  0.00  0.00    +0.002 C 
ATOM      6  C   UNL     1      35.540 -18.665 -23.023  0.00  0.00    +0.021 C 
ATOM      7  C   UNL     1      34.868 -16.665 -21.287  0.00  0.00    +0.099 C 
ATOM      8  C   UNL     1      34.053 -16.194 -25.377  0.00  0.00    +0.000 C 
ATOM      9  C   UNL     1      33.709 -15.172 -24.494  0.00  0.00    +0.000 C 
ATOM     10  C   UNL     1      35.776 -18.742 -21.658  0.00  0.00    +0.099 C 
ENDROOT
TORSDOF 0
ENDMDL
