MODEL 1
REMARK VINA RESULT:     -10.9      0.000      0.000
REMARK  Name = 4369141
REMARK  13 active torsions:
REMARK  status: ('A' for Active; 'I' for Inactive)
REMARK    1  A    between atoms: C_1  and  C_4
REMARK    2  A    between atoms: C_1  and  N_19
REMARK    3  A    between atoms: C_1  and  C_35
REMARK    4  A    between atoms: N_3  and  C_6
REMARK    5  A    between atoms: C_6  and  C_9
REMARK    6  A    between atoms: N_8  and  C_11
REMARK    7  A    between atoms: C_11  and  C_12
REMARK    8  A    between atoms: C_11  and  C_16
REMARK    9  A    between atoms: C_16  and  O_17
REMARK   10  A    between atoms: N_19  and  C_22
REMARK   11  A    between atoms: C_22  and  C_23
REMARK   12  A    between atoms: C_26  and  C_29
REMARK   13  A    between atoms: C_35  and  S_36
REMARK                            x       y       z     vdW  Elec       q    Type
REMARK                         _______ _______ _______ _____ _____    ______ ____
ROOT
ATOM      1  C   UNL     1      33.217 -13.042 -23.781  0.00  0.00    +0.028 C 
ENDROOT
BRANCH   1   4
ATOM      2  O   UNL     1      33.974 -11.988 -25.829  0.00  0.00    -0.277 OA
ATOM      3  N   UNL     1      34.254 -10.841 -23.829  0.00  0.00    -0.298 N 
ATOM      4  C   UNL     1      33.857 -11.928 -24.606  0.00  0.00    +0.204 C 
ATOM      5  H   UNL     1      34.121 -10.883 -22.855  0.00  0.00    +0.150 HD
BRANCH   3   6
ATOM      6  C   UNL     1      34.851  -9.666 -24.392  0.00  0.00    +0.176 C 
BRANCH   6   9
ATOM      7  O   UNL     1      35.027  -7.381 -23.631  0.00  0.00    -0.273 OA
ATOM      8  N   UNL     1      33.313  -8.719 -22.809  0.00  0.00    -0.295 N 
ATOM      9  C   UNL     1      34.423  -8.451 -23.599  0.00  0.00    +0.243 C 
ATOM     10  H   UNL     1      32.907  -9.615 -22.864  0.00  0.00    +0.150 HD
BRANCH   8  11
ATOM     11  C   UNL     1      32.723  -7.755 -21.914  0.00  0.00    +0.171 C 
BRANCH  11  12
ATOM     12  C   UNL     1      31.490  -7.051 -22.518  0.00  0.00    +0.029 C 
ATOM     13  C   UNL     1      31.832  -5.633 -22.984  0.00  0.00    +0.002 C 
ATOM     14  C   UNL     1      30.845  -7.837 -23.665  0.00  0.00    +0.002 C 
ENDBRANCH  11  12
BRANCH  11  16
ATOM     15  O   UNL     1      32.471  -7.751 -19.509  0.00  0.00    -0.248 OA
ATOM     16  C   UNL     1      32.398  -8.378 -20.560  0.00  0.00    +0.335 C 
BRANCH  16  17
ATOM     17  O   UNL     1      32.029  -9.685 -20.670  0.00  0.00    -0.443 OA
ATOM     18  C   UNL     1      31.602 -10.315 -19.457  0.00  0.00    +0.256 C 
ENDBRANCH  16  17
ENDBRANCH  11  16
ENDBRANCH   8  11
ENDBRANCH   6   9
ENDBRANCH   3   6
ENDBRANCH   1   4
BRANCH   1  19
ATOM     19  N   UNL     1      34.335 -13.794 -23.206  0.00  0.00    +0.394 N 
ATOM     20  H   UNL     1      34.095 -14.078 -22.257  0.00  0.00    -0.083 HD
ATOM     21  H   UNL     1      35.163 -13.198 -23.199  0.00  0.00    -0.083 HD
BRANCH  19  22
ATOM     22  C   UNL     1      34.619 -14.978 -24.001  0.00  0.00    -0.053 C 
BRANCH  22  23
ATOM     23  C   UNL     1      34.653 -16.225 -23.157  0.00  0.00    -0.044 C 
ATOM     24  C   UNL     1      34.698 -17.478 -23.768  0.00  0.00    -0.006 C 
ATOM     25  C   UNL     1      34.639 -16.127 -21.766  0.00  0.00    -0.006 C 
ATOM     26  C   UNL     1      34.716 -18.535 -21.596  0.00  0.00    -0.000 C 
ATOM     27  C   UNL     1      34.730 -18.633 -22.987  0.00  0.00    -0.000 C 
ATOM     28  C   UNL     1      34.671 -17.283 -20.985  0.00  0.00    -0.000 C 
BRANCH  26  29
ATOM     29  C   UNL     1      34.749 -19.734 -20.786  0.00  0.00    -0.000 C 
ATOM     30  C   UNL     1      33.558 -20.328 -20.371  0.00  0.00    -0.000 C 
ATOM     31  C   UNL     1      35.973 -20.297 -20.424  0.00  0.00    -0.000 C 
ATOM     32  C   UNL     1      33.590 -21.485 -19.591  0.00  0.00    +0.000 C 
ATOM     33  C   UNL     1      36.005 -21.454 -19.645  0.00  0.00    +0.000 C 
ATOM     34  C   UNL     1      34.813 -22.047 -19.229  0.00  0.00    +0.000 C 
ENDBRANCH  26  29
ENDBRANCH  22  23
ENDBRANCH  19  22
ENDBRANCH   1  19
BRANCH   1  35
ATOM     35  C   UNL     1      32.340 -12.507 -22.646  0.00  0.00    +0.041 C 
BRANCH  35  36
ATOM     36  S   UNL     1      32.381 -13.612 -21.199  0.00  0.00    -0.170 S 
ATOM     37  H   UNL     1      32.817 -14.843 -21.581  0.00  0.00    +0.102 HD
ENDBRANCH  35  36
ENDBRANCH   1  35
TORSDOF 13
ENDMDL
MODEL 2
REMARK VINA RESULT:     -10.6      1.891      2.991
REMARK  Name = 4369141
REMARK  13 active torsions:
REMARK  status: ('A' for Active; 'I' for Inactive)
REMARK    1  A    between atoms: C_1  and  C_4
REMARK    2  A    between atoms: C_1  and  N_19
REMARK    3  A    between atoms: C_1  and  C_35
REMARK    4  A    between atoms: N_3  and  C_6
REMARK    5  A    between atoms: C_6  and  C_9
REMARK    6  A    between atoms: N_8  and  C_11
REMARK    7  A    between atoms: C_11  and  C_12
REMARK    8  A    between atoms: C_11  and  C_16
REMARK    9  A    between atoms: C_16  and  O_17
REMARK   10  A    between atoms: N_19  and  C_22
REMARK   11  A    between atoms: C_22  and  C_23
REMARK   12  A    between atoms: C_26  and  C_29
REMARK   13  A    between atoms: C_35  and  S_36
REMARK                            x       y       z     vdW  Elec       q    Type
REMARK                         _______ _______ _______ _____ _____    ______ ____
ROOT
ATOM      1  C   UNL     1      33.799 -13.816 -24.037  0.00  0.00    +0.028 C 
ENDROOT
BRANCH   1   4
ATOM      2  O   UNL     1      32.257 -14.335 -22.240  0.00  0.00    -0.277 OA
ATOM      3  N   UNL     1      32.482 -12.119 -22.894  0.00  0.00    -0.298 N 
ATOM      4  C   UNL     1      32.761 -13.483 -22.969  0.00  0.00    +0.204 C 
ATOM      5  H   UNL     1      32.934 -11.509 -23.520  0.00  0.00    +0.150 HD
BRANCH   3   6
ATOM      6  C   UNL     1      31.561 -11.570 -21.943  0.00  0.00    +0.176 C 
BRANCH   6   9
ATOM      7  O   UNL     1      31.587  -9.540 -20.635  0.00  0.00    -0.273 OA
ATOM      8  N   UNL     1      32.637  -9.563 -22.708  0.00  0.00    -0.295 N 
ATOM      9  C   UNL     1      31.927 -10.129 -21.657  0.00  0.00    +0.243 C 
ATOM     10  H   UNL     1      32.857 -10.131 -23.482  0.00  0.00    +0.150 HD
BRANCH   8  11
ATOM     11  C   UNL     1      33.070  -8.188 -22.724  0.00  0.00    +0.171 C 
BRANCH  11  12
ATOM     12  C   UNL     1      34.406  -7.988 -23.471  0.00  0.00    +0.029 C 
ATOM     13  C   UNL     1      34.838  -9.269 -24.189  0.00  0.00    +0.002 C 
ATOM     14  C   UNL     1      34.377  -6.817 -24.460  0.00  0.00    +0.002 C 
ENDBRANCH  11  12
BRANCH  11  16
ATOM     15  O   UNL     1      31.252  -7.592 -24.204  0.00  0.00    -0.248 OA
ATOM     16  C   UNL     1      31.984  -7.269 -23.274  0.00  0.00    +0.335 C 
BRANCH  16  17
ATOM     17  O   UNL     1      31.938  -6.076 -22.618  0.00  0.00    -0.443 OA
ATOM     18  C   UNL     1      31.992  -6.149 -21.189  0.00  0.00    +0.256 C 
ENDBRANCH  16  17
ENDBRANCH  11  16
ENDBRANCH   8  11
ENDBRANCH   6   9
ENDBRANCH   3   6
ENDBRANCH   1   4
BRANCH   1  19
ATOM     19  N   UNL     1      33.534 -15.205 -24.420  0.00  0.00    +0.394 N 
ATOM     20  H   UNL     1      33.102 -15.222 -25.343  0.00  0.00    -0.083 HD
ATOM     21  H   UNL     1      32.909 -15.623 -23.730  0.00  0.00    -0.083 HD
BRANCH  19  22
ATOM     22  C   UNL     1      34.769 -15.971 -24.457  0.00  0.00    -0.053 C 
BRANCH  22  23
ATOM     23  C   UNL     1      34.773 -17.078 -23.436  0.00  0.00    -0.044 C 
ATOM     24  C   UNL     1      34.803 -16.772 -22.076  0.00  0.00    -0.006 C 
ATOM     25  C   UNL     1      34.748 -18.410 -23.852  0.00  0.00    -0.006 C 
ATOM     26  C   UNL     1      34.782 -19.129 -21.545  0.00  0.00    -0.000 C 
ATOM     27  C   UNL     1      34.807 -17.797 -21.130  0.00  0.00    -0.000 C 
ATOM     28  C   UNL     1      34.752 -19.435 -22.905  0.00  0.00    -0.000 C 
BRANCH  26  29
ATOM     29  C   UNL     1      34.786 -20.192 -20.564  0.00  0.00    -0.000 C 
ATOM     30  C   UNL     1      33.583 -20.757 -20.143  0.00  0.00    -0.000 C 
ATOM     31  C   UNL     1      35.994 -20.653 -20.041  0.00  0.00    -0.000 C 
ATOM     32  C   UNL     1      33.587 -21.784 -19.198  0.00  0.00    +0.000 C 
ATOM     33  C   UNL     1      35.999 -21.680 -19.096  0.00  0.00    +0.000 C 
ATOM     34  C   UNL     1      34.795 -22.244 -18.675  0.00  0.00    +0.000 C 
ENDBRANCH  26  29
ENDBRANCH  22  23
ENDBRANCH  19  22
ENDBRANCH   1  19
BRANCH   1  35
ATOM     35  C   UNL     1      33.678 -12.926 -25.276  0.00  0.00    +0.041 C 
BRANCH  35  36
ATOM     36  S   UNL     1      33.017 -13.853 -26.697  0.00  0.00    -0.170 S 
ATOM     37  H   UNL     1      33.119 -15.188 -26.455  0.00  0.00    +0.102 HD
ENDBRANCH  35  36
ENDBRANCH   1  35
TORSDOF 13
ENDMDL
MODEL 3
REMARK VINA RESULT:      -9.9      8.895     13.889
REMARK  Name = 4369141
REMARK  13 active torsions:
REMARK  status: ('A' for Active; 'I' for Inactive)
REMARK    1  A    between atoms: C_1  and  C_4
REMARK    2  A    between atoms: C_1  and  N_19
REMARK    3  A    between atoms: C_1  and  C_35
REMARK    4  A    between atoms: N_3  and  C_6
REMARK    5  A    between atoms: C_6  and  C_9
REMARK    6  A    between atoms: N_8  and  C_11
REMARK    7  A    between atoms: C_11  and  C_12
REMARK    8  A    between atoms: C_11  and  C_16
REMARK    9  A    between atoms: C_16  and  O_17
REMARK   10  A    between atoms: N_19  and  C_22
REMARK   11  A    between atoms: C_22  and  C_23
REMARK   12  A    between atoms: C_26  and  C_29
REMARK   13  A    between atoms: C_35  and  S_36
REMARK                            x       y       z     vdW  Elec       q    Type
REMARK                         _______ _______ _______ _____ _____    ______ ____
ROOT
ATOM      1  C   UNL     1      32.716 -22.991 -15.606  0.00  0.00    +0.028 C 
ENDROOT
BRANCH   1   4
ATOM      2  O   UNL     1      32.411 -25.047 -14.359  0.00  0.00    -0.277 OA
ATOM      3  N   UNL     1      33.868 -23.450 -13.512  0.00  0.00    -0.298 N 
ATOM      4  C   UNL     1      32.954 -23.947 -14.440  0.00  0.00    +0.204 C 
ATOM      5  H   UNL     1      34.253 -22.556 -13.660  0.00  0.00    +0.150 HD
BRANCH   3   6
ATOM      6  C   UNL     1      34.268 -24.188 -12.351  0.00  0.00    +0.176 C 
BRANCH   6   9
ATOM      7  O   UNL     1      36.420 -24.722 -11.391  0.00  0.00    -0.273 OA
ATOM      8  N   UNL     1      36.292 -24.167 -13.645  0.00  0.00    -0.295 N 
ATOM      9  C   UNL     1      35.765 -24.410 -12.383  0.00  0.00    +0.243 C 
ATOM     10  H   UNL     1      35.673 -23.923 -14.370  0.00  0.00    +0.150 HD
BRANCH   8  11
ATOM     11  C   UNL     1      37.699 -24.254 -13.948  0.00  0.00    +0.171 C 
BRANCH  11  12
ATOM     12  C   UNL     1      38.242 -25.697 -13.868  0.00  0.00    +0.029 C 
ATOM     13  C   UNL     1      37.589 -26.596 -14.921  0.00  0.00    +0.002 C 
ATOM     14  C   UNL     1      39.768 -25.776 -13.986  0.00  0.00    +0.002 C 
ENDBRANCH  11  12
BRANCH  11  16
ATOM     15  O   UNL     1      39.142 -23.636 -15.788  0.00  0.00    -0.248 OA
ATOM     16  C   UNL     1      38.019 -23.616 -15.295  0.00  0.00    +0.335 C 
BRANCH  16  17
ATOM     17  O   UNL     1      36.924 -23.034 -15.862  0.00  0.00    -0.443 OA
ATOM     18  C   UNL     1      37.134 -21.736 -16.430  0.00  0.00    +0.256 C 
ENDBRANCH  16  17
ENDBRANCH  11  16
ENDBRANCH   8  11
ENDBRANCH   6   9
ENDBRANCH   3   6
ENDBRANCH   1   4
BRANCH   1  19
ATOM     19  N   UNL     1      33.895 -23.123 -16.466  0.00  0.00    +0.394 N 
ATOM     20  H   UNL     1      34.489 -23.869 -16.108  0.00  0.00    -0.083 HD
ATOM     21  H   UNL     1      34.401 -22.237 -16.468  0.00  0.00    -0.083 HD
BRANCH  19  22
ATOM     22  C   UNL     1      33.501 -23.439 -17.830  0.00  0.00    -0.053 C 
BRANCH  22  23
ATOM     23  C   UNL     1      33.815 -22.313 -18.779  0.00  0.00    -0.044 C 
ATOM     24  C   UNL     1      35.129 -22.098 -19.195  0.00  0.00    -0.006 C 
ATOM     25  C   UNL     1      32.792 -21.485 -19.243  0.00  0.00    -0.006 C 
ATOM     26  C   UNL     1      34.398 -20.228 -20.538  0.00  0.00    -0.000 C 
ATOM     27  C   UNL     1      35.421 -21.056 -20.074  0.00  0.00    -0.000 C 
ATOM     28  C   UNL     1      33.084 -20.443 -20.123  0.00  0.00    -0.000 C 
BRANCH  26  29
ATOM     29  C   UNL     1      34.700 -19.147 -21.450  0.00  0.00    -0.000 C 
ATOM     30  C   UNL     1      34.774 -17.836 -20.979  0.00  0.00    -0.000 C 
ATOM     31  C   UNL     1      34.921 -19.416 -22.801  0.00  0.00    -0.000 C 
ATOM     32  C   UNL     1      35.067 -16.794 -21.859  0.00  0.00    +0.000 C 
ATOM     33  C   UNL     1      35.215 -18.374 -23.681  0.00  0.00    +0.000 C 
ATOM     34  C   UNL     1      35.288 -17.063 -23.209  0.00  0.00    +0.000 C 
ENDBRANCH  26  29
ENDBRANCH  22  23
ENDBRANCH  19  22
ENDBRANCH   1  19
BRANCH   1  35
ATOM     35  C   UNL     1      31.466 -23.345 -16.415  0.00  0.00    +0.041 C 
BRANCH  35  36
ATOM     36  S   UNL     1      29.948 -22.840 -15.545  0.00  0.00    -0.170 S 
ATOM     37  H   UNL     1      28.869 -23.087 -16.335  0.00  0.00    +0.102 HD
ENDBRANCH  35  36
ENDBRANCH   1  35
TORSDOF 13
ENDMDL
MODEL 4
REMARK VINA RESULT:      -9.8      1.313      2.164
REMARK  Name = 4369141
REMARK  13 active torsions:
REMARK  status: ('A' for Active; 'I' for Inactive)
REMARK    1  A    between atoms: C_1  and  C_4
REMARK    2  A    between atoms: C_1  and  N_19
REMARK    3  A    between atoms: C_1  and  C_35
REMARK    4  A    between atoms: N_3  and  C_6
REMARK    5  A    between atoms: C_6  and  C_9
REMARK    6  A    between atoms: N_8  and  C_11
REMARK    7  A    between atoms: C_11  and  C_12
REMARK    8  A    between atoms: C_11  and  C_16
REMARK    9  A    between atoms: C_16  and  O_17
REMARK   10  A    between atoms: N_19  and  C_22
REMARK   11  A    between atoms: C_22  and  C_23
REMARK   12  A    between atoms: C_26  and  C_29
REMARK   13  A    between atoms: C_35  and  S_36
REMARK                            x       y       z     vdW  Elec       q    Type
REMARK                         _______ _______ _______ _____ _____    ______ ____
ROOT
ATOM      1  C   UNL     1      33.218 -13.445 -23.964  0.00  0.00    +0.028 C 
ENDROOT
BRANCH   1   4
ATOM      2  O   UNL     1      33.809 -12.315 -26.026  0.00  0.00    -0.277 OA
ATOM      3  N   UNL     1      34.301 -11.266 -24.014  0.00  0.00    -0.298 N 
ATOM      4  C   UNL     1      33.807 -12.308 -24.796  0.00  0.00    +0.204 C 
ATOM      5  H   UNL     1      34.257 -11.349 -23.034  0.00  0.00    +0.150 HD
BRANCH   3   6
ATOM      6  C   UNL     1      34.872 -10.079 -24.579  0.00  0.00    +0.176 C 
BRANCH   6   9
ATOM      7  O   UNL     1      35.071  -8.016 -23.340  0.00  0.00    -0.273 OA
ATOM      8  N   UNL     1      32.956  -8.867 -23.787  0.00  0.00    -0.295 N 
ATOM      9  C   UNL     1      34.343  -8.864 -23.848  0.00  0.00    +0.243 C 
ATOM     10  H   UNL     1      32.470  -9.600 -24.233  0.00  0.00    +0.150 HD
BRANCH   8  11
ATOM     11  C   UNL     1      32.188  -7.854 -23.107  0.00  0.00    +0.171 C 
BRANCH  11  12
ATOM     12  C   UNL     1      32.627  -7.652 -21.640  0.00  0.00    +0.029 C 
ATOM     13  C   UNL     1      31.987  -6.400 -21.036  0.00  0.00    +0.002 C 
ATOM     14  C   UNL     1      32.341  -8.867 -20.751  0.00  0.00    +0.002 C 
ENDBRANCH  11  12
BRANCH  11  16
ATOM     15  O   UNL     1      33.231  -5.915 -24.109  0.00  0.00    -0.248 OA
ATOM     16  C   UNL     1      32.200  -6.537 -23.875  0.00  0.00    +0.335 C 
BRANCH  16  17
ATOM     17  O   UNL     1      30.949  -6.151 -24.255  0.00  0.00    -0.443 OA
ATOM     18  C   UNL     1      30.839  -4.822 -24.776  0.00  0.00    +0.256 C 
ENDBRANCH  16  17
ENDBRANCH  11  16
ENDBRANCH   8  11
ENDBRANCH   6   9
ENDBRANCH   3   6
ENDBRANCH   1   4
BRANCH   1  19
ATOM     19  N   UNL     1      34.369 -14.131 -23.370  0.00  0.00    +0.394 N 
ATOM     20  H   UNL     1      34.155 -14.368 -22.402  0.00  0.00    -0.083 HD
ATOM     21  H   UNL     1      35.178 -13.511 -23.412  0.00  0.00    -0.083 HD
BRANCH  19  22
ATOM     22  C   UNL     1      34.674 -15.348 -24.104  0.00  0.00    -0.053 C 
BRANCH  22  23
ATOM     23  C   UNL     1      34.696 -16.555 -23.204  0.00  0.00    -0.044 C 
ATOM     24  C   UNL     1      34.629 -17.836 -23.754  0.00  0.00    -0.006 C 
ATOM     25  C   UNL     1      34.782 -16.393 -21.821  0.00  0.00    -0.006 C 
ATOM     26  C   UNL     1      34.736 -18.791 -21.537  0.00  0.00    -0.000 C 
ATOM     27  C   UNL     1      34.649 -18.954 -22.921  0.00  0.00    -0.000 C 
ATOM     28  C   UNL     1      34.802 -17.512 -20.988  0.00  0.00    -0.000 C 
BRANCH  26  29
ATOM     29  C   UNL     1      34.757 -19.952 -20.674  0.00  0.00    -0.000 C 
ATOM     30  C   UNL     1      33.560 -20.531 -20.255  0.00  0.00    -0.000 C 
ATOM     31  C   UNL     1      35.975 -20.492 -20.262  0.00  0.00    -0.000 C 
ATOM     32  C   UNL     1      33.580 -21.651 -19.423  0.00  0.00    +0.000 C 
ATOM     33  C   UNL     1      35.996 -21.613 -19.430  0.00  0.00    +0.000 C 
ATOM     34  C   UNL     1      34.798 -22.191 -19.011  0.00  0.00    +0.000 C 
ENDBRANCH  26  29
ENDBRANCH  22  23
ENDBRANCH  19  22
ENDBRANCH   1  19
BRANCH   1  35
ATOM     35  C   UNL     1      32.304 -12.944 -22.843  0.00  0.00    +0.041 C 
BRANCH  35  36
ATOM     36  S   UNL     1      32.681 -13.765 -21.263  0.00  0.00    -0.170 S 
ATOM     37  H   UNL     1      32.020 -13.135 -20.254  0.00  0.00    +0.102 HD
ENDBRANCH  35  36
ENDBRANCH   1  35
TORSDOF 13
ENDMDL
MODEL 5
REMARK VINA RESULT:      -9.8      1.955      2.859
REMARK  Name = 4369141
REMARK  13 active torsions:
REMARK  status: ('A' for Active; 'I' for Inactive)
REMARK    1  A    between atoms: C_1  and  C_4
REMARK    2  A    between atoms: C_1  and  N_19
REMARK    3  A    between atoms: C_1  and  C_35
REMARK    4  A    between atoms: N_3  and  C_6
REMARK    5  A    between atoms: C_6  and  C_9
REMARK    6  A    between atoms: N_8  and  C_11
REMARK    7  A    between atoms: C_11  and  C_12
REMARK    8  A    between atoms: C_11  and  C_16
REMARK    9  A    between atoms: C_16  and  O_17
REMARK   10  A    between atoms: N_19  and  C_22
REMARK   11  A    between atoms: C_22  and  C_23
REMARK   12  A    between atoms: C_26  and  C_29
REMARK   13  A    between atoms: C_35  and  S_36
REMARK                            x       y       z     vdW  Elec       q    Type
REMARK                         _______ _______ _______ _____ _____    ______ ____
ROOT
ATOM      1  C   UNL     1      33.881 -13.680 -24.027  0.00  0.00    +0.028 C 
ENDROOT
BRANCH   1   4
ATOM      2  O   UNL     1      32.267 -14.049 -22.256  0.00  0.00    -0.277 OA
ATOM      3  N   UNL     1      32.673 -11.868 -22.940  0.00  0.00    -0.298 N 
ATOM      4  C   UNL     1      32.849 -13.250 -22.987  0.00  0.00    +0.204 C 
ATOM      5  H   UNL     1      33.184 -11.305 -23.566  0.00  0.00    +0.150 HD
BRANCH   3   6
ATOM      6  C   UNL     1      31.778 -11.234 -22.019  0.00  0.00    +0.176 C 
BRANCH   6   9
ATOM      7  O   UNL     1      30.469  -9.463 -23.011  0.00  0.00    -0.273 OA
ATOM      8  N   UNL     1      32.605  -8.988 -22.229  0.00  0.00    -0.295 N 
ATOM      9  C   UNL     1      31.513  -9.812 -22.466  0.00  0.00    +0.243 C 
ATOM     10  H   UNL     1      33.393  -9.375 -21.782  0.00  0.00    +0.150 HD
BRANCH   8  11
ATOM     11  C   UNL     1      32.645  -7.596 -22.601  0.00  0.00    +0.171 C 
BRANCH  11  12
ATOM     12  C   UNL     1      32.473  -6.647 -21.396  0.00  0.00    +0.029 C 
ATOM     13  C   UNL     1      31.179  -5.837 -21.506  0.00  0.00    +0.002 C 
ATOM     14  C   UNL     1      32.524  -7.369 -20.045  0.00  0.00    +0.002 C 
ENDBRANCH  11  12
BRANCH  11  16
ATOM     15  O   UNL     1      34.991  -7.791 -23.155  0.00  0.00    -0.248 OA
ATOM     16  C   UNL     1      33.908  -7.267 -23.390  0.00  0.00    +0.335 C 
BRANCH  16  17
ATOM     17  O   UNL     1      33.681  -6.339 -24.362  0.00  0.00    -0.443 OA
ATOM     18  C   UNL     1      32.347  -6.297 -24.882  0.00  0.00    +0.256 C 
ENDBRANCH  16  17
ENDBRANCH  11  16
ENDBRANCH   8  11
ENDBRANCH   6   9
ENDBRANCH   3   6
ENDBRANCH   1   4
BRANCH   1  19
ATOM     19  N   UNL     1      33.563 -15.076 -24.338  0.00  0.00    +0.394 N 
ATOM     20  H   UNL     1      33.083 -15.118 -25.237  0.00  0.00    -0.083 HD
ATOM     21  H   UNL     1      32.966 -15.450 -23.600  0.00  0.00    -0.083 HD
BRANCH  19  22
ATOM     22  C   UNL     1      34.776 -15.874 -24.407  0.00  0.00    -0.053 C 
BRANCH  22  23
ATOM     23  C   UNL     1      34.768 -16.995 -23.401  0.00  0.00    -0.044 C 
ATOM     24  C   UNL     1      34.578 -18.310 -23.825  0.00  0.00    -0.006 C 
ATOM     25  C   UNL     1      34.949 -16.717 -22.046  0.00  0.00    -0.006 C 
ATOM     26  C   UNL     1      34.751 -19.071 -21.539  0.00  0.00    -0.000 C 
ATOM     27  C   UNL     1      34.571 -19.348 -22.894  0.00  0.00    -0.000 C 
ATOM     28  C   UNL     1      34.941 -17.756 -21.115  0.00  0.00    -0.000 C 
BRANCH  26  29
ATOM     29  C   UNL     1      34.743 -20.148 -20.573  0.00  0.00    -0.000 C 
ATOM     30  C   UNL     1      33.535 -20.720 -20.176  0.00  0.00    -0.000 C 
ATOM     31  C   UNL     1      35.945 -20.618 -20.042  0.00  0.00    -0.000 C 
ATOM     32  C   UNL     1      33.527 -21.760 -19.246  0.00  0.00    +0.000 C 
ATOM     33  C   UNL     1      35.938 -21.658 -19.112  0.00  0.00    +0.000 C 
ATOM     34  C   UNL     1      34.729 -22.228 -18.714  0.00  0.00    +0.000 C 
ENDBRANCH  26  29
ENDBRANCH  22  23
ENDBRANCH  19  22
ENDBRANCH   1  19
BRANCH   1  35
ATOM     35  C   UNL     1      33.804 -12.852 -25.312  0.00  0.00    +0.041 C 
BRANCH  35  36
ATOM     36  S   UNL     1      33.057 -13.806 -26.671  0.00  0.00    -0.170 S 
ATOM     37  H   UNL     1      31.711 -13.607 -26.679  0.00  0.00    +0.102 HD
ENDBRANCH  35  36
ENDBRANCH   1  35
TORSDOF 13
ENDMDL
MODEL 6
REMARK VINA RESULT:      -9.7      3.822     10.635
REMARK  Name = 4369141
REMARK  13 active torsions:
REMARK  status: ('A' for Active; 'I' for Inactive)
REMARK    1  A    between atoms: C_1  and  C_4
REMARK    2  A    between atoms: C_1  and  N_19
REMARK    3  A    between atoms: C_1  and  C_35
REMARK    4  A    between atoms: N_3  and  C_6
REMARK    5  A    between atoms: C_6  and  C_9
REMARK    6  A    between atoms: N_8  and  C_11
REMARK    7  A    between atoms: C_11  and  C_12
REMARK    8  A    between atoms: C_11  and  C_16
REMARK    9  A    between atoms: C_16  and  O_17
REMARK   10  A    between atoms: N_19  and  C_22
REMARK   11  A    between atoms: C_22  and  C_23
REMARK   12  A    between atoms: C_26  and  C_29
REMARK   13  A    between atoms: C_35  and  S_36
REMARK                            x       y       z     vdW  Elec       q    Type
REMARK                         _______ _______ _______ _____ _____    ______ ____
ROOT
ATOM      1  C   UNL     1      33.298 -15.277 -25.031  0.00  0.00    +0.028 C 
ENDROOT
BRANCH   1   4
ATOM      2  O   UNL     1      34.956 -16.917 -25.693  0.00  0.00    -0.277 OA
ATOM      3  N   UNL     1      34.661 -16.501 -23.429  0.00  0.00    -0.298 N 
ATOM      4  C   UNL     1      34.381 -16.324 -24.783  0.00  0.00    +0.204 C 
ATOM      5  H   UNL     1      34.149 -15.981 -22.768  0.00  0.00    +0.150 HD
BRANCH   3   6
ATOM      6  C   UNL     1      35.664 -17.409 -22.959  0.00  0.00    +0.176 C 
BRANCH   6   9
ATOM      7  O   UNL     1      35.118 -17.147 -20.621  0.00  0.00    -0.273 OA
ATOM      8  N   UNL     1      35.243 -19.287 -21.521  0.00  0.00    -0.295 N 
ATOM      9  C   UNL     1      35.297 -17.900 -21.575  0.00  0.00    +0.243 C 
ATOM     10  H   UNL     1      35.403 -19.793 -22.351  0.00  0.00    +0.150 HD
BRANCH   8  11
ATOM     11  C   UNL     1      34.964 -20.024 -20.314  0.00  0.00    +0.171 C 
BRANCH  11  12
ATOM     12  C   UNL     1      33.612 -20.766 -20.363  0.00  0.00    +0.029 C 
ATOM     13  C   UNL     1      33.403 -21.623 -19.112  0.00  0.00    +0.002 C 
ATOM     14  C   UNL     1      32.414 -19.830 -20.561  0.00  0.00    +0.002 C 
ENDBRANCH  11  12
BRANCH  11  16
ATOM     15  O   UNL     1      36.425 -21.916 -20.682  0.00  0.00    -0.248 OA
ATOM     16  C   UNL     1      36.106 -20.973 -19.965  0.00  0.00    +0.335 C 
BRANCH  16  17
ATOM     17  O   UNL     1      36.705 -20.647 -18.786  0.00  0.00    -0.443 OA
ATOM     18  C   UNL     1      36.784 -21.698 -17.816  0.00  0.00    +0.256 C 
ENDBRANCH  16  17
ENDBRANCH  11  16
ENDBRANCH   8  11
ENDBRANCH   6   9
ENDBRANCH   3   6
ENDBRANCH   1   4
BRANCH   1  19
ATOM     19  N   UNL     1      33.778 -14.056 -24.380  0.00  0.00    +0.394 N 
ATOM     20  H   UNL     1      33.658 -13.267 -25.015  0.00  0.00    -0.083 HD
ATOM     21  H   UNL     1      34.765 -14.174 -24.146  0.00  0.00    -0.083 HD
BRANCH  19  22
ATOM     22  C   UNL     1      33.036 -13.801 -23.156  0.00  0.00    -0.053 C 
BRANCH  22  23
ATOM     23  C   UNL     1      32.716 -12.340 -22.987  0.00  0.00    -0.044 C 
ATOM     24  C   UNL     1      33.414 -11.384 -23.725  0.00  0.00    -0.006 C 
ATOM     25  C   UNL     1      31.721 -11.942 -22.093  0.00  0.00    -0.006 C 
ATOM     26  C   UNL     1      32.124  -9.632 -22.675  0.00  0.00    -0.000 C 
ATOM     27  C   UNL     1      33.118 -10.030 -23.569  0.00  0.00    -0.000 C 
ATOM     28  C   UNL     1      31.425 -10.588 -21.937  0.00  0.00    -0.000 C 
BRANCH  26  29
ATOM     29  C   UNL     1      31.817  -8.227 -22.513  0.00  0.00    -0.000 C 
ATOM     30  C   UNL     1      32.088  -7.589 -21.304  0.00  0.00    -0.000 C 
ATOM     31  C   UNL     1      31.251  -7.512 -23.568  0.00  0.00    -0.000 C 
ATOM     32  C   UNL     1      31.793  -6.234 -21.149  0.00  0.00    +0.000 C 
ATOM     33  C   UNL     1      30.956  -6.157 -23.414  0.00  0.00    +0.000 C 
ATOM     34  C   UNL     1      31.228  -5.519 -22.204  0.00  0.00    +0.000 C 
ENDBRANCH  26  29
ENDBRANCH  22  23
ENDBRANCH  19  22
ENDBRANCH   1  19
BRANCH   1  35
ATOM     35  C   UNL     1      33.079 -14.995 -26.519  0.00  0.00    +0.041 C 
BRANCH  35  36
ATOM     36  S   UNL     1      33.312 -13.230 -26.901  0.00  0.00    -0.170 S 
ATOM     37  H   UNL     1      32.406 -12.846 -27.840  0.00  0.00    +0.102 HD
ENDBRANCH  35  36
ENDBRANCH   1  35
TORSDOF 13
ENDMDL
MODEL 7
REMARK VINA RESULT:      -9.6      7.587     13.214
REMARK  Name = 4369141
REMARK  13 active torsions:
REMARK  status: ('A' for Active; 'I' for Inactive)
REMARK    1  A    between atoms: C_1  and  C_4
REMARK    2  A    between atoms: C_1  and  N_19
REMARK    3  A    between atoms: C_1  and  C_35
REMARK    4  A    between atoms: N_3  and  C_6
REMARK    5  A    between atoms: C_6  and  C_9
REMARK    6  A    between atoms: N_8  and  C_11
REMARK    7  A    between atoms: C_11  and  C_12
REMARK    8  A    between atoms: C_11  and  C_16
REMARK    9  A    between atoms: C_16  and  O_17
REMARK   10  A    between atoms: N_19  and  C_22
REMARK   11  A    between atoms: C_22  and  C_23
REMARK   12  A    between atoms: C_26  and  C_29
REMARK   13  A    between atoms: C_35  and  S_36
REMARK                            x       y       z     vdW  Elec       q    Type
REMARK                         _______ _______ _______ _____ _____    ______ ____
ROOT
ATOM      1  C   UNL     1      34.845 -21.239 -19.359  0.00  0.00    +0.028 C 
ENDROOT
BRANCH   1   4
ATOM      2  O   UNL     1      37.219 -21.727 -19.400  0.00  0.00    -0.277 OA
ATOM      3  N   UNL     1      36.085 -21.934 -17.385  0.00  0.00    -0.298 N 
ATOM      4  C   UNL     1      36.178 -21.663 -18.749  0.00  0.00    +0.204 C 
ATOM      5  H   UNL     1      35.207 -21.857 -16.946  0.00  0.00    +0.150 HD
BRANCH   3   6
ATOM      6  C   UNL     1      37.217 -22.320 -16.595  0.00  0.00    +0.176 C 
BRANCH   6   9
ATOM      7  O   UNL     1      35.831 -24.117 -15.768  0.00  0.00    -0.273 OA
ATOM      8  N   UNL     1      37.624 -23.387 -14.482  0.00  0.00    -0.295 N 
ATOM      9  C   UNL     1      36.803 -23.385 -15.603  0.00  0.00    +0.243 C 
ATOM     10  H   UNL     1      38.379 -22.755 -14.455  0.00  0.00    +0.150 HD
BRANCH   8  11
ATOM     11  C   UNL     1      37.428 -24.266 -13.356  0.00  0.00    +0.171 C 
BRANCH  11  12
ATOM     12  C   UNL     1      38.283 -25.549 -13.440  0.00  0.00    +0.029 C 
ATOM     13  C   UNL     1      37.505 -26.692 -14.098  0.00  0.00    +0.002 C 
ATOM     14  C   UNL     1      39.618 -25.340 -14.163  0.00  0.00    +0.002 C 
ENDBRANCH  11  12
BRANCH  11  16
ATOM     15  O   UNL     1      38.258 -22.474 -11.960  0.00  0.00    -0.248 OA
ATOM     16  C   UNL     1      37.651 -23.537 -12.035  0.00  0.00    +0.335 C 
BRANCH  16  17
ATOM     17  O   UNL     1      37.103 -24.204 -10.980  0.00  0.00    -0.443 OA
ATOM     18  C   UNL     1      35.687 -24.408 -11.040  0.00  0.00    +0.256 C 
ENDBRANCH  16  17
ENDBRANCH  11  16
ENDBRANCH   8  11
ENDBRANCH   6   9
ENDBRANCH   3   6
ENDBRANCH   1   4
BRANCH   1  19
ATOM     19  N   UNL     1      35.170 -20.729 -20.694  0.00  0.00    +0.394 N 
ATOM     20  H   UNL     1      34.306 -20.537 -21.199  0.00  0.00    -0.083 HD
ATOM     21  H   UNL     1      35.721 -21.432 -21.189  0.00  0.00    -0.083 HD
BRANCH  19  22
ATOM     22  C   UNL     1      35.951 -19.507 -20.599  0.00  0.00    -0.053 C 
BRANCH  22  23
ATOM     23  C   UNL     1      35.448 -18.446 -21.542  0.00  0.00    -0.044 C 
ATOM     24  C   UNL     1      35.470 -18.669 -22.919  0.00  0.00    -0.006 C 
ATOM     25  C   UNL     1      34.961 -17.239 -21.039  0.00  0.00    -0.006 C 
ATOM     26  C   UNL     1      34.518 -16.480 -23.289  0.00  0.00    -0.000 C 
ATOM     27  C   UNL     1      35.004 -17.687 -23.792  0.00  0.00    -0.000 C 
ATOM     28  C   UNL     1      34.496 -16.256 -21.913  0.00  0.00    -0.000 C 
BRANCH  26  29
ATOM     29  C   UNL     1      34.035 -15.461 -24.196  0.00  0.00    -0.000 C 
ATOM     30  C   UNL     1      33.948 -14.135 -23.773  0.00  0.00    -0.000 C 
ATOM     31  C   UNL     1      33.657 -15.805 -25.494  0.00  0.00    -0.000 C 
ATOM     32  C   UNL     1      33.484 -13.153 -24.648  0.00  0.00    +0.000 C 
ATOM     33  C   UNL     1      33.193 -14.823 -26.369  0.00  0.00    +0.000 C 
ATOM     34  C   UNL     1      33.106 -13.497 -25.945  0.00  0.00    +0.000 C 
ENDBRANCH  26  29
ENDBRANCH  22  23
ENDBRANCH  19  22
ENDBRANCH   1  19
BRANCH   1  35
ATOM     35  C   UNL     1      33.860 -22.403 -19.497  0.00  0.00    +0.041 C 
BRANCH  35  36
ATOM     36  S   UNL     1      33.090 -22.811 -17.898  0.00  0.00    -0.170 S 
ATOM     37  H   UNL     1      34.047 -23.230 -17.027  0.00  0.00    +0.102 HD
ENDBRANCH  35  36
ENDBRANCH   1  35
TORSDOF 13
ENDMDL
MODEL 8
REMARK VINA RESULT:      -9.4      2.951     11.452
REMARK  Name = 4369141
REMARK  13 active torsions:
REMARK  status: ('A' for Active; 'I' for Inactive)
REMARK    1  A    between atoms: C_1  and  C_4
REMARK    2  A    between atoms: C_1  and  N_19
REMARK    3  A    between atoms: C_1  and  C_35
REMARK    4  A    between atoms: N_3  and  C_6
REMARK    5  A    between atoms: C_6  and  C_9
REMARK    6  A    between atoms: N_8  and  C_11
REMARK    7  A    between atoms: C_11  and  C_12
REMARK    8  A    between atoms: C_11  and  C_16
REMARK    9  A    between atoms: C_16  and  O_17
REMARK   10  A    between atoms: N_19  and  C_22
REMARK   11  A    between atoms: C_22  and  C_23
REMARK   12  A    between atoms: C_26  and  C_29
REMARK   13  A    between atoms: C_35  and  S_36
REMARK                            x       y       z     vdW  Elec       q    Type
REMARK                         _______ _______ _______ _____ _____    ______ ____
ROOT
ATOM      1  C   UNL     1      32.314 -12.743 -23.019  0.00  0.00    +0.028 C 
ENDROOT
BRANCH   1   4
ATOM      2  O   UNL     1      32.237 -12.877 -20.600  0.00  0.00    -0.277 OA
ATOM      3  N   UNL     1      32.668 -14.818 -21.799  0.00  0.00    -0.298 N 
ATOM      4  C   UNL     1      32.407 -13.454 -21.672  0.00  0.00    +0.204 C 
ATOM      5  H   UNL     1      32.791 -15.194 -22.700  0.00  0.00    +0.150 HD
BRANCH   3   6
ATOM      6  C   UNL     1      32.767 -15.694 -20.669  0.00  0.00    +0.176 C 
BRANCH   6   9
ATOM      7  O   UNL     1      35.101 -16.191 -20.300  0.00  0.00    -0.273 OA
ATOM      8  N   UNL     1      33.810 -17.677 -21.534  0.00  0.00    -0.295 N 
ATOM      9  C   UNL     1      34.024 -16.529 -20.783  0.00  0.00    +0.243 C 
ATOM     10  H   UNL     1      32.901 -17.850 -21.873  0.00  0.00    +0.150 HD
BRANCH   8  11
ATOM     11  C   UNL     1      34.847 -18.628 -21.844  0.00  0.00    +0.171 C 
BRANCH  11  12
ATOM     12  C   UNL     1      34.589 -20.020 -21.227  0.00  0.00    +0.029 C 
ATOM     13  C   UNL     1      35.721 -20.426 -20.278  0.00  0.00    +0.002 C 
ATOM     14  C   UNL     1      33.241 -20.121 -20.505  0.00  0.00    +0.002 C 
ENDBRANCH  11  12
BRANCH  11  16
ATOM     15  O   UNL     1      35.051 -19.788 -23.956  0.00  0.00    -0.248 OA
ATOM     16  C   UNL     1      35.085 -18.724 -23.347  0.00  0.00    +0.335 C 
BRANCH  16  17
ATOM     17  O   UNL     1      35.335 -17.507 -23.908  0.00  0.00    -0.443 OA
ATOM     18  C   UNL     1      34.652 -17.236 -25.137  0.00  0.00    +0.256 C 
ENDBRANCH  16  17
ENDBRANCH  11  16
ENDBRANCH   8  11
ENDBRANCH   6   9
ENDBRANCH   3   6
ENDBRANCH   1   4
BRANCH   1  19
ATOM     19  N   UNL     1      32.278 -11.312 -22.704  0.00  0.00    +0.394 N 
ATOM     20  H   UNL     1      32.435 -11.185 -21.705  0.00  0.00    -0.083 HD
ATOM     21  H   UNL     1      31.366 -10.940 -22.970  0.00  0.00    -0.083 HD
BRANCH  19  22
ATOM     22  C   UNL     1      33.307 -10.599 -23.443  0.00  0.00    -0.053 C 
BRANCH  22  23
ATOM     23  C   UNL     1      32.954  -9.148 -23.637  0.00  0.00    -0.044 C 
ATOM     24  C   UNL     1      33.965  -8.203 -23.820  0.00  0.00    -0.006 C 
ATOM     25  C   UNL     1      31.618  -8.748 -23.632  0.00  0.00    -0.006 C 
ATOM     26  C   UNL     1      32.303  -6.459 -23.995  0.00  0.00    -0.000 C 
ATOM     27  C   UNL     1      33.639  -6.860 -23.999  0.00  0.00    -0.000 C 
ATOM     28  C   UNL     1      31.292  -7.403 -23.812  0.00  0.00    -0.000 C 
BRANCH  26  29
ATOM     29  C   UNL     1      31.965  -5.065 -24.181  0.00  0.00    -0.000 C 
ATOM     30  C   UNL     1      32.133  -4.467 -25.429  0.00  0.00    -0.000 C 
ATOM     31  C   UNL     1      31.470  -4.319 -23.112  0.00  0.00    -0.000 C 
ATOM     32  C   UNL     1      31.806  -3.123 -25.609  0.00  0.00    +0.000 C 
ATOM     33  C   UNL     1      31.142  -2.974 -23.291  0.00  0.00    +0.000 C 
ATOM     34  C   UNL     1      31.311  -2.377 -24.540  0.00  0.00    +0.000 C 
ENDBRANCH  26  29
ENDBRANCH  22  23
ENDBRANCH  19  22
ENDBRANCH   1  19
BRANCH   1  35
ATOM     35  C   UNL     1      33.520 -13.024 -23.920  0.00  0.00    +0.041 C 
BRANCH  35  36
ATOM     36  S   UNL     1      33.019 -13.871 -25.452  0.00  0.00    -0.170 S 
ATOM     37  H   UNL     1      33.969 -13.680 -26.407  0.00  0.00    +0.102 HD
ENDBRANCH  35  36
ENDBRANCH   1  35
TORSDOF 13
ENDMDL
MODEL 9
REMARK VINA RESULT:      -9.4      8.009     13.623
REMARK  Name = 4369141
REMARK  13 active torsions:
REMARK  status: ('A' for Active; 'I' for Inactive)
REMARK    1  A    between atoms: C_1  and  C_4
REMARK    2  A    between atoms: C_1  and  N_19
REMARK    3  A    between atoms: C_1  and  C_35
REMARK    4  A    between atoms: N_3  and  C_6
REMARK    5  A    between atoms: C_6  and  C_9
REMARK    6  A    between atoms: N_8  and  C_11
REMARK    7  A    between atoms: C_11  and  C_12
REMARK    8  A    between atoms: C_11  and  C_16
REMARK    9  A    between atoms: C_16  and  O_17
REMARK   10  A    between atoms: N_19  and  C_22
REMARK   11  A    between atoms: C_22  and  C_23
REMARK   12  A    between atoms: C_26  and  C_29
REMARK   13  A    between atoms: C_35  and  S_36
REMARK                            x       y       z     vdW  Elec       q    Type
REMARK                         _______ _______ _______ _____ _____    ______ ____
ROOT
ATOM      1  C   UNL     1      35.254 -22.698 -18.150  0.00  0.00    +0.028 C 
ENDROOT
BRANCH   1   4
ATOM      2  O   UNL     1      32.874 -22.826 -17.707  0.00  0.00    -0.277 OA
ATOM      3  N   UNL     1      34.345 -23.280 -15.969  0.00  0.00    -0.298 N 
ATOM      4  C   UNL     1      34.022 -22.924 -17.277  0.00  0.00    +0.204 C 
ATOM      5  H   UNL     1      35.294 -23.333 -15.715  0.00  0.00    +0.150 HD
BRANCH   3   6
ATOM      6  C   UNL     1      33.350 -23.570 -14.979  0.00  0.00    +0.176 C 
BRANCH   6   9
ATOM      7  O   UNL     1      33.385 -24.548 -12.771  0.00  0.00    -0.273 OA
ATOM      8  N   UNL     1      35.367 -24.403 -13.975  0.00  0.00    -0.295 N 
ATOM      9  C   UNL     1      34.001 -24.239 -13.788  0.00  0.00    +0.243 C 
ATOM     10  H   UNL     1      35.758 -24.119 -14.834  0.00  0.00    +0.150 HD
BRANCH   8  11
ATOM     11  C   UNL     1      36.243 -24.968 -12.979  0.00  0.00    +0.171 C 
BRANCH  11  12
ATOM     12  C   UNL     1      37.190 -26.044 -13.553  0.00  0.00    +0.029 C 
ATOM     13  C   UNL     1      36.893 -26.315 -15.031  0.00  0.00    +0.002 C 
ATOM     14  C   UNL     1      38.673 -25.703 -13.373  0.00  0.00    +0.002 C 
ENDBRANCH  11  12
BRANCH  11  16
ATOM     15  O   UNL     1      37.550 -22.939 -12.817  0.00  0.00    -0.248 OA
ATOM     16  C   UNL     1      37.020 -23.883 -12.241  0.00  0.00    +0.335 C 
BRANCH  16  17
ATOM     17  O   UNL     1      37.048 -24.095 -10.895  0.00  0.00    -0.443 OA
ATOM     18  C   UNL     1      35.775 -24.303 -10.271  0.00  0.00    +0.256 C 
ENDBRANCH  16  17
ENDBRANCH  11  16
ENDBRANCH   8  11
ENDBRANCH   6   9
ENDBRANCH   3   6
ENDBRANCH   1   4
BRANCH   1  19
ATOM     19  N   UNL     1      34.739 -22.240 -19.443  0.00  0.00    +0.394 N 
ATOM     20  H   UNL     1      33.944 -21.622 -19.287  0.00  0.00    -0.083 HD
ATOM     21  H   UNL     1      34.453 -23.053 -19.990  0.00  0.00    -0.083 HD
BRANCH  19  22
ATOM     22  C   UNL     1      35.766 -21.522 -20.178  0.00  0.00    -0.053 C 
BRANCH  22  23
ATOM     23  C   UNL     1      35.304 -20.150 -20.593  0.00  0.00    -0.044 C 
ATOM     24  C   UNL     1      33.940 -19.862 -20.649  0.00  0.00    -0.006 C 
ATOM     25  C   UNL     1      36.239 -19.168 -20.923  0.00  0.00    -0.006 C 
ATOM     26  C   UNL     1      34.446 -17.610 -21.363  0.00  0.00    -0.000 C 
ATOM     27  C   UNL     1      33.511 -18.591 -21.033  0.00  0.00    -0.000 C 
ATOM     28  C   UNL     1      35.810 -17.898 -21.307  0.00  0.00    -0.000 C 
BRANCH  26  29
ATOM     29  C   UNL     1      34.001 -16.292 -21.761  0.00  0.00    -0.000 C 
ATOM     30  C   UNL     1      34.644 -15.624 -22.802  0.00  0.00    -0.000 C 
ATOM     31  C   UNL     1      32.927 -15.691 -21.105  0.00  0.00    -0.000 C 
ATOM     32  C   UNL     1      34.214 -14.353 -23.187  0.00  0.00    +0.000 C 
ATOM     33  C   UNL     1      32.495 -14.421 -21.490  0.00  0.00    +0.000 C 
ATOM     34  C   UNL     1      33.140 -13.753 -22.531  0.00  0.00    +0.000 C 
ENDBRANCH  26  29
ENDBRANCH  22  23
ENDBRANCH  19  22
ENDBRANCH   1  19
BRANCH   1  35
ATOM     35  C   UNL     1      36.193 -21.632 -17.582  0.00  0.00    +0.041 C 
BRANCH  35  36
ATOM     36  S   UNL     1      37.383 -22.354 -16.407  0.00  0.00    -0.170 S 
ATOM     37  H   UNL     1      37.319 -23.711 -16.474  0.00  0.00    +0.102 HD
ENDBRANCH  35  36
ENDBRANCH   1  35
TORSDOF 13
ENDMDL
