MODEL 1
REMARK VINA RESULT:     -10.4      0.000      0.000
REMARK  Name = 17753799
REMARK  5 active torsions:
REMARK  status: ('A' for Active; 'I' for Inactive)
REMARK    1  A    between atoms: C_2  and  C_12
REMARK    2  A    between atoms: C_8  and  C_26
REMARK    3  A    between atoms: C_14  and  C_20
REMARK    4  A    between atoms: C_15  and  O_18
REMARK    5  A    between atoms: C_20  and  C_23
REMARK                            x       y       z     vdW  Elec       q    Type
REMARK                         _______ _______ _______ _____ _____    ______ ____
ROOT
ATOM      1  N   UNL     1      35.139 -23.198 -16.650  0.00  0.00    -0.312 N 
ATOM      2  C   UNL     1      36.393 -23.074 -16.116  0.00  0.00    +0.051 C 
ATOM      3  C   UNL     1      36.249 -21.770 -17.955  0.00  0.00    +0.015 C 
ATOM      4  C   UNL     1      35.022 -22.413 -17.775  0.00  0.00    +0.048 C 
ATOM      5  C   UNL     1      37.104 -22.197 -16.901  0.00  0.00    +0.016 C 
ATOM      6  C   UNL     1      36.401 -20.896 -19.050  0.00  0.00    +0.004 C 
ATOM      7  C   UNL     1      33.936 -22.225 -18.637  0.00  0.00    +0.015 C 
ATOM      8  C   UNL     1      35.324 -20.698 -19.921  0.00  0.00    +0.031 C 
ATOM      9  C   UNL     1      34.111 -21.353 -19.715  0.00  0.00    +0.004 C 
ATOM     10  H   UNL     1      34.424 -23.767 -16.282  0.00  0.00    +0.152 HD
ENDROOT
BRANCH   2  12
ATOM     11 BR   UNL     1      35.408 -24.389 -11.029  0.00  0.00    -0.046 Br
ATOM     12  C   UNL     1      36.792 -23.788 -14.926  0.00  0.00    +0.047 C 
ATOM     13  C   UNL     1      37.968 -24.538 -14.950  0.00  0.00    +0.001 C 
ATOM     14  C   UNL     1      38.373 -25.235 -13.812  0.00  0.00    -0.010 C 
ATOM     15  C   UNL     1      36.021 -23.737 -13.765  0.00  0.00    +0.141 C 
ATOM     16  C   UNL     1      37.602 -25.183 -12.650  0.00  0.00    +0.006 C 
ATOM     17  C   UNL     1      36.427 -24.434 -12.627  0.00  0.00    +0.068 C 
BRANCH  15  18
ATOM     18  O   UNL     1      34.869 -23.002 -13.746  0.00  0.00    -0.505 OA
ATOM     19  H   UNL     1      34.062 -23.403 -13.490  0.00  0.00    +0.292 HD
ENDBRANCH  15  18
BRANCH  14  20
ATOM     20  C   UNL     1      39.632 -26.036 -13.837  0.00  0.00    +0.140 C 
BRANCH  20  23
ATOM     21  O   UNL     1      41.203 -24.417 -14.531  0.00  0.00    -0.245 OA
ATOM     22  O   UNL     1      40.635 -26.098 -15.973  0.00  0.00    -0.245 OA
ATOM     23  C   UNL     1      40.586 -25.461 -14.882  0.00  0.00    +0.369 C 
ENDBRANCH  20  23
ENDBRANCH  14  20
ENDBRANCH   2  12
BRANCH   8  26
ATOM     24  N   UNL     1      34.528 -19.755 -22.076  0.00  0.00    -0.343 N 
ATOM     25  N   UNL     1      36.525 -19.001 -21.125  0.00  0.00    -0.285 NA
ATOM     26  C   UNL     1      35.473 -19.797 -21.053  0.00  0.00    +0.117 C 
ATOM     27  H   UNL     1      34.650 -19.138 -22.834  0.00  0.00    +0.144 HD
ATOM     28  H   UNL     1      33.740 -20.343 -22.042  0.00  0.00    +0.144 HD
ATOM     29  H   UNL     1      36.629 -18.390 -21.890  0.00  0.00    +0.188 HD
ENDBRANCH   8  26
TORSDOF 5
ENDMDL
MODEL 2
REMARK VINA RESULT:      -9.9      2.284      3.118
REMARK  Name = 17753799
REMARK  5 active torsions:
REMARK  status: ('A' for Active; 'I' for Inactive)
REMARK    1  A    between atoms: C_2  and  C_12
REMARK    2  A    between atoms: C_8  and  C_26
REMARK    3  A    between atoms: C_14  and  C_20
REMARK    4  A    between atoms: C_15  and  O_18
REMARK    5  A    between atoms: C_20  and  C_23
REMARK                            x       y       z     vdW  Elec       q    Type
REMARK                         _______ _______ _______ _____ _____    ______ ____
ROOT
ATOM      1  N   UNL     1      33.336 -21.938 -18.432  0.00  0.00    -0.312 N 
ATOM      2  C   UNL     1      34.481 -22.369 -17.819  0.00  0.00    +0.051 C 
ATOM      3  C   UNL     1      35.040 -21.114 -19.613  0.00  0.00    +0.015 C 
ATOM      4  C   UNL     1      33.647 -21.169 -19.531  0.00  0.00    +0.048 C 
ATOM      5  C   UNL     1      35.553 -21.875 -18.526  0.00  0.00    +0.016 C 
ATOM      6  C   UNL     1      35.628 -20.380 -20.663  0.00  0.00    +0.004 C 
ATOM      7  C   UNL     1      32.810 -20.525 -20.450  0.00  0.00    +0.015 C 
ATOM      8  C   UNL     1      34.804 -19.732 -21.589  0.00  0.00    +0.031 C 
ATOM      9  C   UNL     1      33.416 -19.805 -21.482  0.00  0.00    +0.004 C 
ATOM     10  H   UNL     1      32.422 -22.147 -18.130  0.00  0.00    +0.152 HD
ENDROOT
BRANCH   2  12
ATOM     11 BR   UNL     1      31.631 -24.686 -13.935  0.00  0.00    -0.046 Br
ATOM     12  C   UNL     1      34.451 -23.194 -16.635  0.00  0.00    +0.047 C 
ATOM     13  C   UNL     1      35.648 -23.711 -16.141  0.00  0.00    +0.001 C 
ATOM     14  C   UNL     1      35.643 -24.511 -14.998  0.00  0.00    -0.010 C 
ATOM     15  C   UNL     1      33.249 -23.478 -15.987  0.00  0.00    +0.141 C 
ATOM     16  C   UNL     1      34.440 -24.794 -14.350  0.00  0.00    +0.006 C 
ATOM     17  C   UNL     1      33.244 -24.278 -14.844  0.00  0.00    +0.068 C 
BRANCH  15  18
ATOM     18  O   UNL     1      32.078 -22.970 -16.476  0.00  0.00    -0.505 OA
ATOM     19  H   UNL     1      31.295 -23.485 -16.445  0.00  0.00    +0.292 HD
ENDBRANCH  15  18
BRANCH  14  20
ATOM     20  C   UNL     1      36.924 -25.063 -14.468  0.00  0.00    +0.140 C 
BRANCH  20  23
ATOM     21  O   UNL     1      38.240 -27.009 -14.693  0.00  0.00    -0.245 OA
ATOM     22  O   UNL     1      36.297 -26.842 -15.888  0.00  0.00    -0.245 OA
ATOM     23  C   UNL     1      37.178 -26.442 -15.074  0.00  0.00    +0.369 C 
ENDBRANCH  20  23
ENDBRANCH  14  20
ENDBRANCH   2  12
BRANCH   8  26
ATOM     24  N   UNL     1      36.541 -18.192 -22.472  0.00  0.00    -0.343 N 
ATOM     25  N   UNL     1      34.867 -19.015 -23.881  0.00  0.00    -0.285 NA
ATOM     26  C   UNL     1      35.405 -18.973 -22.676  0.00  0.00    +0.117 C 
ATOM     27  H   UNL     1      36.930 -17.686 -23.222  0.00  0.00    +0.144 HD
ATOM     28  H   UNL     1      36.953 -18.147 -21.580  0.00  0.00    +0.144 HD
ATOM     29  H   UNL     1      35.271 -18.502 -24.618  0.00  0.00    +0.188 HD
ENDBRANCH   8  26
TORSDOF 5
ENDMDL
MODEL 3
REMARK VINA RESULT:      -9.9      4.328      5.312
REMARK  Name = 17753799
REMARK  5 active torsions:
REMARK  status: ('A' for Active; 'I' for Inactive)
REMARK    1  A    between atoms: C_2  and  C_12
REMARK    2  A    between atoms: C_8  and  C_26
REMARK    3  A    between atoms: C_14  and  C_20
REMARK    4  A    between atoms: C_15  and  O_18
REMARK    5  A    between atoms: C_20  and  C_23
REMARK                            x       y       z     vdW  Elec       q    Type
REMARK                         _______ _______ _______ _____ _____    ______ ____
ROOT
ATOM      1  N   UNL     1      32.254 -25.156 -14.019  0.00  0.00    -0.312 N 
ATOM      2  C   UNL     1      33.254 -24.313 -14.421  0.00  0.00    +0.051 C 
ATOM      3  C   UNL     1      31.311 -23.647 -15.365  0.00  0.00    +0.015 C 
ATOM      4  C   UNL     1      31.056 -24.774 -14.580  0.00  0.00    +0.048 C 
ATOM      5  C   UNL     1      32.702 -23.367 -15.255  0.00  0.00    +0.016 C 
ATOM      6  C   UNL     1      30.241 -23.048 -16.059  0.00  0.00    +0.004 C 
ATOM      7  C   UNL     1      29.780 -25.334 -14.454  0.00  0.00    +0.015 C 
ATOM      8  C   UNL     1      28.959 -23.597 -15.943  0.00  0.00    +0.031 C 
ATOM      9  C   UNL     1      28.734 -24.723 -15.152  0.00  0.00    +0.004 C 
ATOM     10  H   UNL     1      32.374 -25.925 -13.415  0.00  0.00    +0.152 HD
ENDROOT
BRANCH   2  12
ATOM     11 BR   UNL     1      36.989 -23.459 -10.694  0.00  0.00    -0.046 Br
ATOM     12  C   UNL     1      34.619 -24.479 -13.981  0.00  0.00    +0.047 C 
ATOM     13  C   UNL     1      35.515 -25.163 -14.802  0.00  0.00    +0.001 C 
ATOM     14  C   UNL     1      36.839 -25.335 -14.397  0.00  0.00    -0.010 C 
ATOM     15  C   UNL     1      35.046 -23.968 -12.756  0.00  0.00    +0.141 C 
ATOM     16  C   UNL     1      37.266 -24.823 -13.171  0.00  0.00    +0.006 C 
ATOM     17  C   UNL     1      36.370 -24.139 -12.351  0.00  0.00    +0.068 C 
BRANCH  15  18
ATOM     18  O   UNL     1      34.164 -23.298 -11.955  0.00  0.00    -0.505 OA
ATOM     19  H   UNL     1      34.281 -23.300 -11.025  0.00  0.00    +0.292 HD
ENDBRANCH  15  18
BRANCH  14  20
ATOM     20  C   UNL     1      37.798 -26.066 -15.275  0.00  0.00    +0.140 C 
BRANCH  20  23
ATOM     21  O   UNL     1      39.494 -24.427 -15.177  0.00  0.00    -0.245 OA
ATOM     22  O   UNL     1      39.967 -26.553 -14.480  0.00  0.00    -0.245 OA
ATOM     23  C   UNL     1      39.227 -25.639 -14.942  0.00  0.00    +0.369 C 
ENDBRANCH  20  23
ENDBRANCH  14  20
ENDBRANCH   2  12
BRANCH   8  26
ATOM     24  N   UNL     1      26.957 -22.131 -16.013  0.00  0.00    -0.343 N 
ATOM     25  N   UNL     1      27.673 -23.240 -17.941  0.00  0.00    -0.285 NA
ATOM     26  C   UNL     1      27.849 -22.984 -16.657  0.00  0.00    +0.117 C 
ATOM     27  H   UNL     1      26.212 -21.728 -16.515  0.00  0.00    +0.144 HD
ATOM     28  H   UNL     1      27.070 -21.931 -15.056  0.00  0.00    +0.144 HD
ATOM     29  H   UNL     1      26.923 -22.827 -18.426  0.00  0.00    +0.188 HD
ENDBRANCH   8  26
TORSDOF 5
ENDMDL
MODEL 4
REMARK VINA RESULT:      -9.6      3.444      5.845
REMARK  Name = 17753799
REMARK  5 active torsions:
REMARK  status: ('A' for Active; 'I' for Inactive)
REMARK    1  A    between atoms: C_2  and  C_12
REMARK    2  A    between atoms: C_8  and  C_26
REMARK    3  A    between atoms: C_14  and  C_20
REMARK    4  A    between atoms: C_15  and  O_18
REMARK    5  A    between atoms: C_20  and  C_23
REMARK                            x       y       z     vdW  Elec       q    Type
REMARK                         _______ _______ _______ _____ _____    ______ ____
ROOT
ATOM      1  N   UNL     1      35.791 -20.931 -19.219  0.00  0.00    -0.312 N 
ATOM      2  C   UNL     1      34.541 -21.451 -19.018  0.00  0.00    +0.051 C 
ATOM      3  C   UNL     1      34.507 -20.160 -20.872  0.00  0.00    +0.015 C 
ATOM      4  C   UNL     1      35.800 -20.138 -20.345  0.00  0.00    +0.048 C 
ATOM      5  C   UNL     1      33.724 -20.993 -20.025  0.00  0.00    +0.016 C 
ATOM      6  C   UNL     1      34.239 -19.420 -22.041  0.00  0.00    +0.004 C 
ATOM      7  C   UNL     1      36.842 -19.411 -20.930  0.00  0.00    +0.015 C 
ATOM      8  C   UNL     1      35.272 -18.688 -22.637  0.00  0.00    +0.031 C 
ATOM      9  C   UNL     1      36.553 -18.685 -22.088  0.00  0.00    +0.004 C 
ATOM     10  H   UNL     1      36.571 -21.100 -18.642  0.00  0.00    +0.152 HD
ENDROOT
BRANCH   2  12
ATOM     11 BR   UNL     1      36.286 -24.220 -14.791  0.00  0.00    -0.046 Br
ATOM     12  C   UNL     1      34.245 -22.324 -17.906  0.00  0.00    +0.047 C 
ATOM     13  C   UNL     1      32.928 -22.730 -17.698  0.00  0.00    +0.001 C 
ATOM     14  C   UNL     1      32.619 -23.573 -16.631  0.00  0.00    -0.010 C 
ATOM     15  C   UNL     1      35.254 -22.760 -17.047  0.00  0.00    +0.141 C 
ATOM     16  C   UNL     1      33.628 -24.010 -15.772  0.00  0.00    +0.006 C 
ATOM     17  C   UNL     1      34.945 -23.604 -15.980  0.00  0.00    +0.068 C 
BRANCH  15  18
ATOM     18  O   UNL     1      36.544 -22.360 -17.255  0.00  0.00    -0.505 OA
ATOM     19  H   UNL     1      37.031 -21.967 -16.557  0.00  0.00    +0.292 HD
ENDBRANCH  15  18
BRANCH  14  20
ATOM     20  C   UNL     1      31.209 -24.008 -16.408  0.00  0.00    +0.140 C 
BRANCH  20  23
ATOM     21  O   UNL     1      30.472 -22.402 -14.843  0.00  0.00    -0.245 OA
ATOM     22  O   UNL     1      29.622 -22.352 -16.966  0.00  0.00    -0.245 OA
ATOM     23  C   UNL     1      30.351 -22.800 -16.036  0.00  0.00    +0.369 C 
ENDBRANCH  20  23
ENDBRANCH  14  20
ENDBRANCH   2  12
BRANCH   8  26
ATOM     24  N   UNL     1      35.397 -16.590 -23.961  0.00  0.00    -0.343 N 
ATOM     25  N   UNL     1      34.369 -18.490 -24.855  0.00  0.00    -0.285 NA
ATOM     26  C   UNL     1      35.003 -17.922 -23.845  0.00  0.00    +0.117 C 
ATOM     27  H   UNL     1      35.204 -16.090 -24.787  0.00  0.00    +0.144 HD
ATOM     28  H   UNL     1      35.867 -16.150 -23.217  0.00  0.00    +0.144 HD
ATOM     29  H   UNL     1      34.186 -17.973 -25.673  0.00  0.00    +0.188 HD
ENDBRANCH   8  26
TORSDOF 5
ENDMDL
MODEL 5
REMARK VINA RESULT:      -9.5      8.365     12.438
REMARK  Name = 17753799
REMARK  5 active torsions:
REMARK  status: ('A' for Active; 'I' for Inactive)
REMARK    1  A    between atoms: C_2  and  C_12
REMARK    2  A    between atoms: C_8  and  C_26
REMARK    3  A    between atoms: C_14  and  C_20
REMARK    4  A    between atoms: C_15  and  O_18
REMARK    5  A    between atoms: C_20  and  C_23
REMARK                            x       y       z     vdW  Elec       q    Type
REMARK                         _______ _______ _______ _____ _____    ______ ____
ROOT
ATOM      1  N   UNL     1      34.719 -15.962 -21.888  0.00  0.00    -0.312 N 
ATOM      2  C   UNL     1      33.444 -15.483 -21.755  0.00  0.00    +0.051 C 
ATOM      3  C   UNL     1      33.494 -17.633 -21.061  0.00  0.00    +0.015 C 
ATOM      4  C   UNL     1      34.780 -17.273 -21.473  0.00  0.00    +0.048 C 
ATOM      5  C   UNL     1      32.663 -16.494 -21.245  0.00  0.00    +0.016 C 
ATOM      6  C   UNL     1      33.277 -18.941 -20.583  0.00  0.00    +0.004 C 
ATOM      7  C   UNL     1      35.863 -18.159 -21.430  0.00  0.00    +0.015 C 
ATOM      8  C   UNL     1      34.350 -19.838 -20.535  0.00  0.00    +0.031 C 
ATOM      9  C   UNL     1      35.623 -19.450 -20.952  0.00  0.00    +0.004 C 
ATOM     10  H   UNL     1      35.483 -15.444 -22.232  0.00  0.00    +0.152 HD
ENDROOT
BRANCH   2  12
ATOM     11 BR   UNL     1      34.100 -11.313 -25.034  0.00  0.00    -0.046 Br
ATOM     12  C   UNL     1      33.093 -14.130 -22.116  0.00  0.00    +0.047 C 
ATOM     13  C   UNL     1      32.153 -13.447 -21.346  0.00  0.00    +0.001 C 
ATOM     14  C   UNL     1      31.799 -12.139 -21.676  0.00  0.00    -0.010 C 
ATOM     15  C   UNL     1      33.679 -13.505 -23.217  0.00  0.00    +0.141 C 
ATOM     16  C   UNL     1      32.386 -11.514 -22.777  0.00  0.00    +0.006 C 
ATOM     17  C   UNL     1      33.326 -12.197 -23.547  0.00  0.00    +0.068 C 
BRANCH  15  18
ATOM     18  O   UNL     1      34.600 -14.179 -23.969  0.00  0.00    -0.505 OA
ATOM     19  H   UNL     1      34.893 -13.820 -24.784  0.00  0.00    +0.292 HD
ENDBRANCH  15  18
BRANCH  14  20
ATOM     20  C   UNL     1      30.793 -11.408 -20.852  0.00  0.00    +0.140 C 
BRANCH  20  23
ATOM     21  O   UNL     1      31.508 -11.044 -18.631  0.00  0.00    -0.245 OA
ATOM     22  O   UNL     1      32.008  -9.482 -20.225  0.00  0.00    -0.245 OA
ATOM     23  C   UNL     1      31.509 -10.563 -19.799  0.00  0.00    +0.369 C 
ENDBRANCH  20  23
ENDBRANCH  14  20
ENDBRANCH   2  12
BRANCH   8  26
ATOM     24  N   UNL     1      32.850 -21.711 -19.898  0.00  0.00    -0.343 N 
ATOM     25  N   UNL     1      35.169 -21.944 -19.719  0.00  0.00    -0.285 NA
ATOM     26  C   UNL     1      34.134 -21.190 -20.043  0.00  0.00    +0.117 C 
ATOM     27  H   UNL     1      32.727 -22.628 -19.561  0.00  0.00    +0.144 HD
ATOM     28  H   UNL     1      32.067 -21.163 -20.130  0.00  0.00    +0.144 HD
ATOM     29  H   UNL     1      35.025 -22.860 -19.386  0.00  0.00    +0.188 HD
ENDBRANCH   8  26
TORSDOF 5
ENDMDL
MODEL 6
REMARK VINA RESULT:      -9.5      1.845      3.272
REMARK  Name = 17753799
REMARK  5 active torsions:
REMARK  status: ('A' for Active; 'I' for Inactive)
REMARK    1  A    between atoms: C_2  and  C_12
REMARK    2  A    between atoms: C_8  and  C_26
REMARK    3  A    between atoms: C_14  and  C_20
REMARK    4  A    between atoms: C_15  and  O_18
REMARK    5  A    between atoms: C_20  and  C_23
REMARK                            x       y       z     vdW  Elec       q    Type
REMARK                         _______ _______ _______ _____ _____    ______ ____
ROOT
ATOM      1  N   UNL     1      35.139 -22.913 -16.907  0.00  0.00    -0.312 N 
ATOM      2  C   UNL     1      36.403 -22.810 -16.394  0.00  0.00    +0.051 C 
ATOM      3  C   UNL     1      36.256 -21.517 -18.241  0.00  0.00    +0.015 C 
ATOM      4  C   UNL     1      35.020 -22.134 -18.036  0.00  0.00    +0.048 C 
ATOM      5  C   UNL     1      37.119 -21.953 -17.197  0.00  0.00    +0.016 C 
ATOM      6  C   UNL     1      36.408 -20.653 -19.344  0.00  0.00    +0.004 C 
ATOM      7  C   UNL     1      33.924 -21.930 -18.883  0.00  0.00    +0.015 C 
ATOM      8  C   UNL     1      35.321 -20.441 -20.200  0.00  0.00    +0.031 C 
ATOM      9  C   UNL     1      34.099 -21.070 -19.970  0.00  0.00    +0.004 C 
ATOM     10  H   UNL     1      34.418 -23.465 -16.525  0.00  0.00    +0.152 HD
ENDROOT
BRANCH   2  12
ATOM     11 BR   UNL     1      40.185 -25.504 -13.744  0.00  0.00    -0.046 Br
ATOM     12  C   UNL     1      36.807 -23.524 -15.205  0.00  0.00    +0.047 C 
ATOM     13  C   UNL     1      35.895 -23.666 -14.160  0.00  0.00    +0.001 C 
ATOM     14  C   UNL     1      36.263 -24.352 -13.003  0.00  0.00    -0.010 C 
ATOM     15  C   UNL     1      38.087 -24.066 -15.092  0.00  0.00    +0.141 C 
ATOM     16  C   UNL     1      37.543 -24.895 -12.890  0.00  0.00    +0.006 C 
ATOM     17  C   UNL     1      38.455 -24.752 -13.935  0.00  0.00    +0.068 C 
BRANCH  15  18
ATOM     18  O   UNL     1      38.978 -23.923 -16.119  0.00  0.00    -0.505 OA
ATOM     19  H   UNL     1      38.669 -23.835 -16.999  0.00  0.00    +0.292 HD
ENDBRANCH  15  18
BRANCH  14  20
ATOM     20  C   UNL     1      35.287 -24.506 -11.885  0.00  0.00    +0.140 C 
BRANCH  20  23
ATOM     21  O   UNL     1      35.433 -24.504  -9.529  0.00  0.00    -0.245 OA
ATOM     22  O   UNL     1      36.830 -23.145 -10.726  0.00  0.00    -0.245 OA
ATOM     23  C   UNL     1      35.913 -24.004 -10.584  0.00  0.00    +0.369 C 
ENDBRANCH  20  23
ENDBRANCH  14  20
ENDBRANCH   2  12
BRANCH   8  26
ATOM     24  N   UNL     1      34.582 -19.592 -22.413  0.00  0.00    -0.343 N 
ATOM     25  N   UNL     1      36.469 -18.685 -21.373  0.00  0.00    -0.285 NA
ATOM     26  C   UNL     1      35.471 -19.550 -21.341  0.00  0.00    +0.117 C 
ATOM     27  H   UNL     1      34.702 -18.981 -23.176  0.00  0.00    +0.144 HD
ATOM     28  H   UNL     1      33.834 -20.232 -22.409  0.00  0.00    +0.144 HD
ATOM     29  H   UNL     1      36.572 -18.082 -22.144  0.00  0.00    +0.188 HD
ENDBRANCH   8  26
TORSDOF 5
ENDMDL
MODEL 7
REMARK VINA RESULT:      -9.3      4.445      5.830
REMARK  Name = 17753799
REMARK  5 active torsions:
REMARK  status: ('A' for Active; 'I' for Inactive)
REMARK    1  A    between atoms: C_2  and  C_12
REMARK    2  A    between atoms: C_8  and  C_26
REMARK    3  A    between atoms: C_14  and  C_20
REMARK    4  A    between atoms: C_15  and  O_18
REMARK    5  A    between atoms: C_20  and  C_23
REMARK                            x       y       z     vdW  Elec       q    Type
REMARK                         _______ _______ _______ _____ _____    ______ ____
ROOT
ATOM      1  N   UNL     1      32.271 -24.576 -14.538  0.00  0.00    -0.312 N 
ATOM      2  C   UNL     1      33.136 -23.622 -15.002  0.00  0.00    +0.051 C 
ATOM      3  C   UNL     1      31.049 -23.126 -15.712  0.00  0.00    +0.015 C 
ATOM      4  C   UNL     1      30.989 -24.299 -14.956  0.00  0.00    +0.048 C 
ATOM      5  C   UNL     1      32.409 -22.710 -15.733  0.00  0.00    +0.016 C 
ATOM      6  C   UNL     1      29.857 -22.616 -16.266  0.00  0.00    +0.004 C 
ATOM      7  C   UNL     1      29.794 -24.989 -14.725  0.00  0.00    +0.015 C 
ATOM      8  C   UNL     1      28.655 -23.296 -16.044  0.00  0.00    +0.031 C 
ATOM      9  C   UNL     1      28.626 -24.464 -15.285  0.00  0.00    +0.004 C 
ATOM     10  H   UNL     1      32.529 -25.349 -13.984  0.00  0.00    +0.152 HD
ENDROOT
BRANCH   2  12
ATOM     11 BR   UNL     1      37.072 -24.948 -11.637  0.00  0.00    -0.046 Br
ATOM     12  C   UNL     1      34.549 -23.664 -14.712  0.00  0.00    +0.047 C 
ATOM     13  C   UNL     1      35.448 -23.158 -15.651  0.00  0.00    +0.001 C 
ATOM     14  C   UNL     1      36.818 -23.187 -15.391  0.00  0.00    -0.010 C 
ATOM     15  C   UNL     1      35.021 -24.200 -13.514  0.00  0.00    +0.141 C 
ATOM     16  C   UNL     1      37.290 -23.723 -14.192  0.00  0.00    +0.006 C 
ATOM     17  C   UNL     1      36.391 -24.229 -13.254  0.00  0.00    +0.068 C 
BRANCH  15  18
ATOM     18  O   UNL     1      34.137 -24.695 -12.597  0.00  0.00    -0.505 OA
ATOM     19  H   UNL     1      34.453 -25.112 -11.819  0.00  0.00    +0.292 HD
ENDBRANCH  15  18
BRANCH  14  20
ATOM     20  C   UNL     1      37.779 -22.645 -16.395  0.00  0.00    +0.140 C 
BRANCH  20  23
ATOM     21  O   UNL     1      37.310 -20.469 -17.179  0.00  0.00    -0.245 OA
ATOM     22  O   UNL     1      36.271 -22.250 -18.169  0.00  0.00    -0.245 OA
ATOM     23  C   UNL     1      37.050 -21.693 -17.343  0.00  0.00    +0.369 C 
ENDBRANCH  20  23
ENDBRANCH  14  20
ENDBRANCH   2  12
BRANCH   8  26
ATOM     24  N   UNL     1      26.503 -22.074 -15.833  0.00  0.00    -0.343 N 
ATOM     25  N   UNL     1      27.154 -22.969 -17.892  0.00  0.00    -0.285 NA
ATOM     26  C   UNL     1      27.421 -22.775 -16.613  0.00  0.00    +0.117 C 
ATOM     27  H   UNL     1      25.674 -21.731 -16.239  0.00  0.00    +0.144 HD
ATOM     28  H   UNL     1      26.683 -21.922 -14.878  0.00  0.00    +0.144 HD
ATOM     29  H   UNL     1      26.320 -22.617 -18.279  0.00  0.00    +0.188 HD
ENDBRANCH   8  26
TORSDOF 5
ENDMDL
MODEL 8
REMARK VINA RESULT:      -9.3      4.610      6.110
REMARK  Name = 17753799
REMARK  5 active torsions:
REMARK  status: ('A' for Active; 'I' for Inactive)
REMARK    1  A    between atoms: C_2  and  C_12
REMARK    2  A    between atoms: C_8  and  C_26
REMARK    3  A    between atoms: C_14  and  C_20
REMARK    4  A    between atoms: C_15  and  O_18
REMARK    5  A    between atoms: C_20  and  C_23
REMARK                            x       y       z     vdW  Elec       q    Type
REMARK                         _______ _______ _______ _____ _____    ______ ____
ROOT
ATOM      1  N   UNL     1      32.177 -24.720 -14.523  0.00  0.00    -0.312 N 
ATOM      2  C   UNL     1      33.063 -23.755 -14.919  0.00  0.00    +0.051 C 
ATOM      3  C   UNL     1      31.001 -23.201 -15.657  0.00  0.00    +0.015 C 
ATOM      4  C   UNL     1      30.909 -24.407 -14.960  0.00  0.00    +0.048 C 
ATOM      5  C   UNL     1      32.365 -22.800 -15.622  0.00  0.00    +0.016 C 
ATOM      6  C   UNL     1      29.830 -22.651 -16.216  0.00  0.00    +0.004 C 
ATOM      7  C   UNL     1      29.701 -25.094 -14.793  0.00  0.00    +0.015 C 
ATOM      8  C   UNL     1      28.615 -23.326 -16.058  0.00  0.00    +0.031 C 
ATOM      9  C   UNL     1      28.554 -24.529 -15.357  0.00  0.00    +0.004 C 
ATOM     10  H   UNL     1      32.412 -25.521 -14.000  0.00  0.00    +0.152 HD
ENDROOT
BRANCH   2  12
ATOM     11 BR   UNL     1      38.133 -22.812 -16.329  0.00  0.00    -0.046 Br
ATOM     12  C   UNL     1      34.468 -23.827 -14.594  0.00  0.00    +0.047 C 
ATOM     13  C   UNL     1      34.853 -24.376 -13.371  0.00  0.00    +0.001 C 
ATOM     14  C   UNL     1      36.204 -24.457 -13.038  0.00  0.00    -0.010 C 
ATOM     15  C   UNL     1      35.436 -23.358 -15.483  0.00  0.00    +0.141 C 
ATOM     16  C   UNL     1      37.172 -23.987 -13.927  0.00  0.00    +0.006 C 
ATOM     17  C   UNL     1      36.788 -23.438 -15.149  0.00  0.00    +0.068 C 
BRANCH  15  18
ATOM     18  O   UNL     1      35.055 -22.820 -16.680  0.00  0.00    -0.505 OA
ATOM     19  H   UNL     1      34.636 -21.982 -16.705  0.00  0.00    +0.292 HD
ENDBRANCH  15  18
BRANCH  14  20
ATOM     20  C   UNL     1      36.616 -25.045 -11.730  0.00  0.00    +0.140 C 
BRANCH  20  23
ATOM     21  O   UNL     1      36.977 -23.007 -10.595  0.00  0.00    -0.245 OA
ATOM     22  O   UNL     1      35.379 -24.443  -9.811  0.00  0.00    -0.245 OA
ATOM     23  C   UNL     1      36.291 -24.067 -10.602  0.00  0.00    +0.369 C 
ENDBRANCH  20  23
ENDBRANCH  14  20
ENDBRANCH   2  12
BRANCH   8  26
ATOM     24  N   UNL     1      26.493 -22.052 -15.851  0.00  0.00    -0.343 N 
ATOM     25  N   UNL     1      27.145 -22.931 -17.917  0.00  0.00    -0.285 NA
ATOM     26  C   UNL     1      27.402 -22.764 -16.632  0.00  0.00    +0.117 C 
ATOM     27  H   UNL     1      25.678 -21.681 -16.261  0.00  0.00    +0.144 HD
ATOM     28  H   UNL     1      26.666 -21.921 -14.892  0.00  0.00    +0.144 HD
ATOM     29  H   UNL     1      26.325 -22.552 -18.308  0.00  0.00    +0.188 HD
ENDBRANCH   8  26
TORSDOF 5
ENDMDL
MODEL 9
REMARK VINA RESULT:      -9.2      7.764     12.002
REMARK  Name = 17753799
REMARK  5 active torsions:
REMARK  status: ('A' for Active; 'I' for Inactive)
REMARK    1  A    between atoms: C_2  and  C_12
REMARK    2  A    between atoms: C_8  and  C_26
REMARK    3  A    between atoms: C_14  and  C_20
REMARK    4  A    between atoms: C_15  and  O_18
REMARK    5  A    between atoms: C_20  and  C_23
REMARK                            x       y       z     vdW  Elec       q    Type
REMARK                         _______ _______ _______ _____ _____    ______ ____
ROOT
ATOM      1  N   UNL     1      35.277 -17.212 -21.849  0.00  0.00    -0.312 N 
ATOM      2  C   UNL     1      33.955 -16.863 -21.915  0.00  0.00    +0.051 C 
ATOM      3  C   UNL     1      34.133 -18.861 -20.874  0.00  0.00    +0.015 C 
ATOM      4  C   UNL     1      35.416 -18.428 -21.218  0.00  0.00    +0.048 C 
ATOM      5  C   UNL     1      33.222 -17.864 -21.320  0.00  0.00    +0.016 C 
ATOM      6  C   UNL     1      33.991 -20.095 -20.209  0.00  0.00    +0.004 C 
ATOM      7  C   UNL     1      36.567 -19.170 -20.929  0.00  0.00    +0.015 C 
ATOM      8  C   UNL     1      35.133 -20.848 -19.914  0.00  0.00    +0.031 C 
ATOM      9  C   UNL     1      36.400 -20.391 -20.269  0.00  0.00    +0.004 C 
ATOM     10  H   UNL     1      36.021 -16.671 -22.201  0.00  0.00    +0.152 HD
ENDROOT
BRANCH   2  12
ATOM     11 BR   UNL     1      33.369 -13.909 -26.331  0.00  0.00    -0.046 Br
ATOM     12  C   UNL     1      33.519 -15.630 -22.526  0.00  0.00    +0.047 C 
ATOM     13  C   UNL     1      32.966 -14.636 -21.720  0.00  0.00    +0.001 C 
ATOM     14  C   UNL     1      32.538 -13.436 -22.289  0.00  0.00    -0.010 C 
ATOM     15  C   UNL     1      33.643 -15.426 -23.900  0.00  0.00    +0.141 C 
ATOM     16  C   UNL     1      32.663 -13.231 -23.664  0.00  0.00    +0.006 C 
ATOM     17  C   UNL     1      33.216 -14.226 -24.469  0.00  0.00    +0.068 C 
BRANCH  15  18
ATOM     18  O   UNL     1      34.186 -16.404 -24.686  0.00  0.00    -0.505 OA
ATOM     19  H   UNL     1      33.828 -17.270 -24.670  0.00  0.00    +0.292 HD
ENDBRANCH  15  18
BRANCH  14  20
ATOM     20  C   UNL     1      31.947 -12.371 -21.428  0.00  0.00    +0.140 C 
BRANCH  20  23
ATOM     21  O   UNL     1      32.844 -10.598 -22.702  0.00  0.00    -0.245 OA
ATOM     22  O   UNL     1      30.586 -10.673 -22.345  0.00  0.00    -0.245 OA
ATOM     23  C   UNL     1      31.776 -11.089 -22.240  0.00  0.00    +0.369 C 
ENDBRANCH  20  23
ENDBRANCH  14  20
ENDBRANCH   2  12
BRANCH   8  26
ATOM     24  N   UNL     1      34.038 -23.058 -19.621  0.00  0.00    -0.343 N 
ATOM     25  N   UNL     1      35.780 -22.408 -18.204  0.00  0.00    -0.285 NA
ATOM     26  C   UNL     1      34.993 -22.123 -19.227  0.00  0.00    +0.117 C 
ATOM     27  H   UNL     1      33.960 -23.914 -19.140  0.00  0.00    +0.144 HD
ATOM     28  H   UNL     1      33.441 -22.862 -20.377  0.00  0.00    +0.144 HD
ATOM     29  H   UNL     1      35.688 -23.270 -17.738  0.00  0.00    +0.188 HD
ENDBRANCH   8  26
TORSDOF 5
ENDMDL
