MODEL 1
REMARK VINA RESULT:      -7.6      0.000      0.000
REMARK  Name = 9543426
REMARK  9 active torsions:
REMARK  status: ('A' for Active; 'I' for Inactive)
REMARK    1  A    between atoms: S_1  and  C_3
REMARK    2  A    between atoms: S_1  and  C_11
REMARK    3  A    between atoms: C_4  and  O_9
REMARK    4  A    between atoms: C_11  and  C_12
REMARK    5  A    between atoms: C_12  and  C_13
REMARK    6  A    between atoms: C_13  and  C_14
REMARK    7  A    between atoms: C_14  and  P_15
REMARK    8  A    between atoms: P_15  and  O_17
REMARK    9  A    between atoms: P_15  and  O_19
REMARK                            x       y       z     vdW  Elec       q    Type
REMARK                         _______ _______ _______ _____ _____    ______ ____
ROOT
ATOM      1  S   UNL     1      35.752 -18.453 -22.508  0.00  0.00    +0.068 S 
ATOM      2  O   UNL     1      35.033 -19.107 -23.647  0.00  0.00    -0.251 OA
ENDROOT
BRANCH   1   3
ATOM      3  C   UNL     1      35.101 -16.774 -22.392  0.00  0.00    +0.090 C 
ATOM      4  C   UNL     1      34.879 -16.014 -23.536  0.00  0.00    +0.142 C 
ATOM      5  C   UNL     1      34.824 -16.250 -21.132  0.00  0.00    +0.012 C 
ATOM      6  C   UNL     1      34.377 -14.718 -23.420  0.00  0.00    +0.037 C 
ATOM      7  C   UNL     1      34.321 -14.954 -21.017  0.00  0.00    +0.001 C 
ATOM      8  C   UNL     1      34.098 -14.188 -22.161  0.00  0.00    +0.003 C 
BRANCH   4   9
ATOM      9  O   UNL     1      35.145 -16.505 -24.780  0.00  0.00    -0.505 OA
ATOM     10  H   UNL     1      35.286 -15.916 -25.495  0.00  0.00    +0.292 HD
ENDBRANCH   4   9
ENDBRANCH   1   3
BRANCH   1  11
ATOM     11  C   UNL     1      35.006 -19.084 -20.975  0.00  0.00    +0.096 C 
BRANCH  11  12
ATOM     12  C   UNL     1      33.618 -19.671 -21.212  0.00  0.00    +0.015 C 
BRANCH  12  13
ATOM     13  C   UNL     1      33.193 -20.659 -20.121  0.00  0.00    +0.014 C 
BRANCH  13  14
ATOM     14  C   UNL     1      34.384 -21.387 -19.510  0.00  0.00    +0.116 C 
BRANCH  14  15
ATOM     15  P   UNL     1      33.924 -22.783 -18.460  0.00  0.00    +0.337 P 
ATOM     16  O   UNL     1      34.803 -22.949 -17.270  0.00  0.00    -0.258 OA
BRANCH  15  17
ATOM     17  O   UNL     1      33.902 -24.009 -19.503  0.00  0.00    -0.324 OA
ATOM     18  H   UNL     1      34.339 -23.741 -20.326  0.00  0.00    +0.220 HD
ENDBRANCH  15  17
BRANCH  15  19
ATOM     19  O   UNL     1      32.369 -22.497 -18.161  0.00  0.00    -0.324 OA
ATOM     20  H   UNL     1      31.960 -23.293 -17.787  0.00  0.00    +0.220 HD
ENDBRANCH  15  19
ENDBRANCH  14  15
ENDBRANCH  13  14
ENDBRANCH  12  13
ENDBRANCH  11  12
ENDBRANCH   1  11
TORSDOF 9
ENDMDL
MODEL 2
REMARK VINA RESULT:      -7.6      3.816      5.788
REMARK  Name = 9543426
REMARK  9 active torsions:
REMARK  status: ('A' for Active; 'I' for Inactive)
REMARK    1  A    between atoms: S_1  and  C_3
REMARK    2  A    between atoms: S_1  and  C_11
REMARK    3  A    between atoms: C_4  and  O_9
REMARK    4  A    between atoms: C_11  and  C_12
REMARK    5  A    between atoms: C_12  and  C_13
REMARK    6  A    between atoms: C_13  and  C_14
REMARK    7  A    between atoms: C_14  and  P_15
REMARK    8  A    between atoms: P_15  and  O_17
REMARK    9  A    between atoms: P_15  and  O_19
REMARK                            x       y       z     vdW  Elec       q    Type
REMARK                         _______ _______ _______ _____ _____    ______ ____
ROOT
ATOM      1  S   UNL     1      34.081 -22.600 -18.890  0.00  0.00    +0.068 S 
ATOM      2  O   UNL     1      32.694 -22.234 -18.459  0.00  0.00    -0.251 OA
ENDROOT
BRANCH   1   3
ATOM      3  C   UNL     1      34.727 -21.177 -19.791  0.00  0.00    +0.090 C 
ATOM      4  C   UNL     1      33.879 -20.354 -20.526  0.00  0.00    +0.142 C 
ATOM      5  C   UNL     1      36.093 -20.917 -19.741  0.00  0.00    +0.012 C 
ATOM      6  C   UNL     1      34.402 -19.261 -21.216  0.00  0.00    +0.037 C 
ATOM      7  C   UNL     1      36.616 -19.822 -20.431  0.00  0.00    +0.001 C 
ATOM      8  C   UNL     1      35.770 -18.995 -21.169  0.00  0.00    +0.003 C 
BRANCH   4   9
ATOM      9  O   UNL     1      32.537 -20.590 -20.593  0.00  0.00    -0.505 OA
ATOM     10  H   UNL     1      32.030 -20.217 -21.287  0.00  0.00    +0.292 HD
ENDBRANCH   4   9
ENDBRANCH   1   3
BRANCH   1  11
ATOM     11  C   UNL     1      35.152 -22.438 -17.429  0.00  0.00    +0.096 C 
BRANCH  11  12
ATOM     12  C   UNL     1      34.662 -23.290 -16.262  0.00  0.00    +0.015 C 
BRANCH  12  13
ATOM     13  C   UNL     1      35.806 -23.857 -15.415  0.00  0.00    +0.014 C 
BRANCH  13  14
ATOM     14  C   UNL     1      35.540 -25.293 -14.980  0.00  0.00    +0.116 C 
BRANCH  14  15
ATOM     15  P   UNL     1      37.013 -26.339 -14.979  0.00  0.00    +0.337 P 
ATOM     16  O   UNL     1      37.225 -27.069 -13.700  0.00  0.00    -0.258 OA
BRANCH  15  17
ATOM     17  O   UNL     1      38.171 -25.308 -15.410  0.00  0.00    -0.324 OA
ATOM     18  H   UNL     1      38.990 -25.527 -14.939  0.00  0.00    +0.220 HD
ENDBRANCH  15  17
BRANCH  15  19
ATOM     19  O   UNL     1      36.794 -27.249 -16.289  0.00  0.00    -0.324 OA
ATOM     20  H   UNL     1      35.848 -27.434 -16.400  0.00  0.00    +0.220 HD
ENDBRANCH  15  19
ENDBRANCH  14  15
ENDBRANCH  13  14
ENDBRANCH  12  13
ENDBRANCH  11  12
ENDBRANCH   1  11
TORSDOF 9
ENDMDL
MODEL 3
REMARK VINA RESULT:      -7.6      7.515      9.447
REMARK  Name = 9543426
REMARK  9 active torsions:
REMARK  status: ('A' for Active; 'I' for Inactive)
REMARK    1  A    between atoms: S_1  and  C_3
REMARK    2  A    between atoms: S_1  and  C_11
REMARK    3  A    between atoms: C_4  and  O_9
REMARK    4  A    between atoms: C_11  and  C_12
REMARK    5  A    between atoms: C_12  and  C_13
REMARK    6  A    between atoms: C_13  and  C_14
REMARK    7  A    between atoms: C_14  and  P_15
REMARK    8  A    between atoms: P_15  and  O_17
REMARK    9  A    between atoms: P_15  and  O_19
REMARK                            x       y       z     vdW  Elec       q    Type
REMARK                         _______ _______ _______ _____ _____    ______ ____
ROOT
ATOM      1  S   UNL     1      35.573 -23.573 -14.775  0.00  0.00    +0.068 S 
ATOM      2  O   UNL     1      36.205 -24.514 -15.754  0.00  0.00    -0.251 OA
ENDROOT
BRANCH   1   3
ATOM      3  C   UNL     1      33.850 -23.395 -15.278  0.00  0.00    +0.090 C 
ATOM      4  C   UNL     1      33.512 -23.229 -16.618  0.00  0.00    +0.142 C 
ATOM      5  C   UNL     1      32.861 -23.425 -14.299  0.00  0.00    +0.012 C 
ATOM      6  C   UNL     1      32.173 -23.091 -16.982  0.00  0.00    +0.037 C 
ATOM      7  C   UNL     1      31.521 -23.288 -14.664  0.00  0.00    +0.001 C 
ATOM      8  C   UNL     1      31.177 -23.121 -16.005  0.00  0.00    +0.003 C 
BRANCH   4   9
ATOM      9  O   UNL     1      34.463 -23.194 -17.595  0.00  0.00    -0.505 OA
ATOM     10  H   UNL     1      34.247 -23.455 -18.468  0.00  0.00    +0.292 HD
ENDBRANCH   4   9
ENDBRANCH   1   3
BRANCH   1  11
ATOM     11  C   UNL     1      35.262 -24.519 -13.254  0.00  0.00    +0.096 C 
BRANCH  11  12
ATOM     12  C   UNL     1      36.497 -24.594 -12.363  0.00  0.00    +0.015 C 
BRANCH  12  13
ATOM     13  C   UNL     1      37.486 -25.677 -12.803  0.00  0.00    +0.014 C 
BRANCH  13  14
ATOM     14  C   UNL     1      38.880 -25.114 -13.052  0.00  0.00    +0.116 C 
BRANCH  14  15
ATOM     15  P   UNL     1      39.498 -25.410 -14.724  0.00  0.00    +0.337 P 
ATOM     16  O   UNL     1      40.919 -25.853 -14.764  0.00  0.00    -0.258 OA
BRANCH  15  17
ATOM     17  O   UNL     1      39.165 -24.023 -15.468  0.00  0.00    -0.324 OA
ATOM     18  H   UNL     1      38.948 -23.346 -14.809  0.00  0.00    +0.220 HD
ENDBRANCH  15  17
BRANCH  15  19
ATOM     19  O   UNL     1      38.415 -26.442 -15.318  0.00  0.00    -0.324 OA
ATOM     20  H   UNL     1      37.592 -25.969 -15.514  0.00  0.00    +0.220 HD
ENDBRANCH  15  19
ENDBRANCH  14  15
ENDBRANCH  13  14
ENDBRANCH  12  13
ENDBRANCH  11  12
ENDBRANCH   1  11
TORSDOF 9
ENDMDL
MODEL 4
REMARK VINA RESULT:      -7.5      3.921      5.749
REMARK  Name = 9543426
REMARK  9 active torsions:
REMARK  status: ('A' for Active; 'I' for Inactive)
REMARK    1  A    between atoms: S_1  and  C_3
REMARK    2  A    between atoms: S_1  and  C_11
REMARK    3  A    between atoms: C_4  and  O_9
REMARK    4  A    between atoms: C_11  and  C_12
REMARK    5  A    between atoms: C_12  and  C_13
REMARK    6  A    between atoms: C_13  and  C_14
REMARK    7  A    between atoms: C_14  and  P_15
REMARK    8  A    between atoms: P_15  and  O_17
REMARK    9  A    between atoms: P_15  and  O_19
REMARK                            x       y       z     vdW  Elec       q    Type
REMARK                         _______ _______ _______ _____ _____    ______ ____
ROOT
ATOM      1  S   UNL     1      34.308 -22.690 -18.753  0.00  0.00    +0.068 S 
ATOM      2  O   UNL     1      34.127 -23.851 -19.681  0.00  0.00    -0.251 OA
ENDROOT
BRANCH   1   3
ATOM      3  C   UNL     1      34.313 -21.210 -19.784  0.00  0.00    +0.090 C 
ATOM      4  C   UNL     1      35.505 -20.686 -20.275  0.00  0.00    +0.142 C 
ATOM      5  C   UNL     1      33.099 -20.597 -20.081  0.00  0.00    +0.012 C 
ATOM      6  C   UNL     1      35.483 -19.540 -21.069  0.00  0.00    +0.037 C 
ATOM      7  C   UNL     1      33.077 -19.450 -20.875  0.00  0.00    +0.001 C 
ATOM      8  C   UNL     1      34.269 -18.922 -21.369  0.00  0.00    +0.003 C 
BRANCH   4   9
ATOM      9  O   UNL     1      36.707 -21.267 -19.997  0.00  0.00    -0.505 OA
ATOM     10  H   UNL     1      36.737 -22.097 -19.564  0.00  0.00    +0.292 HD
ENDBRANCH   4   9
ENDBRANCH   1   3
BRANCH   1  11
ATOM     11  C   UNL     1      32.703 -22.394 -17.952  0.00  0.00    +0.096 C 
BRANCH  11  12
ATOM     12  C   UNL     1      32.501 -23.281 -16.728  0.00  0.00    +0.015 C 
BRANCH  12  13
ATOM     13  C   UNL     1      31.122 -23.106 -16.084  0.00  0.00    +0.014 C 
BRANCH  13  14
ATOM     14  C   UNL     1      31.171 -23.266 -14.570  0.00  0.00    +0.116 C 
BRANCH  14  15
ATOM     15  P   UNL     1      30.969 -24.972 -14.010  0.00  0.00    +0.337 P 
ATOM     16  O   UNL     1      30.181 -25.818 -14.946  0.00  0.00    -0.258 OA
BRANCH  15  17
ATOM     17  O   UNL     1      30.355 -24.783 -12.534  0.00  0.00    -0.324 OA
ATOM     18  H   UNL     1      29.778 -24.004 -12.522  0.00  0.00    +0.220 HD
ENDBRANCH  15  17
BRANCH  15  19
ATOM     19  O   UNL     1      32.489 -25.432 -13.744  0.00  0.00    -0.324 OA
ATOM     20  H   UNL     1      32.575 -26.381 -13.925  0.00  0.00    +0.220 HD
ENDBRANCH  15  19
ENDBRANCH  14  15
ENDBRANCH  13  14
ENDBRANCH  12  13
ENDBRANCH  11  12
ENDBRANCH   1  11
TORSDOF 9
ENDMDL
MODEL 5
REMARK VINA RESULT:      -7.3      1.454      2.171
REMARK  Name = 9543426
REMARK  9 active torsions:
REMARK  status: ('A' for Active; 'I' for Inactive)
REMARK    1  A    between atoms: S_1  and  C_3
REMARK    2  A    between atoms: S_1  and  C_11
REMARK    3  A    between atoms: C_4  and  O_9
REMARK    4  A    between atoms: C_11  and  C_12
REMARK    5  A    between atoms: C_12  and  C_13
REMARK    6  A    between atoms: C_13  and  C_14
REMARK    7  A    between atoms: C_14  and  P_15
REMARK    8  A    between atoms: P_15  and  O_17
REMARK    9  A    between atoms: P_15  and  O_19
REMARK                            x       y       z     vdW  Elec       q    Type
REMARK                         _______ _______ _______ _____ _____    ______ ____
ROOT
ATOM      1  S   UNL     1      35.886 -18.329 -21.252  0.00  0.00    +0.068 S 
ATOM      2  O   UNL     1      37.210 -18.640 -21.878  0.00  0.00    -0.251 OA
ENDROOT
BRANCH   1   3
ATOM      3  C   UNL     1      35.150 -17.014 -22.243  0.00  0.00    +0.090 C 
ATOM      4  C   UNL     1      34.735 -15.824 -21.652  0.00  0.00    +0.142 C 
ATOM      5  C   UNL     1      35.003 -17.210 -23.613  0.00  0.00    +0.012 C 
ATOM      6  C   UNL     1      34.167 -14.822 -22.438  0.00  0.00    +0.037 C 
ATOM      7  C   UNL     1      34.435 -16.207 -24.399  0.00  0.00    +0.001 C 
ATOM      8  C   UNL     1      34.017 -15.013 -23.812  0.00  0.00    +0.003 C 
BRANCH   4   9
ATOM      9  O   UNL     1      34.866 -15.609 -20.312  0.00  0.00    -0.505 OA
ATOM     10  H   UNL     1      35.347 -14.867 -20.002  0.00  0.00    +0.292 HD
ENDBRANCH   4   9
ENDBRANCH   1   3
BRANCH   1  11
ATOM     11  C   UNL     1      34.739 -19.648 -21.752  0.00  0.00    +0.096 C 
BRANCH  11  12
ATOM     12  C   UNL     1      33.346 -19.450 -21.164  0.00  0.00    +0.015 C 
BRANCH  12  13
ATOM     13  C   UNL     1      33.067 -20.367 -19.969  0.00  0.00    +0.014 C 
BRANCH  13  14
ATOM     14  C   UNL     1      34.213 -21.338 -19.709  0.00  0.00    +0.116 C 
BRANCH  14  15
ATOM     15  P   UNL     1      33.769 -22.718 -18.632  0.00  0.00    +0.337 P 
ATOM     16  O   UNL     1      32.403 -22.607 -18.051  0.00  0.00    -0.258 OA
BRANCH  15  17
ATOM     17  O   UNL     1      34.988 -22.744 -17.581  0.00  0.00    -0.324 OA
ATOM     18  H   UNL     1      34.641 -22.883 -16.686  0.00  0.00    +0.220 HD
ENDBRANCH  15  17
BRANCH  15  19
ATOM     19  O   UNL     1      34.039 -23.995 -19.574  0.00  0.00    -0.324 OA
ATOM     20  H   UNL     1      34.084 -23.710 -20.499  0.00  0.00    +0.220 HD
ENDBRANCH  15  19
ENDBRANCH  14  15
ENDBRANCH  13  14
ENDBRANCH  12  13
ENDBRANCH  11  12
ENDBRANCH   1  11
TORSDOF 9
ENDMDL
MODEL 6
REMARK VINA RESULT:      -7.2      3.702      7.228
REMARK  Name = 9543426
REMARK  9 active torsions:
REMARK  status: ('A' for Active; 'I' for Inactive)
REMARK    1  A    between atoms: S_1  and  C_3
REMARK    2  A    between atoms: S_1  and  C_11
REMARK    3  A    between atoms: C_4  and  O_9
REMARK    4  A    between atoms: C_11  and  C_12
REMARK    5  A    between atoms: C_12  and  C_13
REMARK    6  A    between atoms: C_13  and  C_14
REMARK    7  A    between atoms: C_14  and  P_15
REMARK    8  A    between atoms: P_15  and  O_17
REMARK    9  A    between atoms: P_15  and  O_19
REMARK                            x       y       z     vdW  Elec       q    Type
REMARK                         _______ _______ _______ _____ _____    ______ ____
ROOT
ATOM      1  S   UNL     1      34.605 -18.155 -22.236  0.00  0.00    +0.068 S 
ATOM      2  O   UNL     1      35.881 -18.274 -23.011  0.00  0.00    -0.251 OA
ENDROOT
BRANCH   1   3
ATOM      3  C   UNL     1      34.586 -19.532 -21.071  0.00  0.00    +0.090 C 
ATOM      4  C   UNL     1      35.769 -20.026 -20.531  0.00  0.00    +0.142 C 
ATOM      5  C   UNL     1      33.362 -20.096 -20.722  0.00  0.00    +0.012 C 
ATOM      6  C   UNL     1      35.729 -21.092 -19.633  0.00  0.00    +0.037 C 
ATOM      7  C   UNL     1      33.322 -21.163 -19.824  0.00  0.00    +0.001 C 
ATOM      8  C   UNL     1      34.505 -21.661 -19.280  0.00  0.00    +0.003 C 
BRANCH   4   9
ATOM      9  O   UNL     1      36.980 -19.492 -20.859  0.00  0.00    -0.505 OA
ATOM     10  H   UNL     1      37.200 -19.347 -21.758  0.00  0.00    +0.292 HD
ENDBRANCH   4   9
ENDBRANCH   1   3
BRANCH   1  11
ATOM     11  C   UNL     1      34.849 -16.834 -21.011  0.00  0.00    +0.096 C 
BRANCH  11  12
ATOM     12  C   UNL     1      33.585 -16.007 -20.800  0.00  0.00    +0.015 C 
BRANCH  12  13
ATOM     13  C   UNL     1      33.748 -14.546 -21.232  0.00  0.00    +0.014 C 
BRANCH  13  14
ATOM     14  C   UNL     1      34.358 -14.423 -22.622  0.00  0.00    +0.116 C 
BRANCH  14  15
ATOM     15  P   UNL     1      33.340 -13.488 -23.785  0.00  0.00    +0.337 P 
ATOM     16  O   UNL     1      33.182 -14.153 -25.108  0.00  0.00    -0.258 OA
BRANCH  15  17
ATOM     17  O   UNL     1      34.058 -12.048 -23.796  0.00  0.00    -0.324 OA
ATOM     18  H   UNL     1      33.396 -11.358 -23.960  0.00  0.00    +0.220 HD
ENDBRANCH  15  17
BRANCH  15  19
ATOM     19  O   UNL     1      31.988 -13.245 -22.946  0.00  0.00    -0.324 OA
ATOM     20  H   UNL     1      31.586 -12.405 -23.218  0.00  0.00    +0.220 HD
ENDBRANCH  15  19
ENDBRANCH  14  15
ENDBRANCH  13  14
ENDBRANCH  12  13
ENDBRANCH  11  12
ENDBRANCH   1  11
TORSDOF 9
ENDMDL
MODEL 7
REMARK VINA RESULT:      -7.2      3.548      6.955
REMARK  Name = 9543426
REMARK  9 active torsions:
REMARK  status: ('A' for Active; 'I' for Inactive)
REMARK    1  A    between atoms: S_1  and  C_3
REMARK    2  A    between atoms: S_1  and  C_11
REMARK    3  A    between atoms: C_4  and  O_9
REMARK    4  A    between atoms: C_11  and  C_12
REMARK    5  A    between atoms: C_12  and  C_13
REMARK    6  A    between atoms: C_13  and  C_14
REMARK    7  A    between atoms: C_14  and  P_15
REMARK    8  A    between atoms: P_15  and  O_17
REMARK    9  A    between atoms: P_15  and  O_19
REMARK                            x       y       z     vdW  Elec       q    Type
REMARK                         _______ _______ _______ _____ _____    ______ ____
ROOT
ATOM      1  S   UNL     1      35.605 -18.495 -21.521  0.00  0.00    +0.068 S 
ATOM      2  O   UNL     1      35.406 -17.291 -20.654  0.00  0.00    -0.251 OA
ENDROOT
BRANCH   1   3
ATOM      3  C   UNL     1      34.865 -19.885 -20.642  0.00  0.00    +0.090 C 
ATOM      4  C   UNL     1      35.662 -20.838 -20.015  0.00  0.00    +0.142 C 
ATOM      5  C   UNL     1      33.478 -19.990 -20.602  0.00  0.00    +0.012 C 
ATOM      6  C   UNL     1      35.067 -21.905 -19.343  0.00  0.00    +0.037 C 
ATOM      7  C   UNL     1      32.882 -21.057 -19.929  0.00  0.00    +0.001 C 
ATOM      8  C   UNL     1      33.677 -22.015 -19.299  0.00  0.00    +0.003 C 
BRANCH   4   9
ATOM      9  O   UNL     1      37.023 -20.759 -20.042  0.00  0.00    -0.505 OA
ATOM     10  H   UNL     1      37.479 -20.295 -19.368  0.00  0.00    +0.292 HD
ENDBRANCH   4   9
ENDBRANCH   1   3
BRANCH   1  11
ATOM     11  C   UNL     1      34.373 -18.398 -22.855  0.00  0.00    +0.096 C 
BRANCH  11  12
ATOM     12  C   UNL     1      34.995 -17.971 -24.181  0.00  0.00    +0.015 C 
BRANCH  12  13
ATOM     13  C   UNL     1      35.171 -16.454 -24.297  0.00  0.00    +0.014 C 
BRANCH  13  14
ATOM     14  C   UNL     1      33.836 -15.719 -24.289  0.00  0.00    +0.116 C 
BRANCH  14  15
ATOM     15  P   UNL     1      33.686 -14.493 -22.972  0.00  0.00    +0.337 P 
ATOM     16  O   UNL     1      32.350 -14.482 -22.315  0.00  0.00    -0.258 OA
BRANCH  15  17
ATOM     17  O   UNL     1      34.125 -13.133 -23.711  0.00  0.00    -0.324 OA
ATOM     18  H   UNL     1      33.891 -12.373 -23.156  0.00  0.00    +0.220 HD
ENDBRANCH  15  17
BRANCH  15  19
ATOM     19  O   UNL     1      34.940 -14.844 -22.025  0.00  0.00    -0.324 OA
ATOM     20  H   UNL     1      34.681 -14.741 -21.096  0.00  0.00    +0.220 HD
ENDBRANCH  15  19
ENDBRANCH  14  15
ENDBRANCH  13  14
ENDBRANCH  12  13
ENDBRANCH  11  12
ENDBRANCH   1  11
TORSDOF 9
ENDMDL
MODEL 8
REMARK VINA RESULT:      -7.2      8.758      9.899
REMARK  Name = 9543426
REMARK  9 active torsions:
REMARK  status: ('A' for Active; 'I' for Inactive)
REMARK    1  A    between atoms: S_1  and  C_3
REMARK    2  A    between atoms: S_1  and  C_11
REMARK    3  A    between atoms: C_4  and  O_9
REMARK    4  A    between atoms: C_11  and  C_12
REMARK    5  A    between atoms: C_12  and  C_13
REMARK    6  A    between atoms: C_13  and  C_14
REMARK    7  A    between atoms: C_14  and  P_15
REMARK    8  A    between atoms: P_15  and  O_17
REMARK    9  A    between atoms: P_15  and  O_19
REMARK                            x       y       z     vdW  Elec       q    Type
REMARK                         _______ _______ _______ _____ _____    ______ ____
ROOT
ATOM      1  S   UNL     1      33.706 -24.433 -14.372  0.00  0.00    +0.068 S 
ATOM      2  O   UNL     1      33.849 -23.970 -12.956  0.00  0.00    -0.251 OA
ENDROOT
BRANCH   1   3
ATOM      3  C   UNL     1      32.019 -24.034 -14.871  0.00  0.00    +0.090 C 
ATOM      4  C   UNL     1      30.931 -24.499 -14.140  0.00  0.00    +0.142 C 
ATOM      5  C   UNL     1      31.825 -23.252 -16.006  0.00  0.00    +0.012 C 
ATOM      6  C   UNL     1      29.636 -24.178 -14.547  0.00  0.00    +0.037 C 
ATOM      7  C   UNL     1      30.529 -22.931 -16.412  0.00  0.00    +0.001 C 
ATOM      8  C   UNL     1      29.435 -23.395 -15.683  0.00  0.00    +0.003 C 
BRANCH   4   9
ATOM      9  O   UNL     1      31.095 -25.269 -13.027  0.00  0.00    -0.505 OA
ATOM     10  H   UNL     1      30.698 -26.116 -12.980  0.00  0.00    +0.292 HD
ENDBRANCH   4   9
ENDBRANCH   1   3
BRANCH   1  11
ATOM     11  C   UNL     1      34.542 -23.205 -15.420  0.00  0.00    +0.096 C 
BRANCH  11  12
ATOM     12  C   UNL     1      35.896 -22.793 -14.852  0.00  0.00    +0.015 C 
BRANCH  12  13
ATOM     13  C   UNL     1      37.036 -23.715 -15.296  0.00  0.00    +0.014 C 
BRANCH  13  14
ATOM     14  C   UNL     1      37.568 -24.564 -14.148  0.00  0.00    +0.116 C 
BRANCH  14  15
ATOM     15  P   UNL     1      37.621 -26.332 -14.512  0.00  0.00    +0.337 P 
ATOM     16  O   UNL     1      38.999 -26.862 -14.700  0.00  0.00    -0.258 OA
BRANCH  15  17
ATOM     17  O   UNL     1      36.633 -26.457 -15.776  0.00  0.00    -0.324 OA
ATOM     18  H   UNL     1      36.918 -25.843 -16.471  0.00  0.00    +0.220 HD
ENDBRANCH  15  17
BRANCH  15  19
ATOM     19  O   UNL     1      36.778 -26.963 -13.295  0.00  0.00    -0.324 OA
ATOM     20  H   UNL     1      36.785 -26.349 -12.544  0.00  0.00    +0.220 HD
ENDBRANCH  15  19
ENDBRANCH  14  15
ENDBRANCH  13  14
ENDBRANCH  12  13
ENDBRANCH  11  12
ENDBRANCH   1  11
TORSDOF 9
ENDMDL
MODEL 9
REMARK VINA RESULT:      -7.1      3.852      5.835
REMARK  Name = 9543426
REMARK  9 active torsions:
REMARK  status: ('A' for Active; 'I' for Inactive)
REMARK    1  A    between atoms: S_1  and  C_3
REMARK    2  A    between atoms: S_1  and  C_11
REMARK    3  A    between atoms: C_4  and  O_9
REMARK    4  A    between atoms: C_11  and  C_12
REMARK    5  A    between atoms: C_12  and  C_13
REMARK    6  A    between atoms: C_13  and  C_14
REMARK    7  A    between atoms: C_14  and  P_15
REMARK    8  A    between atoms: P_15  and  O_17
REMARK    9  A    between atoms: P_15  and  O_19
REMARK                            x       y       z     vdW  Elec       q    Type
REMARK                         _______ _______ _______ _____ _____    ______ ____
ROOT
ATOM      1  S   UNL     1      33.844 -22.697 -18.802  0.00  0.00    +0.068 S 
ATOM      2  O   UNL     1      32.479 -22.228 -18.404  0.00  0.00    -0.251 OA
ENDROOT
BRANCH   1   3
ATOM      3  C   UNL     1      34.623 -21.322 -19.672  0.00  0.00    +0.090 C 
ATOM      4  C   UNL     1      33.864 -20.438 -20.432  0.00  0.00    +0.142 C 
ATOM      5  C   UNL     1      36.001 -21.160 -19.570  0.00  0.00    +0.012 C 
ATOM      6  C   UNL     1      34.489 -19.383 -21.097  0.00  0.00    +0.037 C 
ATOM      7  C   UNL     1      36.627 -20.104 -20.234  0.00  0.00    +0.001 C 
ATOM      8  C   UNL     1      35.870 -19.216 -20.998  0.00  0.00    +0.003 C 
BRANCH   4   9
ATOM      9  O   UNL     1      32.512 -20.576 -20.550  0.00  0.00    -0.505 OA
ATOM     10  H   UNL     1      32.026 -19.983 -21.087  0.00  0.00    +0.292 HD
ENDBRANCH   4   9
ENDBRANCH   1   3
BRANCH   1  11
ATOM     11  C   UNL     1      34.885 -22.632 -17.312  0.00  0.00    +0.096 C 
BRANCH  11  12
ATOM     12  C   UNL     1      34.495 -23.698 -16.294  0.00  0.00    +0.015 C 
BRANCH  12  13
ATOM     13  C   UNL     1      33.568 -23.165 -15.197  0.00  0.00    +0.014 C 
BRANCH  13  14
ATOM     14  C   UNL     1      32.683 -24.259 -14.611  0.00  0.00    +0.116 C 
BRANCH  14  15
ATOM     15  P   UNL     1      31.284 -23.632 -13.656  0.00  0.00    +0.337 P 
ATOM     16  O   UNL     1      30.286 -22.891 -14.475  0.00  0.00    -0.258 OA
BRANCH  15  17
ATOM     17  O   UNL     1      32.008 -22.793 -12.489  0.00  0.00    -0.324 OA
ATOM     18  H   UNL     1      31.804 -23.193 -11.629  0.00  0.00    +0.220 HD
ENDBRANCH  15  17
BRANCH  15  19
ATOM     19  O   UNL     1      30.750 -24.955 -12.911  0.00  0.00    -0.324 OA
ATOM     20  H   UNL     1      30.443 -25.596 -13.572  0.00  0.00    +0.220 HD
ENDBRANCH  15  19
ENDBRANCH  14  15
ENDBRANCH  13  14
ENDBRANCH  12  13
ENDBRANCH  11  12
ENDBRANCH   1  11
TORSDOF 9
ENDMDL
