MODEL 1
REMARK VINA RESULT:      -8.2      0.000      0.000
REMARK  Name = 446623
REMARK  5 active torsions:
REMARK  status: ('A' for Active; 'I' for Inactive)
REMARK    1  A    between atoms: C_5  and  C_19
REMARK    2  A    between atoms: C_9  and  N_16
REMARK    3  A    between atoms: C_19  and  S_20
REMARK    4  A    between atoms: S_20  and  C_21
REMARK    5  A    between atoms: C_21  and  C_22
REMARK                            x       y       z     vdW  Elec       q    Type
REMARK                         _______ _______ _______ _____ _____    ______ ____
ROOT
ATOM      1  O   UNL     1      34.604 -18.483 -25.608  0.00  0.00    -0.209 OA
ATOM      2  N   UNL     1      33.716 -14.855 -24.160  0.00  0.00    -0.275 N 
ATOM      3  N   UNL     1      33.796 -16.374 -25.992  0.00  0.00    -0.302 NA
ATOM      4  N   UNL     1      32.997 -14.184 -26.232  0.00  0.00    -0.320 N 
ATOM      5  C   UNL     1      34.461 -15.488 -21.924  0.00  0.00    +0.004 C 
ATOM      6  C   UNL     1      34.244 -15.792 -23.270  0.00  0.00    +0.060 C 
ATOM      7  C   UNL     1      34.565 -17.070 -23.746  0.00  0.00    +0.109 C 
ATOM      8  C   UNL     1      34.991 -16.451 -21.065  0.00  0.00    +0.012 C 
ATOM      9  C   UNL     1      35.309 -17.722 -21.546  0.00  0.00    +0.042 C 
ATOM     10  C   UNL     1      35.097 -18.036 -22.888  0.00  0.00    +0.028 C 
ATOM     11  C   UNL     1      34.324 -17.365 -25.185  0.00  0.00    +0.208 C 
ATOM     12  C   UNL     1      33.521 -15.203 -25.478  0.00  0.00    +0.248 C 
ATOM     13  H   UNL     1      33.484 -13.951 -23.847  0.00  0.00    +0.156 HD
ATOM     14  H   UNL     1      32.800 -13.314 -25.816  0.00  0.00    +0.146 HD
ATOM     15  H   UNL     1      32.817 -14.322 -27.190  0.00  0.00    +0.146 HD
ENDROOT
BRANCH   9  16
ATOM     16  N   UNL     1      35.845 -18.691 -20.672  0.00  0.00    -0.357 N 
ATOM     17  H   UNL     1      36.605 -19.247 -20.960  0.00  0.00    +0.142 HD
ATOM     18  H   UNL     1      35.458 -18.812 -19.774  0.00  0.00    +0.142 HD
ENDBRANCH   9  16
BRANCH   5  19
ATOM     19  C   UNL     1      34.135 -14.139 -21.367  0.00  0.00    +0.085 C 
BRANCH  19  20
ATOM     20  S   UNL     1      32.382 -13.983 -20.913  0.00  0.00    -0.135 S 
BRANCH  20  21
ATOM     21  C   UNL     1      31.967 -12.573 -21.966  0.00  0.00    +0.058 C 
BRANCH  21  22
ATOM     22  C   UNL     1      31.164 -11.541 -21.182  0.00  0.00    +0.012 C 
ATOM     23  C   UNL     1      31.601 -11.498 -19.725  0.00  0.00    +0.001 C 
ENDBRANCH  21  22
ENDBRANCH  20  21
ENDBRANCH  19  20
ENDBRANCH   5  19
TORSDOF 5
ENDMDL
MODEL 2
REMARK VINA RESULT:      -8.0      8.535     10.795
REMARK  Name = 446623
REMARK  5 active torsions:
REMARK  status: ('A' for Active; 'I' for Inactive)
REMARK    1  A    between atoms: C_5  and  C_19
REMARK    2  A    between atoms: C_9  and  N_16
REMARK    3  A    between atoms: C_19  and  S_20
REMARK    4  A    between atoms: S_20  and  C_21
REMARK    5  A    between atoms: C_21  and  C_22
REMARK                            x       y       z     vdW  Elec       q    Type
REMARK                         _______ _______ _______ _____ _____    ______ ____
ROOT
ATOM      1  O   UNL     1      30.810 -23.859 -12.974  0.00  0.00    -0.209 OA
ATOM      2  N   UNL     1      31.120 -22.907 -16.853  0.00  0.00    -0.275 N 
ATOM      3  N   UNL     1      29.770 -23.245 -14.921  0.00  0.00    -0.302 NA
ATOM      4  N   UNL     1      28.848 -22.619 -16.982  0.00  0.00    -0.320 N 
ATOM      5  C   UNL     1      33.543 -23.194 -16.802  0.00  0.00    +0.004 C 
ATOM      6  C   UNL     1      32.298 -23.213 -16.169  0.00  0.00    +0.060 C 
ATOM      7  C   UNL     1      32.223 -23.550 -14.812  0.00  0.00    +0.109 C 
ATOM      8  C   UNL     1      34.698 -23.507 -16.085  0.00  0.00    +0.012 C 
ATOM      9  C   UNL     1      34.616 -23.841 -14.733  0.00  0.00    +0.042 C 
ATOM     10  C   UNL     1      33.378 -23.865 -14.091  0.00  0.00    +0.028 C 
ATOM     11  C   UNL     1      30.882 -23.563 -14.163  0.00  0.00    +0.208 C 
ATOM     12  C   UNL     1      29.917 -22.941 -16.184  0.00  0.00    +0.248 C 
ATOM     13  H   UNL     1      31.149 -22.668 -17.808  0.00  0.00    +0.156 HD
ATOM     14  H   UNL     1      28.991 -22.393 -17.930  0.00  0.00    +0.146 HD
ATOM     15  H   UNL     1      27.938 -22.611 -16.607  0.00  0.00    +0.146 HD
ENDROOT
BRANCH   9  16
ATOM     16  N   UNL     1      35.788 -24.157 -14.013  0.00  0.00    -0.357 N 
ATOM     17  H   UNL     1      36.632 -24.320 -14.494  0.00  0.00    +0.142 HD
ATOM     18  H   UNL     1      35.762 -24.214 -13.031  0.00  0.00    +0.142 HD
ENDBRANCH   9  16
BRANCH   5  19
ATOM     19  C   UNL     1      33.676 -22.841 -18.249  0.00  0.00    +0.085 C 
BRANCH  19  20
ATOM     20  S   UNL     1      35.290 -22.099 -18.635  0.00  0.00    -0.135 S 
BRANCH  20  21
ATOM     21  C   UNL     1      34.745 -20.943 -19.912  0.00  0.00    +0.058 C 
BRANCH  21  22
ATOM     22  C   UNL     1      33.228 -20.789 -19.880  0.00  0.00    +0.012 C 
ATOM     23  C   UNL     1      32.770 -19.685 -20.822  0.00  0.00    +0.001 C 
ENDBRANCH  21  22
ENDBRANCH  20  21
ENDBRANCH  19  20
ENDBRANCH   5  19
TORSDOF 5
ENDMDL
MODEL 3
REMARK VINA RESULT:      -7.8      9.475     12.511
REMARK  Name = 446623
REMARK  5 active torsions:
REMARK  status: ('A' for Active; 'I' for Inactive)
REMARK    1  A    between atoms: C_5  and  C_19
REMARK    2  A    between atoms: C_9  and  N_16
REMARK    3  A    between atoms: C_19  and  S_20
REMARK    4  A    between atoms: S_20  and  C_21
REMARK    5  A    between atoms: C_21  and  C_22
REMARK                            x       y       z     vdW  Elec       q    Type
REMARK                         _______ _______ _______ _____ _____    ______ ____
ROOT
ATOM      1  O   UNL     1      36.986 -26.465 -12.059  0.00  0.00    -0.209 OA
ATOM      2  N   UNL     1      38.403 -24.420 -15.199  0.00  0.00    -0.275 N 
ATOM      3  N   UNL     1      38.728 -26.041 -13.486  0.00  0.00    -0.302 NA
ATOM      4  N   UNL     1      40.418 -25.500 -15.017  0.00  0.00    -0.320 N 
ATOM      5  C   UNL     1      36.291 -23.225 -15.463  0.00  0.00    +0.004 C 
ATOM      6  C   UNL     1      37.090 -24.161 -14.801  0.00  0.00    +0.060 C 
ATOM      7  C   UNL     1      36.566 -24.860 -13.706  0.00  0.00    +0.109 C 
ATOM      8  C   UNL     1      34.984 -22.993 -15.034  0.00  0.00    +0.012 C 
ATOM      9  C   UNL     1      34.468 -23.693 -13.943  0.00  0.00    +0.042 C 
ATOM     10  C   UNL     1      35.257 -24.628 -13.274  0.00  0.00    +0.028 C 
ATOM     11  C   UNL     1      37.440 -25.850 -13.020  0.00  0.00    +0.208 C 
ATOM     12  C   UNL     1      39.150 -25.352 -14.514  0.00  0.00    +0.248 C 
ATOM     13  H   UNL     1      38.792 -23.940 -15.966  0.00  0.00    +0.156 HD
ATOM     14  H   UNL     1      40.706 -24.967 -15.793  0.00  0.00    +0.146 HD
ATOM     15  H   UNL     1      41.040 -26.142 -14.604  0.00  0.00    +0.146 HD
ENDROOT
BRANCH   9  16
ATOM     16  N   UNL     1      33.145 -23.452 -13.515  0.00  0.00    -0.357 N 
ATOM     17  H   UNL     1      32.839 -23.795 -12.644  0.00  0.00    +0.142 HD
ATOM     18  H   UNL     1      32.527 -22.943 -14.088  0.00  0.00    +0.142 HD
ENDBRANCH   9  16
BRANCH   5  19
ATOM     19  C   UNL     1      36.804 -22.453 -16.636  0.00  0.00    +0.085 C 
BRANCH  19  20
ATOM     20  S   UNL     1      35.531 -22.201 -17.908  0.00  0.00    -0.135 S 
BRANCH  20  21
ATOM     21  C   UNL     1      36.540 -21.302 -19.109  0.00  0.00    +0.058 C 
BRANCH  21  22
ATOM     22  C   UNL     1      35.677 -20.797 -20.260  0.00  0.00    +0.012 C 
ATOM     23  C   UNL     1      34.197 -20.895 -19.918  0.00  0.00    +0.001 C 
ENDBRANCH  21  22
ENDBRANCH  20  21
ENDBRANCH  19  20
ENDBRANCH   5  19
TORSDOF 5
ENDMDL
MODEL 4
REMARK VINA RESULT:      -7.7      1.083      3.587
REMARK  Name = 446623
REMARK  5 active torsions:
REMARK  status: ('A' for Active; 'I' for Inactive)
REMARK    1  A    between atoms: C_5  and  C_19
REMARK    2  A    between atoms: C_9  and  N_16
REMARK    3  A    between atoms: C_19  and  S_20
REMARK    4  A    between atoms: S_20  and  C_21
REMARK    5  A    between atoms: C_21  and  C_22
REMARK                            x       y       z     vdW  Elec       q    Type
REMARK                         _______ _______ _______ _____ _____    ______ ____
ROOT
ATOM      1  O   UNL     1      34.784 -19.243 -25.053  0.00  0.00    -0.209 OA
ATOM      2  N   UNL     1      34.981 -16.817 -21.872  0.00  0.00    -0.275 N 
ATOM      3  N   UNL     1      35.331 -18.961 -22.846  0.00  0.00    -0.302 NA
ATOM      4  N   UNL     1      35.839 -18.523 -20.601  0.00  0.00    -0.320 N 
ATOM      5  C   UNL     1      34.072 -14.948 -23.152  0.00  0.00    +0.004 C 
ATOM      6  C   UNL     1      34.487 -16.279 -23.062  0.00  0.00    +0.060 C 
ATOM      7  C   UNL     1      34.406 -17.102 -24.192  0.00  0.00    +0.109 C 
ATOM      8  C   UNL     1      33.583 -14.448 -24.359  0.00  0.00    +0.012 C 
ATOM      9  C   UNL     1      33.505 -15.273 -25.481  0.00  0.00    +0.042 C 
ATOM     10  C   UNL     1      33.915 -16.604 -25.402  0.00  0.00    +0.028 C 
ATOM     11  C   UNL     1      34.854 -18.516 -24.066  0.00  0.00    +0.208 C 
ATOM     12  C   UNL     1      35.377 -18.135 -21.833  0.00  0.00    +0.248 C 
ATOM     13  H   UNL     1      35.047 -16.257 -21.065  0.00  0.00    +0.156 HD
ATOM     14  H   UNL     1      35.863 -17.877 -19.858  0.00  0.00    +0.146 HD
ATOM     15  H   UNL     1      36.149 -19.446 -20.460  0.00  0.00    +0.146 HD
ENDROOT
BRANCH   9  16
ATOM     16  N   UNL     1      33.009 -14.761 -26.699  0.00  0.00    -0.357 N 
ATOM     17  H   UNL     1      32.578 -15.363 -27.348  0.00  0.00    +0.142 HD
ATOM     18  H   UNL     1      33.096 -13.800 -26.900  0.00  0.00    +0.142 HD
ENDBRANCH   9  16
BRANCH   5  19
ATOM     19  C   UNL     1      34.139 -14.029 -21.975  0.00  0.00    +0.085 C 
BRANCH  19  20
ATOM     20  S   UNL     1      32.532 -13.848 -21.146  0.00  0.00    -0.135 S 
BRANCH  20  21
ATOM     21  C   UNL     1      32.010 -12.305 -21.929  0.00  0.00    +0.058 C 
BRANCH  21  22
ATOM     22  C   UNL     1      31.005 -11.572 -21.046  0.00  0.00    +0.012 C 
ATOM     23  C   UNL     1      31.569 -11.340 -19.652  0.00  0.00    +0.001 C 
ENDBRANCH  21  22
ENDBRANCH  20  21
ENDBRANCH  19  20
ENDBRANCH   5  19
TORSDOF 5
ENDMDL
MODEL 5
REMARK VINA RESULT:      -7.7      9.665     11.888
REMARK  Name = 446623
REMARK  5 active torsions:
REMARK  status: ('A' for Active; 'I' for Inactive)
REMARK    1  A    between atoms: C_5  and  C_19
REMARK    2  A    between atoms: C_9  and  N_16
REMARK    3  A    between atoms: C_19  and  S_20
REMARK    4  A    between atoms: S_20  and  C_21
REMARK    5  A    between atoms: C_21  and  C_22
REMARK                            x       y       z     vdW  Elec       q    Type
REMARK                         _______ _______ _______ _____ _____    ______ ____
ROOT
ATOM      1  O   UNL     1      37.047 -23.315 -16.079  0.00  0.00    -0.209 OA
ATOM      2  N   UNL     1      33.878 -23.668 -13.654  0.00  0.00    -0.275 N 
ATOM      3  N   UNL     1      36.237 -23.706 -13.971  0.00  0.00    -0.302 NA
ATOM      4  N   UNL     1      35.263 -24.089 -11.875  0.00  0.00    -0.320 N 
ATOM      5  C   UNL     1      32.334 -23.229 -15.492  0.00  0.00    +0.004 C 
ATOM      6  C   UNL     1      33.632 -23.384 -14.998  0.00  0.00    +0.060 C 
ATOM      7  C   UNL     1      34.719 -23.255 -15.872  0.00  0.00    +0.109 C 
ATOM      8  C   UNL     1      32.128 -22.946 -16.843  0.00  0.00    +0.012 C 
ATOM      9  C   UNL     1      33.216 -22.818 -17.707  0.00  0.00    +0.042 C 
ATOM     10  C   UNL     1      34.515 -22.973 -17.225  0.00  0.00    +0.028 C 
ATOM     11  C   UNL     1      36.090 -23.426 -15.318  0.00  0.00    +0.208 C 
ATOM     12  C   UNL     1      35.175 -23.813 -13.216  0.00  0.00    +0.248 C 
ATOM     13  H   UNL     1      33.129 -23.764 -13.022  0.00  0.00    +0.156 HD
ATOM     14  H   UNL     1      34.445 -24.163 -11.332  0.00  0.00    +0.146 HD
ATOM     15  H   UNL     1      36.145 -24.212 -11.454  0.00  0.00    +0.146 HD
ENDROOT
BRANCH   9  16
ATOM     16  N   UNL     1      33.000 -22.533 -19.072  0.00  0.00    -0.357 N 
ATOM     17  H   UNL     1      33.583 -21.891 -19.539  0.00  0.00    +0.142 HD
ATOM     18  H   UNL     1      32.266 -22.975 -19.557  0.00  0.00    +0.142 HD
ENDBRANCH   9  16
BRANCH   5  19
ATOM     19  C   UNL     1      31.140 -23.357 -14.601  0.00  0.00    +0.085 C 
BRANCH  19  20
ATOM     20  S   UNL     1      30.470 -25.046 -14.581  0.00  0.00    -0.135 S 
BRANCH  20  21
ATOM     21  C   UNL     1      28.878 -24.702 -15.365  0.00  0.00    +0.058 C 
BRANCH  21  22
ATOM     22  C   UNL     1      28.700 -23.202 -15.576  0.00  0.00    +0.012 C 
ATOM     23  C   UNL     1      28.130 -22.907 -16.956  0.00  0.00    +0.001 C 
ENDBRANCH  21  22
ENDBRANCH  20  21
ENDBRANCH  19  20
ENDBRANCH   5  19
TORSDOF 5
ENDMDL
MODEL 6
REMARK VINA RESULT:      -7.5     10.325     12.823
REMARK  Name = 446623
REMARK  5 active torsions:
REMARK  status: ('A' for Active; 'I' for Inactive)
REMARK    1  A    between atoms: C_5  and  C_19
REMARK    2  A    between atoms: C_9  and  N_16
REMARK    3  A    between atoms: C_19  and  S_20
REMARK    4  A    between atoms: S_20  and  C_21
REMARK    5  A    between atoms: C_21  and  C_22
REMARK                            x       y       z     vdW  Elec       q    Type
REMARK                         _______ _______ _______ _____ _____    ______ ____
ROOT
ATOM      1  O   UNL     1      31.861 -22.868 -17.312  0.00  0.00    -0.209 OA
ATOM      2  N   UNL     1      32.981 -24.612 -13.884  0.00  0.00    -0.275 N 
ATOM      3  N   UNL     1      31.264 -24.025 -15.427  0.00  0.00    -0.302 NA
ATOM      4  N   UNL     1      30.807 -25.204 -13.454  0.00  0.00    -0.320 N 
ATOM      5  C   UNL     1      35.317 -24.020 -14.264  0.00  0.00    +0.004 C 
ATOM      6  C   UNL     1      33.977 -24.016 -14.659  0.00  0.00    +0.060 C 
ATOM      7  C   UNL     1      33.618 -23.398 -15.863  0.00  0.00    +0.109 C 
ATOM      8  C   UNL     1      36.285 -23.413 -15.066  0.00  0.00    +0.012 C 
ATOM      9  C   UNL     1      35.920 -22.800 -16.265  0.00  0.00    +0.042 C 
ATOM     10  C   UNL     1      34.585 -22.789 -16.668  0.00  0.00    +0.028 C 
ATOM     11  C   UNL     1      32.182 -23.409 -16.258  0.00  0.00    +0.208 C 
ATOM     12  C   UNL     1      31.674 -24.581 -14.316  0.00  0.00    +0.248 C 
ATOM     13  H   UNL     1      33.210 -25.051 -13.034  0.00  0.00    +0.156 HD
ATOM     14  H   UNL     1      31.145 -25.615 -12.626  0.00  0.00    +0.146 HD
ATOM     15  H   UNL     1      29.846 -25.242 -13.664  0.00  0.00    +0.146 HD
ENDROOT
BRANCH   9  16
ATOM     16  N   UNL     1      36.904 -22.188 -17.070  0.00  0.00    -0.357 N 
ATOM     17  H   UNL     1      37.408 -22.724 -17.724  0.00  0.00    +0.142 HD
ATOM     18  H   UNL     1      37.086 -21.224 -16.978  0.00  0.00    +0.142 HD
ENDBRANCH   9  16
BRANCH   5  19
ATOM     19  C   UNL     1      35.752 -24.666 -12.988  0.00  0.00    +0.085 C 
BRANCH  19  20
ATOM     20  S   UNL     1      36.549 -23.491 -11.854  0.00  0.00    -0.135 S 
BRANCH  20  21
ATOM     21  C   UNL     1      38.245 -24.099 -12.000  0.00  0.00    +0.058 C 
BRANCH  21  22
ATOM     22  C   UNL     1      38.263 -25.475 -12.657  0.00  0.00    +0.012 C 
ATOM     23  C   UNL     1      39.312 -25.542 -13.758  0.00  0.00    +0.001 C 
ENDBRANCH  21  22
ENDBRANCH  20  21
ENDBRANCH  19  20
ENDBRANCH   5  19
TORSDOF 5
ENDMDL
MODEL 7
REMARK VINA RESULT:      -7.4      9.696     12.611
REMARK  Name = 446623
REMARK  5 active torsions:
REMARK  status: ('A' for Active; 'I' for Inactive)
REMARK    1  A    between atoms: C_5  and  C_19
REMARK    2  A    between atoms: C_9  and  N_16
REMARK    3  A    between atoms: C_19  and  S_20
REMARK    4  A    between atoms: S_20  and  C_21
REMARK    5  A    between atoms: C_21  and  C_22
REMARK                            x       y       z     vdW  Elec       q    Type
REMARK                         _______ _______ _______ _____ _____    ______ ____
ROOT
ATOM      1  O   UNL     1      29.832 -22.834 -16.981  0.00  0.00    -0.209 OA
ATOM      2  N   UNL     1      32.171 -24.312 -14.085  0.00  0.00    -0.275 N 
ATOM      3  N   UNL     1      29.997 -23.808 -14.913  0.00  0.00    -0.302 NA
ATOM      4  N   UNL     1      30.324 -24.802 -12.817  0.00  0.00    -0.320 N 
ATOM      5  C   UNL     1      34.189 -23.824 -15.368  0.00  0.00    +0.004 C 
ATOM      6  C   UNL     1      32.798 -23.814 -15.228  0.00  0.00    +0.060 C 
ATOM      7  C   UNL     1      32.008 -23.291 -16.258  0.00  0.00    +0.109 C 
ATOM      8  C   UNL     1      34.779 -23.316 -16.526  0.00  0.00    +0.012 C 
ATOM      9  C   UNL     1      33.985 -22.796 -17.549  0.00  0.00    +0.042 C 
ATOM     10  C   UNL     1      32.596 -22.781 -17.419  0.00  0.00    +0.028 C 
ATOM     11  C   UNL     1      30.530 -23.293 -16.081  0.00  0.00    +0.208 C 
ATOM     12  C   UNL     1      30.798 -24.280 -13.994  0.00  0.00    +0.248 C 
ATOM     13  H   UNL     1      32.707 -24.685 -13.347  0.00  0.00    +0.156 HD
ATOM     14  H   UNL     1      30.952 -25.151 -12.143  0.00  0.00    +0.146 HD
ATOM     15  H   UNL     1      29.355 -24.830 -12.645  0.00  0.00    +0.146 HD
ENDROOT
BRANCH   9  16
ATOM     16  N   UNL     1      34.589 -22.284 -18.717  0.00  0.00    -0.357 N 
ATOM     17  H   UNL     1      34.282 -21.428 -19.095  0.00  0.00    +0.142 HD
ATOM     18  H   UNL     1      35.316 -22.784 -19.154  0.00  0.00    +0.142 HD
ENDBRANCH   9  16
BRANCH   5  19
ATOM     19  C   UNL     1      35.076 -24.372 -14.297  0.00  0.00    +0.085 C 
BRANCH  19  20
ATOM     20  S   UNL     1      36.337 -25.503 -14.955  0.00  0.00    -0.135 S 
BRANCH  20  21
ATOM     21  C   UNL     1      37.799 -24.509 -14.578  0.00  0.00    +0.058 C 
BRANCH  21  22
ATOM     22  C   UNL     1      38.640 -25.184 -13.499  0.00  0.00    +0.012 C 
ATOM     23  C   UNL     1      39.991 -25.616 -14.049  0.00  0.00    +0.001 C 
ENDBRANCH  21  22
ENDBRANCH  20  21
ENDBRANCH  19  20
ENDBRANCH   5  19
TORSDOF 5
ENDMDL
MODEL 8
REMARK VINA RESULT:      -7.3      8.977     10.994
REMARK  Name = 446623
REMARK  5 active torsions:
REMARK  status: ('A' for Active; 'I' for Inactive)
REMARK    1  A    between atoms: C_5  and  C_19
REMARK    2  A    between atoms: C_9  and  N_16
REMARK    3  A    between atoms: C_19  and  S_20
REMARK    4  A    between atoms: S_20  and  C_21
REMARK    5  A    between atoms: C_21  and  C_22
REMARK                            x       y       z     vdW  Elec       q    Type
REMARK                         _______ _______ _______ _____ _____    ______ ____
ROOT
ATOM      1  O   UNL     1      37.044 -22.278 -16.971  0.00  0.00    -0.209 OA
ATOM      2  N   UNL     1      33.138 -22.919 -17.588  0.00  0.00    -0.275 N 
ATOM      3  N   UNL     1      35.257 -22.203 -18.404  0.00  0.00    -0.302 NA
ATOM      4  N   UNL     1      33.340 -22.182 -19.751  0.00  0.00    -0.320 N 
ATOM      5  C   UNL     1      32.836 -23.717 -15.301  0.00  0.00    +0.004 C 
ATOM      6  C   UNL     1      33.647 -23.216 -16.323  0.00  0.00    +0.060 C 
ATOM      7  C   UNL     1      35.009 -23.003 -16.075  0.00  0.00    +0.109 C 
ATOM      8  C   UNL     1      33.382 -24.001 -14.049  0.00  0.00    +0.012 C 
ATOM      9  C   UNL     1      34.740 -23.786 -13.810  0.00  0.00    +0.042 C 
ATOM     10  C   UNL     1      35.558 -23.285 -14.822  0.00  0.00    +0.028 C 
ATOM     11  C   UNL     1      35.850 -22.468 -17.182  0.00  0.00    +0.208 C 
ATOM     12  C   UNL     1      33.979 -22.427 -18.561  0.00  0.00    +0.248 C 
ATOM     13  H   UNL     1      32.184 -23.061 -17.784  0.00  0.00    +0.156 HD
ATOM     14  H   UNL     1      32.376 -22.361 -19.839  0.00  0.00    +0.146 HD
ATOM     15  H   UNL     1      33.846 -21.828 -20.517  0.00  0.00    +0.146 HD
ENDROOT
BRANCH   9  16
ATOM     16  N   UNL     1      35.285 -24.075 -12.541  0.00  0.00    -0.357 N 
ATOM     17  H   UNL     1      35.357 -23.365 -11.862  0.00  0.00    +0.142 HD
ATOM     18  H   UNL     1      35.594 -24.987 -12.335  0.00  0.00    +0.142 HD
ENDBRANCH   9  16
BRANCH   5  19
ATOM     19  C   UNL     1      31.377 -23.962 -15.515  0.00  0.00    +0.085 C 
BRANCH  19  20
ATOM     20  S   UNL     1      30.656 -25.019 -14.224  0.00  0.00    -0.135 S 
BRANCH  20  21
ATOM     21  C   UNL     1      28.932 -24.948 -14.763  0.00  0.00    +0.058 C 
BRANCH  21  22
ATOM     22  C   UNL     1      28.814 -24.171 -16.070  0.00  0.00    +0.012 C 
ATOM     23  C   UNL     1      27.877 -22.981 -15.915  0.00  0.00    +0.001 C 
ENDBRANCH  21  22
ENDBRANCH  20  21
ENDBRANCH  19  20
ENDBRANCH   5  19
TORSDOF 5
ENDMDL
MODEL 9
REMARK VINA RESULT:      -7.3      3.165      5.624
REMARK  Name = 446623
REMARK  5 active torsions:
REMARK  status: ('A' for Active; 'I' for Inactive)
REMARK    1  A    between atoms: C_5  and  C_19
REMARK    2  A    between atoms: C_9  and  N_16
REMARK    3  A    between atoms: C_19  and  S_20
REMARK    4  A    between atoms: S_20  and  C_21
REMARK    5  A    between atoms: C_21  and  C_22
REMARK                            x       y       z     vdW  Elec       q    Type
REMARK                         _______ _______ _______ _____ _____    ______ ____
ROOT
ATOM      1  O   UNL     1      34.093 -16.060 -25.644  0.00  0.00    -0.209 OA
ATOM      2  N   UNL     1      34.966 -19.368 -23.561  0.00  0.00    -0.275 N 
ATOM      3  N   UNL     1      34.491 -18.317 -25.643  0.00  0.00    -0.302 NA
ATOM      4  N   UNL     1      34.915 -20.616 -25.485  0.00  0.00    -0.320 N 
ATOM      5  C   UNL     1      35.039 -18.116 -21.467  0.00  0.00    +0.004 C 
ATOM      6  C   UNL     1      34.856 -18.171 -22.852  0.00  0.00    +0.060 C 
ATOM      7  C   UNL     1      34.552 -16.997 -23.551  0.00  0.00    +0.109 C 
ATOM      8  C   UNL     1      34.921 -16.900 -20.793  0.00  0.00    +0.012 C 
ATOM      9  C   UNL     1      34.617 -15.734 -21.497  0.00  0.00    +0.042 C 
ATOM     10  C   UNL     1      34.431 -15.778 -22.879  0.00  0.00    +0.028 C 
ATOM     11  C   UNL     1      34.361 -17.086 -25.025  0.00  0.00    +0.208 C 
ATOM     12  C   UNL     1      34.776 -19.371 -24.924  0.00  0.00    +0.248 C 
ATOM     13  H   UNL     1      35.179 -20.206 -23.089  0.00  0.00    +0.156 HD
ATOM     14  H   UNL     1      35.131 -21.391 -24.918  0.00  0.00    +0.146 HD
ATOM     15  H   UNL     1      34.800 -20.735 -26.455  0.00  0.00    +0.146 HD
ENDROOT
BRANCH   9  16
ATOM     16  N   UNL     1      34.498 -14.508 -20.809  0.00  0.00    -0.357 N 
ATOM     17  H   UNL     1      34.565 -13.658 -21.302  0.00  0.00    +0.142 HD
ATOM     18  H   UNL     1      34.349 -14.502 -19.836  0.00  0.00    +0.142 HD
ENDBRANCH   9  16
BRANCH   5  19
ATOM     19  C   UNL     1      35.366 -19.341 -20.675  0.00  0.00    +0.085 C 
BRANCH  19  20
ATOM     20  S   UNL     1      33.895 -20.348 -20.320  0.00  0.00    -0.135 S 
BRANCH  20  21
ATOM     21  C   UNL     1      34.712 -21.697 -19.437  0.00  0.00    +0.058 C 
BRANCH  21  22
ATOM     22  C   UNL     1      36.210 -21.436 -19.332  0.00  0.00    +0.012 C 
ATOM     23  C   UNL     1      36.701 -21.630 -17.905  0.00  0.00    +0.001 C 
ENDBRANCH  21  22
ENDBRANCH  20  21
ENDBRANCH  19  20
ENDBRANCH   5  19
TORSDOF 5
ENDMDL
