MODEL 1
REMARK VINA RESULT:      -6.0      0.000      0.000
REMARK  Name = 65249
REMARK  5 active torsions:
REMARK  status: ('A' for Active; 'I' for Inactive)
REMARK    1  A    between atoms: CA_1  and  N_3
REMARK    2  A    between atoms: CA_1  and  C_8
REMARK    3  A    between atoms: CA_1  and  CB_11
REMARK    4  A    between atoms: C_8  and  O_9
REMARK    5  A    between atoms: CB_11  and  OG_12
REMARK                            x       y       z     vdW  Elec       q    Type
REMARK                         _______ _______ _______ _____ _____    ______ ____
ROOT
ATOM      1  CA  SER A   1      38.705 -25.432 -14.466  0.00  0.00    +0.201 C 
ENDROOT
BRANCH   1   3
ATOM      2  O   UNK A   0      36.893 -23.192 -14.102  0.00  0.00    -0.275 OA
ATOM      3  N   SER A   1      38.411 -24.380 -15.408  0.00  0.00    -0.295 N 
ATOM      4  C   UNK A   0      37.527 -23.347 -15.143  0.00  0.00    +0.223 C 
ATOM      5  C   UNK A   0      37.425 -22.373 -16.286  0.00  0.00    +0.095 C 
ATOM      6  H   SER A   1      38.861 -24.398 -16.284  0.00  0.00    +0.150 HD
ENDBRANCH   1   3
BRANCH   1   8
ATOM      7  OXT SER A   1      40.909 -26.335 -13.962  0.00  0.00    -0.248 OA
ATOM      8  C   SER A   1      40.089 -25.953 -14.788  0.00  0.00    +0.334 C 
BRANCH   8   9
ATOM      9  O   SER A   1      40.353 -25.904 -16.120  0.00  0.00    -0.479 OA
ATOM     10  H   SER A   1      40.220 -25.107 -16.596  0.00  0.00    +0.295 HD
ENDBRANCH   8   9
ENDBRANCH   1   8
BRANCH   1  11
ATOM     11  CB  SER A   1      37.681 -26.555 -14.541  0.00  0.00    +0.168 C 
BRANCH  11  12
ATOM     12  OG  SER A   1      37.386 -26.828 -15.906  0.00  0.00    -0.380 OA
ATOM     13  H   SER A   1      37.175 -25.999 -16.363  0.00  0.00    +0.211 HD
ENDBRANCH  11  12
ENDBRANCH   1  11
TORSDOF 5
ENDMDL
MODEL 2
REMARK VINA RESULT:      -5.7      2.006      2.287
REMARK  Name = 65249
REMARK  5 active torsions:
REMARK  status: ('A' for Active; 'I' for Inactive)
REMARK    1  A    between atoms: CA_1  and  N_3
REMARK    2  A    between atoms: CA_1  and  C_8
REMARK    3  A    between atoms: CA_1  and  CB_11
REMARK    4  A    between atoms: C_8  and  O_9
REMARK    5  A    between atoms: CB_11  and  OG_12
REMARK                            x       y       z     vdW  Elec       q    Type
REMARK                         _______ _______ _______ _____ _____    ______ ____
ROOT
ATOM      1  CA  SER A   1      38.681 -25.661 -13.970  0.00  0.00    +0.201 C 
ENDROOT
BRANCH   1   3
ATOM      2  O   UNK A   0      37.929 -24.967 -11.253  0.00  0.00    -0.275 OA
ATOM      3  N   SER A   1      38.125 -24.414 -13.506  0.00  0.00    -0.295 N 
ATOM      4  C   UNK A   0      37.797 -24.174 -12.182  0.00  0.00    +0.223 C 
ATOM      5  C   UNK A   0      37.260 -22.784 -11.967  0.00  0.00    +0.095 C 
ATOM      6  H   SER A   1      37.972 -23.697 -14.163  0.00  0.00    +0.150 HD
ENDBRANCH   1   3
BRANCH   1   8
ATOM      7  OXT SER A   1      40.564 -26.042 -15.465  0.00  0.00    -0.248 OA
ATOM      8  C   SER A   1      39.627 -25.339 -15.106  0.00  0.00    +0.334 C 
BRANCH   8   9
ATOM      9  O   SER A   1      39.353 -24.133 -15.669  0.00  0.00    -0.479 OA
ATOM     10  H   SER A   1      39.359 -23.357 -15.143  0.00  0.00    +0.295 HD
ENDBRANCH   8   9
ENDBRANCH   1   8
BRANCH   1  11
ATOM     11  CB  SER A   1      37.595 -26.621 -14.435  0.00  0.00    +0.168 C 
BRANCH  11  12
ATOM     12  OG  SER A   1      37.556 -26.629 -15.856  0.00  0.00    -0.380 OA
ATOM     13  H   SER A   1      37.090 -25.839 -16.172  0.00  0.00    +0.211 HD
ENDBRANCH  11  12
ENDBRANCH   1  11
TORSDOF 5
ENDMDL
MODEL 3
REMARK VINA RESULT:      -5.3      2.941      4.608
REMARK  Name = 65249
REMARK  5 active torsions:
REMARK  status: ('A' for Active; 'I' for Inactive)
REMARK    1  A    between atoms: CA_1  and  N_3
REMARK    2  A    between atoms: CA_1  and  C_8
REMARK    3  A    between atoms: CA_1  and  CB_11
REMARK    4  A    between atoms: C_8  and  O_9
REMARK    5  A    between atoms: CB_11  and  OG_12
REMARK                            x       y       z     vdW  Elec       q    Type
REMARK                         _______ _______ _______ _____ _____    ______ ____
ROOT
ATOM      1  CA  SER A   1      36.636 -23.863 -12.474  0.00  0.00    +0.201 C 
ENDROOT
BRANCH   1   3
ATOM      2  O   UNK A   0      38.296 -23.659 -14.848  0.00  0.00    -0.275 OA
ATOM      3  N   SER A   1      36.262 -23.334 -13.763  0.00  0.00    -0.295 N 
ATOM      4  C   UNK A   0      37.128 -23.278 -14.843  0.00  0.00    +0.223 C 
ATOM      5  C   UNK A   0      36.475 -22.704 -16.071  0.00  0.00    +0.095 C 
ATOM      6  H   SER A   1      35.345 -22.995 -13.880  0.00  0.00    +0.150 HD
ENDBRANCH   1   3
BRANCH   1   8
ATOM      7  OXT SER A   1      35.292 -25.087 -10.856  0.00  0.00    -0.248 OA
ATOM      8  C   SER A   1      35.362 -24.272 -11.767  0.00  0.00    +0.334 C 
BRANCH   8   9
ATOM      9  O   SER A   1      34.270 -23.661 -12.295  0.00  0.00    -0.479 OA
ATOM     10  H   SER A   1      34.327 -23.237 -13.130  0.00  0.00    +0.295 HD
ENDBRANCH   8   9
ENDBRANCH   1   8
BRANCH   1  11
ATOM     11  CB  SER A   1      37.402 -22.840 -11.648  0.00  0.00    +0.168 C 
BRANCH  11  12
ATOM     12  OG  SER A   1      38.791 -23.134 -11.712  0.00  0.00    -0.380 OA
ATOM     13  H   SER A   1      39.218 -22.859 -10.885  0.00  0.00    +0.211 HD
ENDBRANCH  11  12
ENDBRANCH   1  11
TORSDOF 5
ENDMDL
MODEL 4
REMARK VINA RESULT:      -5.3      2.800      3.582
REMARK  Name = 65249
REMARK  5 active torsions:
REMARK  status: ('A' for Active; 'I' for Inactive)
REMARK    1  A    between atoms: CA_1  and  N_3
REMARK    2  A    between atoms: CA_1  and  C_8
REMARK    3  A    between atoms: CA_1  and  CB_11
REMARK    4  A    between atoms: C_8  and  O_9
REMARK    5  A    between atoms: CB_11  and  OG_12
REMARK                            x       y       z     vdW  Elec       q    Type
REMARK                         _______ _______ _______ _____ _____    ______ ____
ROOT
ATOM      1  CA  SER A   1      36.841 -24.244 -12.963  0.00  0.00    +0.201 C 
ENDROOT
BRANCH   1   3
ATOM      2  O   UNK A   0      35.944 -24.190 -15.724  0.00  0.00    -0.275 OA
ATOM      3  N   SER A   1      37.340 -23.413 -14.031  0.00  0.00    -0.295 N 
ATOM      4  C   UNK A   0      36.846 -23.458 -15.324  0.00  0.00    +0.223 C 
ATOM      5  C   UNK A   0      37.526 -22.470 -16.232  0.00  0.00    +0.095 C 
ATOM      6  H   SER A   1      38.069 -22.782 -13.830  0.00  0.00    +0.150 HD
ENDBRANCH   1   3
BRANCH   1   8
ATOM      7  OXT SER A   1      36.796 -23.900 -10.553  0.00  0.00    -0.248 OA
ATOM      8  C   SER A   1      37.214 -23.574 -11.658  0.00  0.00    +0.334 C 
BRANCH   8   9
ATOM      9  O   SER A   1      38.042 -22.514 -11.849  0.00  0.00    -0.479 OA
ATOM     10  H   SER A   1      38.966 -22.650 -11.932  0.00  0.00    +0.295 HD
ENDBRANCH   8   9
ENDBRANCH   1   8
BRANCH   1  11
ATOM     11  CB  SER A   1      37.422 -25.649 -13.027  0.00  0.00    +0.168 C 
BRANCH  11  12
ATOM     12  OG  SER A   1      36.832 -26.445 -12.006  0.00  0.00    -0.380 OA
ATOM     13  H   SER A   1      35.985 -26.799 -12.321  0.00  0.00    +0.211 HD
ENDBRANCH  11  12
ENDBRANCH   1  11
TORSDOF 5
ENDMDL
MODEL 5
REMARK VINA RESULT:      -5.3      3.474      4.538
REMARK  Name = 65249
REMARK  5 active torsions:
REMARK  status: ('A' for Active; 'I' for Inactive)
REMARK    1  A    between atoms: CA_1  and  N_3
REMARK    2  A    between atoms: CA_1  and  C_8
REMARK    3  A    between atoms: CA_1  and  CB_11
REMARK    4  A    between atoms: C_8  and  O_9
REMARK    5  A    between atoms: CB_11  and  OG_12
REMARK                            x       y       z     vdW  Elec       q    Type
REMARK                         _______ _______ _______ _____ _____    ______ ____
ROOT
ATOM      1  CA  SER A   1      36.649 -23.927 -12.865  0.00  0.00    +0.201 C 
ENDROOT
BRANCH   1   3
ATOM      2  O   UNK A   0      35.865 -24.774 -15.529  0.00  0.00    -0.275 OA
ATOM      3  N   SER A   1      35.579 -23.397 -13.674  0.00  0.00    -0.295 N 
ATOM      4  C   UNK A   0      35.278 -23.869 -14.941  0.00  0.00    +0.223 C 
ATOM      5  C   UNK A   0      34.101 -23.157 -15.552  0.00  0.00    +0.095 C 
ATOM      6  H   SER A   1      35.036 -22.662 -13.307  0.00  0.00    +0.150 HD
ENDBRANCH   1   3
BRANCH   1   8
ATOM      7  OXT SER A   1      34.957 -24.884 -11.400  0.00  0.00    -0.248 OA
ATOM      8  C   SER A   1      36.048 -24.972 -11.950  0.00  0.00    +0.334 C 
BRANCH   8   9
ATOM      9  O   SER A   1      36.888 -26.023 -11.758  0.00  0.00    -0.479 OA
ATOM     10  H   SER A   1      36.570 -26.900 -11.852  0.00  0.00    +0.295 HD
ENDBRANCH   8   9
ENDBRANCH   1   8
BRANCH   1  11
ATOM     11  CB  SER A   1      37.334 -22.837 -12.054  0.00  0.00    +0.168 C 
BRANCH  11  12
ATOM     12  OG  SER A   1      37.204 -23.133 -10.669  0.00  0.00    -0.380 OA
ATOM     13  H   SER A   1      36.666 -23.932 -10.559  0.00  0.00    +0.211 HD
ENDBRANCH  11  12
ENDBRANCH   1  11
TORSDOF 5
ENDMDL
MODEL 6
REMARK VINA RESULT:      -5.3      1.727      2.558
REMARK  Name = 65249
REMARK  5 active torsions:
REMARK  status: ('A' for Active; 'I' for Inactive)
REMARK    1  A    between atoms: CA_1  and  N_3
REMARK    2  A    between atoms: CA_1  and  C_8
REMARK    3  A    between atoms: CA_1  and  CB_11
REMARK    4  A    between atoms: C_8  and  O_9
REMARK    5  A    between atoms: CB_11  and  OG_12
REMARK                            x       y       z     vdW  Elec       q    Type
REMARK                         _______ _______ _______ _____ _____    ______ ____
ROOT
ATOM      1  CA  SER A   1      38.400 -25.758 -14.603  0.00  0.00    +0.201 C 
ENDROOT
BRANCH   1   3
ATOM      2  O   UNK A   0      35.761 -24.971 -15.526  0.00  0.00    -0.275 OA
ATOM      3  N   SER A   1      37.963 -24.438 -14.987  0.00  0.00    -0.295 N 
ATOM      4  C   UNK A   0      36.676 -24.158 -15.417  0.00  0.00    +0.223 C 
ATOM      5  C   UNK A   0      36.482 -22.699 -15.731  0.00  0.00    +0.095 C 
ATOM      6  H   SER A   1      38.613 -23.700 -14.943  0.00  0.00    +0.150 HD
ENDBRANCH   1   3
BRANCH   1   8
ATOM      7  OXT SER A   1      38.236 -25.568 -12.182  0.00  0.00    -0.248 OA
ATOM      8  C   SER A   1      37.824 -26.043 -13.233  0.00  0.00    +0.334 C 
BRANCH   8   9
ATOM      9  O   SER A   1      36.806 -26.942 -13.286  0.00  0.00    -0.479 OA
ATOM     10  H   SER A   1      36.942 -27.781 -13.682  0.00  0.00    +0.295 HD
ENDBRANCH   8   9
ENDBRANCH   1   8
BRANCH   1  11
ATOM     11  CB  SER A   1      39.917 -25.863 -14.578  0.00  0.00    +0.168 C 
BRANCH  11  12
ATOM     12  OG  SER A   1      40.405 -25.902 -15.913  0.00  0.00    -0.380 OA
ATOM     13  H   SER A   1      40.962 -26.687 -16.031  0.00  0.00    +0.211 HD
ENDBRANCH  11  12
ENDBRANCH   1  11
TORSDOF 5
ENDMDL
MODEL 7
REMARK VINA RESULT:      -5.3      2.562      3.383
REMARK  Name = 65249
REMARK  5 active torsions:
REMARK  status: ('A' for Active; 'I' for Inactive)
REMARK    1  A    between atoms: CA_1  and  N_3
REMARK    2  A    between atoms: CA_1  and  C_8
REMARK    3  A    between atoms: CA_1  and  CB_11
REMARK    4  A    between atoms: C_8  and  O_9
REMARK    5  A    between atoms: CB_11  and  OG_12
REMARK                            x       y       z     vdW  Elec       q    Type
REMARK                         _______ _______ _______ _____ _____    ______ ____
ROOT
ATOM      1  CA  SER A   1      37.518 -25.500 -14.001  0.00  0.00    +0.201 C 
ENDROOT
BRANCH   1   3
ATOM      2  O   UNK A   0      37.973 -24.391 -11.357  0.00  0.00    -0.275 OA
ATOM      3  N   SER A   1      36.525 -25.137 -13.020  0.00  0.00    -0.295 N 
ATOM      4  C   UNK A   0      36.841 -24.612 -11.777  0.00  0.00    +0.223 C 
ATOM      5  C   UNK A   0      35.616 -24.299 -10.960  0.00  0.00    +0.095 C 
ATOM      6  H   SER A   1      35.576 -25.271 -13.244  0.00  0.00    +0.150 HD
ENDBRANCH   1   3
BRANCH   1   8
ATOM      7  OXT SER A   1      36.439 -24.080 -15.658  0.00  0.00    -0.248 OA
ATOM      8  C   SER A   1      37.461 -24.466 -15.105  0.00  0.00    +0.334 C 
BRANCH   8   9
ATOM      9  O   SER A   1      38.699 -24.034 -15.461  0.00  0.00    -0.479 OA
ATOM     10  H   SER A   1      38.972 -24.080 -16.356  0.00  0.00    +0.295 HD
ENDBRANCH   8   9
ENDBRANCH   1   8
BRANCH   1  11
ATOM     11  CB  SER A   1      37.272 -26.893 -14.561  0.00  0.00    +0.168 C 
BRANCH  11  12
ATOM     12  OG  SER A   1      37.287 -26.835 -15.982  0.00  0.00    -0.380 OA
ATOM     13  H   SER A   1      36.442 -26.483 -16.300  0.00  0.00    +0.211 HD
ENDBRANCH  11  12
ENDBRANCH   1  11
TORSDOF 5
ENDMDL
MODEL 8
REMARK VINA RESULT:      -5.2      1.907      3.928
REMARK  Name = 65249
REMARK  5 active torsions:
REMARK  status: ('A' for Active; 'I' for Inactive)
REMARK    1  A    between atoms: CA_1  and  N_3
REMARK    2  A    between atoms: CA_1  and  C_8
REMARK    3  A    between atoms: CA_1  and  CB_11
REMARK    4  A    between atoms: C_8  and  O_9
REMARK    5  A    between atoms: CB_11  and  OG_12
REMARK                            x       y       z     vdW  Elec       q    Type
REMARK                         _______ _______ _______ _____ _____    ______ ____
ROOT
ATOM      1  CA  SER A   1      36.945 -24.331 -14.850  0.00  0.00    +0.201 C 
ENDROOT
BRANCH   1   3
ATOM      2  O   UNK A   0      38.745 -25.503 -12.896  0.00  0.00    -0.275 OA
ATOM      3  N   SER A   1      38.262 -24.870 -15.084  0.00  0.00    -0.295 N 
ATOM      4  C   UNK A   0      39.051 -25.412 -14.082  0.00  0.00    +0.223 C 
ATOM      5  C   UNK A   0      40.367 -25.923 -14.603  0.00  0.00    +0.095 C 
ATOM      6  H   SER A   1      38.619 -24.851 -16.002  0.00  0.00    +0.150 HD
ENDBRANCH   1   3
BRANCH   1   8
ATOM      7  OXT SER A   1      36.113 -26.413 -15.798  0.00  0.00    -0.248 OA
ATOM      8  C   SER A   1      35.955 -25.458 -15.047  0.00  0.00    +0.334 C 
BRANCH   8   9
ATOM      9  O   SER A   1      34.821 -25.271 -14.323  0.00  0.00    -0.479 OA
ATOM     10  H   SER A   1      34.347 -26.009 -13.994  0.00  0.00    +0.295 HD
ENDBRANCH   8   9
ENDBRANCH   1   8
BRANCH   1  11
ATOM     11  CB  SER A   1      36.635 -23.176 -15.791  0.00  0.00    +0.168 C 
BRANCH  11  12
ATOM     12  OG  SER A   1      35.450 -23.473 -16.519  0.00  0.00    -0.380 OA
ATOM     13  H   SER A   1      35.592 -23.281 -17.460  0.00  0.00    +0.211 HD
ENDBRANCH  11  12
ENDBRANCH   1  11
TORSDOF 5
ENDMDL
MODEL 9
REMARK VINA RESULT:      -5.2      8.866     11.145
REMARK  Name = 65249
REMARK  5 active torsions:
REMARK  status: ('A' for Active; 'I' for Inactive)
REMARK    1  A    between atoms: CA_1  and  N_3
REMARK    2  A    between atoms: CA_1  and  C_8
REMARK    3  A    between atoms: CA_1  and  CB_11
REMARK    4  A    between atoms: C_8  and  O_9
REMARK    5  A    between atoms: CB_11  and  OG_12
REMARK                            x       y       z     vdW  Elec       q    Type
REMARK                         _______ _______ _______ _____ _____    ______ ____
ROOT
ATOM      1  CA  SER A   1      34.991 -17.475 -21.667  0.00  0.00    +0.201 C 
ENDROOT
BRANCH   1   3
ATOM      2  O   UNK A   0      35.508 -19.973 -20.279  0.00  0.00    -0.275 OA
ATOM      3  N   SER A   1      34.032 -18.487 -21.296  0.00  0.00    -0.295 N 
ATOM      4  C   UNK A   0      34.376 -19.653 -20.631  0.00  0.00    +0.223 C 
ATOM      5  C   UNK A   0      33.181 -20.522 -20.344  0.00  0.00    +0.095 C 
ATOM      6  H   SER A   1      33.086 -18.342 -21.528  0.00  0.00    +0.150 HD
ENDBRANCH   1   3
BRANCH   1   8
ATOM      7  OXT SER A   1      34.939 -15.568 -20.155  0.00  0.00    -0.248 OA
ATOM      8  C   SER A   1      34.484 -16.154 -21.129  0.00  0.00    +0.334 C 
BRANCH   8   9
ATOM      9  O   SER A   1      33.411 -15.700 -21.829  0.00  0.00    -0.479 OA
ATOM     10  H   SER A   1      32.826 -16.307 -22.238  0.00  0.00    +0.295 HD
ENDBRANCH   8   9
ENDBRANCH   1   8
BRANCH   1  11
ATOM     11  CB  SER A   1      35.176 -17.403 -23.175  0.00  0.00    +0.168 C 
BRANCH  11  12
ATOM     12  OG  SER A   1      35.688 -16.122 -23.522  0.00  0.00    -0.380 OA
ATOM     13  H   SER A   1      36.305 -16.211 -24.265  0.00  0.00    +0.211 HD
ENDBRANCH  11  12
ENDBRANCH   1  11
TORSDOF 5
ENDMDL
