MODEL 1
REMARK VINA RESULT:      -6.4      0.000      0.000
REMARK  Name = 70807
REMARK  4 active torsions:
REMARK  status: ('A' for Active; 'I' for Inactive)
REMARK    1  A    between atoms: N_2  and  C_8
REMARK    2  A    between atoms: C_8  and  C_9
REMARK    3  A    between atoms: C_9  and  C_10
REMARK    4  A    between atoms: C_10  and  S_11
REMARK                            x       y       z     vdW  Elec       q    Type
REMARK                         _______ _______ _______ _____ _____    ______ ____
ROOT
ATOM      1  O   UNL     1      35.160 -15.772 -22.939  0.00  0.00    -0.358 OA
ATOM      2  N   UNL     1      34.752 -18.439 -22.030  0.00  0.00    +0.390 N 
ATOM      3  C   UNL     1      35.144 -17.364 -21.107  0.00  0.00    -0.045 C 
ATOM      4  C   UNL     1      35.263 -18.155 -23.379  0.00  0.00    -0.045 C 
ATOM      5  C   UNL     1      34.639 -16.022 -21.632  0.00  0.00    +0.119 C 
ATOM      6  C   UNL     1      34.757 -16.795 -23.850  0.00  0.00    +0.119 C 
ATOM      7  H   UNL     1      33.734 -18.480 -22.070  0.00  0.00    -0.079 HD
ENDROOT
BRANCH   2   8
ATOM      8  C   UNL     1      35.235 -19.733 -21.553  0.00  0.00    -0.075 C 
BRANCH   8   9
ATOM      9  C   UNL     1      34.309 -20.277 -20.468  0.00  0.00    +0.003 C 
BRANCH   9  10
ATOM     10  C   UNL     1      35.034 -21.275 -19.578  0.00  0.00    +0.156 C 
BRANCH  10  11
ATOM     11  S   UNL     1      33.942 -22.537 -19.004  0.00  0.00    +0.022 S 
ATOM     12  O   UNL     1      34.651 -22.790 -17.558  0.00  0.00    -0.069 OA
ATOM     13  O   UNL     1      34.119 -23.722 -19.824  0.00  0.00    -0.069 OA
ATOM     14  O   UNL     1      32.629 -21.955 -18.784  0.00  0.00    -0.069 OA
ENDBRANCH  10  11
ENDBRANCH   9  10
ENDBRANCH   8   9
ENDBRANCH   2   8
TORSDOF 4
ENDMDL
MODEL 2
REMARK VINA RESULT:      -6.4      9.099     10.242
REMARK  Name = 70807
REMARK  4 active torsions:
REMARK  status: ('A' for Active; 'I' for Inactive)
REMARK    1  A    between atoms: N_2  and  C_8
REMARK    2  A    between atoms: C_8  and  C_9
REMARK    3  A    between atoms: C_9  and  C_10
REMARK    4  A    between atoms: C_10  and  S_11
REMARK                            x       y       z     vdW  Elec       q    Type
REMARK                         _______ _______ _______ _____ _____    ______ ____
ROOT
ATOM      1  O   UNL     1      38.249 -27.181 -14.631  0.00  0.00    -0.358 OA
ATOM      2  N   UNL     1      37.497 -24.484 -15.147  0.00  0.00    +0.390 N 
ATOM      3  C   UNL     1      38.722 -24.812 -14.404  0.00  0.00    -0.045 C 
ATOM      4  C   UNL     1      36.492 -25.539 -14.952  0.00  0.00    -0.045 C 
ATOM      5  C   UNL     1      39.244 -26.178 -14.843  0.00  0.00    +0.119 C 
ATOM      6  C   UNL     1      37.067 -26.888 -15.377  0.00  0.00    +0.119 C 
ATOM      7  H   UNL     1      37.723 -24.431 -16.141  0.00  0.00    -0.079 HD
ENDROOT
BRANCH   2   8
ATOM      8  C   UNL     1      36.972 -23.184 -14.736  0.00  0.00    -0.075 C 
BRANCH   8   9
ATOM      9  C   UNL     1      35.918 -23.360 -13.645  0.00  0.00    +0.003 C 
BRANCH   9  10
ATOM     10  C   UNL     1      36.534 -23.226 -12.261  0.00  0.00    +0.156 C 
BRANCH  10  11
ATOM     11  S   UNL     1      36.096 -24.589 -11.227  0.00  0.00    +0.022 S 
ATOM     12  O   UNL     1      34.570 -24.782 -11.765  0.00  0.00    -0.069 OA
ATOM     13  O   UNL     1      36.052 -24.137  -9.848  0.00  0.00    -0.069 OA
ATOM     14  O   UNL     1      36.880 -25.746 -11.622  0.00  0.00    -0.069 OA
ENDBRANCH  10  11
ENDBRANCH   9  10
ENDBRANCH   8   9
ENDBRANCH   2   8
TORSDOF 4
ENDMDL
MODEL 3
REMARK VINA RESULT:      -6.4      6.290      8.108
REMARK  Name = 70807
REMARK  4 active torsions:
REMARK  status: ('A' for Active; 'I' for Inactive)
REMARK    1  A    between atoms: N_2  and  C_8
REMARK    2  A    between atoms: C_8  and  C_9
REMARK    3  A    between atoms: C_9  and  C_10
REMARK    4  A    between atoms: C_10  and  S_11
REMARK                            x       y       z     vdW  Elec       q    Type
REMARK                         _______ _______ _______ _____ _____    ______ ____
ROOT
ATOM      1  O   UNL     1      34.524 -23.520 -17.201  0.00  0.00    -0.358 OA
ATOM      2  N   UNL     1      32.271 -22.981 -15.546  0.00  0.00    +0.390 N 
ATOM      3  C   UNL     1      33.469 -23.650 -15.020  0.00  0.00    -0.045 C 
ATOM      4  C   UNL     1      32.121 -23.271 -16.979  0.00  0.00    -0.045 C 
ATOM      5  C   UNL     1      34.696 -23.215 -15.816  0.00  0.00    +0.119 C 
ATOM      6  C   UNL     1      33.380 -22.847 -17.730  0.00  0.00    +0.119 C 
ATOM      7  H   UNL     1      32.381 -21.974 -15.429  0.00  0.00    -0.079 HD
ENDROOT
BRANCH   2   8
ATOM      8  C   UNL     1      31.080 -23.391 -14.806  0.00  0.00    -0.075 C 
BRANCH   8   9
ATOM      9  C   UNL     1      30.147 -24.196 -15.707  0.00  0.00    +0.003 C 
BRANCH   9  10
ATOM     10  C   UNL     1      28.690 -23.963 -15.335  0.00  0.00    +0.156 C 
BRANCH  10  11
ATOM     11  S   UNL     1      27.891 -22.904 -16.499  0.00  0.00    +0.022 S 
ATOM     12  O   UNL     1      27.595 -24.029 -17.642  0.00  0.00    -0.069 OA
ATOM     13  O   UNL     1      28.861 -21.956 -17.017  0.00  0.00    -0.069 OA
ATOM     14  O   UNL     1      26.624 -22.465 -15.939  0.00  0.00    -0.069 OA
ENDBRANCH  10  11
ENDBRANCH   9  10
ENDBRANCH   8   9
ENDBRANCH   2   8
TORSDOF 4
ENDMDL
MODEL 4
REMARK VINA RESULT:      -6.2      6.992      9.162
REMARK  Name = 70807
REMARK  4 active torsions:
REMARK  status: ('A' for Active; 'I' for Inactive)
REMARK    1  A    between atoms: N_2  and  C_8
REMARK    2  A    between atoms: C_8  and  C_9
REMARK    3  A    between atoms: C_9  and  C_10
REMARK    4  A    between atoms: C_10  and  S_11
REMARK                            x       y       z     vdW  Elec       q    Type
REMARK                         _______ _______ _______ _____ _____    ______ ____
ROOT
ATOM      1  O   UNL     1      35.339 -22.951 -16.721  0.00  0.00    -0.358 OA
ATOM      2  N   UNL     1      37.041 -24.120 -14.761  0.00  0.00    +0.390 N 
ATOM      3  C   UNL     1      37.553 -23.162 -15.751  0.00  0.00    -0.045 C 
ATOM      4  C   UNL     1      35.891 -24.850 -15.315  0.00  0.00    -0.045 C 
ATOM      5  C   UNL     1      36.436 -22.214 -16.179  0.00  0.00    +0.119 C 
ATOM      6  C   UNL     1      34.814 -23.863 -15.755  0.00  0.00    +0.119 C 
ATOM      7  H   UNL     1      36.732 -23.605 -13.937  0.00  0.00    -0.079 HD
ENDROOT
BRANCH   2   8
ATOM      8  C   UNL     1      38.091 -25.047 -14.344  0.00  0.00    -0.075 C 
BRANCH   8   9
ATOM      9  C   UNL     1      38.452 -24.813 -12.879  0.00  0.00    +0.003 C 
BRANCH   9  10
ATOM     10  C   UNL     1      37.299 -25.195 -11.963  0.00  0.00    +0.156 C 
BRANCH  10  11
ATOM     11  S   UNL     1      36.628 -23.780 -11.149  0.00  0.00    +0.022 S 
ATOM     12  O   UNL     1      35.372 -23.531 -12.158  0.00  0.00    -0.069 OA
ATOM     13  O   UNL     1      37.560 -22.675 -11.282  0.00  0.00    -0.069 OA
ATOM     14  O   UNL     1      36.112 -24.186  -9.854  0.00  0.00    -0.069 OA
ENDBRANCH  10  11
ENDBRANCH   9  10
ENDBRANCH   8   9
ENDBRANCH   2   8
TORSDOF 4
ENDMDL
MODEL 5
REMARK VINA RESULT:      -6.1      6.170      8.008
REMARK  Name = 70807
REMARK  4 active torsions:
REMARK  status: ('A' for Active; 'I' for Inactive)
REMARK    1  A    between atoms: N_2  and  C_8
REMARK    2  A    between atoms: C_8  and  C_9
REMARK    3  A    between atoms: C_9  and  C_10
REMARK    4  A    between atoms: C_10  and  S_11
REMARK                            x       y       z     vdW  Elec       q    Type
REMARK                         _______ _______ _______ _____ _____    ______ ____
ROOT
ATOM      1  O   UNL     1      34.775 -22.660 -17.376  0.00  0.00    -0.358 OA
ATOM      2  N   UNL     1      32.549 -23.707 -15.942  0.00  0.00    +0.390 N 
ATOM      3  C   UNL     1      32.375 -22.982 -17.208  0.00  0.00    -0.045 C 
ATOM      4  C   UNL     1      33.755 -23.230 -15.250  0.00  0.00    -0.045 C 
ATOM      5  C   UNL     1      33.624 -23.142 -18.072  0.00  0.00    +0.119 C 
ATOM      6  C   UNL     1      34.971 -23.383 -16.159  0.00  0.00    +0.119 C 
ATOM      7  H   UNL     1      32.664 -24.700 -16.148  0.00  0.00    -0.079 HD
ENDROOT
BRANCH   2   8
ATOM      8  C   UNL     1      31.370 -23.559 -15.093  0.00  0.00    -0.075 C 
BRANCH   8   9
ATOM      9  C   UNL     1      30.178 -24.286 -15.710  0.00  0.00    +0.003 C 
BRANCH   9  10
ATOM     10  C   UNL     1      28.863 -23.723 -15.192  0.00  0.00    +0.156 C 
BRANCH  10  11
ATOM     11  S   UNL     1      27.864 -23.104 -16.508  0.00  0.00    +0.022 S 
ATOM     12  O   UNL     1      28.877 -21.928 -17.009  0.00  0.00    -0.069 OA
ATOM     13  O   UNL     1      26.675 -22.488 -15.948  0.00  0.00    -0.069 OA
ATOM     14  O   UNL     1      27.777 -24.117 -17.546  0.00  0.00    -0.069 OA
ENDBRANCH  10  11
ENDBRANCH   9  10
ENDBRANCH   8   9
ENDBRANCH   2   8
TORSDOF 4
ENDMDL
MODEL 6
REMARK VINA RESULT:      -6.1      6.780      9.073
REMARK  Name = 70807
REMARK  4 active torsions:
REMARK  status: ('A' for Active; 'I' for Inactive)
REMARK    1  A    between atoms: N_2  and  C_8
REMARK    2  A    between atoms: C_8  and  C_9
REMARK    3  A    between atoms: C_9  and  C_10
REMARK    4  A    between atoms: C_10  and  S_11
REMARK                            x       y       z     vdW  Elec       q    Type
REMARK                         _______ _______ _______ _____ _____    ______ ____
ROOT
ATOM      1  O   UNL     1      34.915 -23.089 -17.117  0.00  0.00    -0.358 OA
ATOM      2  N   UNL     1      35.932 -23.839 -14.566  0.00  0.00    +0.390 N 
ATOM      3  C   UNL     1      36.811 -23.312 -15.619  0.00  0.00    -0.045 C 
ATOM      4  C   UNL     1      34.781 -24.527 -15.168  0.00  0.00    -0.045 C 
ATOM      5  C   UNL     1      36.018 -22.389 -16.541  0.00  0.00    +0.119 C 
ATOM      6  C   UNL     1      34.037 -23.576 -16.101  0.00  0.00    +0.119 C 
ATOM      7  H   UNL     1      35.587 -23.058 -14.008  0.00  0.00    -0.079 HD
ENDROOT
BRANCH   2   8
ATOM      8  C   UNL     1      36.667 -24.736 -13.677  0.00  0.00    -0.075 C 
BRANCH   8   9
ATOM      9  C   UNL     1      38.171 -24.562 -13.874  0.00  0.00    +0.003 C 
BRANCH   9  10
ATOM     10  C   UNL     1      38.853 -25.904 -14.096  0.00  0.00    +0.156 C 
BRANCH  10  11
ATOM     11  S   UNL     1      40.512 -25.697 -14.661  0.00  0.00    +0.022 S 
ATOM     12  O   UNL     1      41.186 -26.896 -13.785  0.00  0.00    -0.069 OA
ATOM     13  O   UNL     1      41.018 -24.425 -14.177  0.00  0.00    -0.069 OA
ATOM     14  O   UNL     1      40.576 -26.054 -16.067  0.00  0.00    -0.069 OA
ENDBRANCH  10  11
ENDBRANCH   9  10
ENDBRANCH   8   9
ENDBRANCH   2   8
TORSDOF 4
ENDMDL
MODEL 7
REMARK VINA RESULT:      -5.9      2.740      6.141
REMARK  Name = 70807
REMARK  4 active torsions:
REMARK  status: ('A' for Active; 'I' for Inactive)
REMARK    1  A    between atoms: N_2  and  C_8
REMARK    2  A    between atoms: C_8  and  C_9
REMARK    3  A    between atoms: C_9  and  C_10
REMARK    4  A    between atoms: C_10  and  S_11
REMARK                            x       y       z     vdW  Elec       q    Type
REMARK                         _______ _______ _______ _____ _____    ______ ____
ROOT
ATOM      1  O   UNL     1      35.240 -22.463 -19.360  0.00  0.00    -0.358 OA
ATOM      2  N   UNL     1      34.542 -19.831 -20.192  0.00  0.00    +0.390 N 
ATOM      3  C   UNL     1      33.550 -20.915 -20.158  0.00  0.00    -0.045 C 
ATOM      4  C   UNL     1      35.883 -20.383 -20.432  0.00  0.00    -0.045 C 
ATOM      5  C   UNL     1      33.938 -21.938 -19.094  0.00  0.00    +0.119 C 
ATOM      6  C   UNL     1      36.216 -21.420 -19.363  0.00  0.00    +0.119 C 
ATOM      7  H   UNL     1      34.542 -19.360 -19.288  0.00  0.00    -0.079 HD
ENDROOT
BRANCH   2   8
ATOM      8  C   UNL     1      34.197 -18.843 -21.213  0.00  0.00    -0.075 C 
BRANCH   8   9
ATOM      9  C   UNL     1      35.224 -17.714 -21.225  0.00  0.00    +0.003 C 
BRANCH   9  10
ATOM     10  C   UNL     1      34.905 -16.694 -22.308  0.00  0.00    +0.156 C 
BRANCH  10  11
ATOM     11  S   UNL     1      34.125 -15.262 -21.634  0.00  0.00    +0.022 S 
ATOM     12  O   UNL     1      34.889 -15.262 -20.193  0.00  0.00    -0.069 OA
ATOM     13  O   UNL     1      32.719 -15.549 -21.417  0.00  0.00    -0.069 OA
ATOM     14  O   UNL     1      34.554 -14.097 -22.388  0.00  0.00    -0.069 OA
ENDBRANCH  10  11
ENDBRANCH   9  10
ENDBRANCH   8   9
ENDBRANCH   2   8
TORSDOF 4
ENDMDL
MODEL 8
REMARK VINA RESULT:      -5.9      3.015      4.021
REMARK  Name = 70807
REMARK  4 active torsions:
REMARK  status: ('A' for Active; 'I' for Inactive)
REMARK    1  A    between atoms: N_2  and  C_8
REMARK    2  A    between atoms: C_8  and  C_9
REMARK    3  A    between atoms: C_9  and  C_10
REMARK    4  A    between atoms: C_10  and  S_11
REMARK                            x       y       z     vdW  Elec       q    Type
REMARK                         _______ _______ _______ _____ _____    ______ ____
ROOT
ATOM      1  O   UNL     1      33.646 -13.343 -24.652  0.00  0.00    -0.358 OA
ATOM      2  N   UNL     1      33.875 -16.177 -24.511  0.00  0.00    +0.390 N 
ATOM      3  C   UNL     1      34.671 -15.297 -23.644  0.00  0.00    -0.045 C 
ATOM      4  C   UNL     1      33.566 -15.492 -25.774  0.00  0.00    -0.045 C 
ATOM      5  C   UNL     1      33.922 -13.988 -23.408  0.00  0.00    +0.119 C 
ATOM      6  C   UNL     1      32.845 -14.178 -25.490  0.00  0.00    +0.119 C 
ATOM      7  H   UNL     1      32.999 -16.396 -24.038  0.00  0.00    -0.079 HD
ENDROOT
BRANCH   2   8
ATOM      8  C   UNL     1      34.578 -17.434 -24.760  0.00  0.00    -0.075 C 
BRANCH   8   9
ATOM      9  C   UNL     1      35.343 -17.869 -23.513  0.00  0.00    +0.003 C 
BRANCH   9  10
ATOM     10  C   UNL     1      34.821 -19.197 -22.985  0.00  0.00    +0.156 C 
BRANCH  10  11
ATOM     11  S   UNL     1      34.522 -19.126 -21.247  0.00  0.00    +0.022 S 
ATOM     12  O   UNL     1      33.807 -17.661 -21.213  0.00  0.00    -0.069 OA
ATOM     13  O   UNL     1      35.795 -19.040 -20.554  0.00  0.00    -0.069 OA
ATOM     14  O   UNL     1      33.536 -20.134 -20.899  0.00  0.00    -0.069 OA
ENDBRANCH  10  11
ENDBRANCH   9  10
ENDBRANCH   8   9
ENDBRANCH   2   8
TORSDOF 4
ENDMDL
MODEL 9
REMARK VINA RESULT:      -5.9      7.759      9.577
REMARK  Name = 70807
REMARK  4 active torsions:
REMARK  status: ('A' for Active; 'I' for Inactive)
REMARK    1  A    between atoms: N_2  and  C_8
REMARK    2  A    between atoms: C_8  and  C_9
REMARK    3  A    between atoms: C_9  and  C_10
REMARK    4  A    between atoms: C_10  and  S_11
REMARK                            x       y       z     vdW  Elec       q    Type
REMARK                         _______ _______ _______ _____ _____    ______ ____
ROOT
ATOM      1  O   UNL     1      33.666 -23.115 -15.383  0.00  0.00    -0.358 OA
ATOM      2  N   UNL     1      35.296 -24.809 -13.777  0.00  0.00    +0.390 N 
ATOM      3  C   UNL     1      34.063 -24.206 -13.252  0.00  0.00    -0.045 C 
ATOM      4  C   UNL     1      35.874 -23.948 -14.818  0.00  0.00    -0.045 C 
ATOM      5  C   UNL     1      33.079 -23.962 -14.394  0.00  0.00    +0.119 C 
ATOM      6  C   UNL     1      34.848 -23.709 -15.922  0.00  0.00    +0.119 C 
ATOM      7  H   UNL     1      35.067 -25.712 -14.192  0.00  0.00    -0.079 HD
ENDROOT
BRANCH   2   8
ATOM      8  C   UNL     1      36.258 -25.041 -12.702  0.00  0.00    -0.075 C 
BRANCH   8   9
ATOM      9  C   UNL     1      37.600 -24.399 -13.045  0.00  0.00    +0.003 C 
BRANCH   9  10
ATOM     10  C   UNL     1      38.748 -25.371 -12.815  0.00  0.00    +0.156 C 
BRANCH  10  11
ATOM     11  S   UNL     1      39.628 -25.693 -14.310  0.00  0.00    +0.022 S 
ATOM     12  O   UNL     1      38.597 -26.795 -14.930  0.00  0.00    -0.069 OA
ATOM     13  O   UNL     1      40.879 -26.354 -13.987  0.00  0.00    -0.069 OA
ATOM     14  O   UNL     1      39.591 -24.503 -15.141  0.00  0.00    -0.069 OA
ENDBRANCH  10  11
ENDBRANCH   9  10
ENDBRANCH   8   9
ENDBRANCH   2   8
TORSDOF 4
ENDMDL
