MODEL 1
REMARK VINA RESULT:      -7.5      0.000      0.000
REMARK  Name = 6918881
REMARK  5 active torsions:
REMARK  status: ('A' for Active; 'I' for Inactive)
REMARK    1  A    between atoms: C_1  and  C_3
REMARK    2  A    between atoms: C_1  and  C_9
REMARK    3  A    between atoms: C_1  and  C_14
REMARK    4  A    between atoms: C_9  and  N_10
REMARK    5  A    between atoms: C_14  and  C_17
REMARK                            x       y       z     vdW  Elec       q    Type
REMARK                         _______ _______ _______ _____ _____    ______ ____
ROOT
ATOM      1  C   UNL     1      34.484 -18.518 -21.858  0.00  0.00    +0.012 C 
ENDROOT
BRANCH   1   3
ATOM      2 CL   UNL     1      33.642 -23.128 -18.109  0.00  0.00    -0.082 Cl
ATOM      3  C   UNL     1      34.271 -19.687 -20.906  0.00  0.00    -0.024 C 
ATOM      4  C   UNL     1      35.367 -20.410 -20.483  0.00  0.00    -0.003 C 
ATOM      5  C   UNL     1      32.988 -19.987 -20.497  0.00  0.00    -0.003 C 
ATOM      6  C   UNL     1      35.171 -21.482 -19.611  0.00  0.00    +0.011 C 
ATOM      7  C   UNL     1      32.792 -21.059 -19.625  0.00  0.00    +0.011 C 
ATOM      8  C   UNL     1      33.884 -21.806 -19.183  0.00  0.00    +0.058 C 
ENDBRANCH   1   3
BRANCH   1   9
ATOM      9  C   UNL     1      35.219 -18.942 -23.142  0.00  0.00    -0.081 C 
BRANCH   9  10
ATOM     10  N   UNL     1      35.379 -17.778 -24.051  0.00  0.00    +0.381 N 
ATOM     11  H   UNL     1      35.099 -18.044 -24.995  0.00  0.00    -0.089 HD
ATOM     12  H   UNL     1      36.355 -17.482 -24.057  0.00  0.00    -0.089 HD
ATOM     13  H   UNL     1      34.794 -17.009 -23.727  0.00  0.00    -0.089 HD
ENDBRANCH   9  10
ENDBRANCH   1   9
BRANCH   1  14
ATOM     14  C   UNL     1      35.256 -17.372 -21.177  0.00  0.00    +0.116 C 
BRANCH  14  17
ATOM     15  O   UNL     1      33.675 -15.857 -22.052  0.00  0.00    -0.246 OA
ATOM     16  O   UNL     1      34.872 -15.235 -20.208  0.00  0.00    -0.246 OA
ATOM     17  C   UNL     1      34.538 -16.017 -21.141  0.00  0.00    +0.365 C 
ENDBRANCH  14  17
ENDBRANCH   1  14
TORSDOF 5
ENDMDL
MODEL 2
REMARK VINA RESULT:      -7.5      0.103      1.557
REMARK  Name = 6918881
REMARK  5 active torsions:
REMARK  status: ('A' for Active; 'I' for Inactive)
REMARK    1  A    between atoms: C_1  and  C_3
REMARK    2  A    between atoms: C_1  and  C_9
REMARK    3  A    between atoms: C_1  and  C_14
REMARK    4  A    between atoms: C_9  and  N_10
REMARK    5  A    between atoms: C_14  and  C_17
REMARK                            x       y       z     vdW  Elec       q    Type
REMARK                         _______ _______ _______ _____ _____    ______ ____
ROOT
ATOM      1  C   UNL     1      34.492 -18.430 -21.873  0.00  0.00    +0.012 C 
ENDROOT
BRANCH   1   3
ATOM      2 CL   UNL     1      33.642 -23.103 -18.203  0.00  0.00    -0.082 Cl
ATOM      3  C   UNL     1      34.276 -19.617 -20.944  0.00  0.00    -0.024 C 
ATOM      4  C   UNL     1      32.992 -19.930 -20.551  0.00  0.00    -0.003 C 
ATOM      5  C   UNL     1      35.372 -20.340 -20.522  0.00  0.00    -0.003 C 
ATOM      6  C   UNL     1      32.794 -21.016 -19.698  0.00  0.00    +0.011 C 
ATOM      7  C   UNL     1      35.174 -21.427 -19.668  0.00  0.00    +0.011 C 
ATOM      8  C   UNL     1      33.885 -21.764 -19.257  0.00  0.00    +0.058 C 
ENDBRANCH   1   3
BRANCH   1   9
ATOM      9  C   UNL     1      35.253 -18.824 -23.151  0.00  0.00    -0.081 C 
BRANCH   9  10
ATOM     10  N   UNL     1      35.310 -17.676 -24.091  0.00  0.00    +0.381 N 
ATOM     11  H   UNL     1      36.276 -17.363 -24.187  0.00  0.00    -0.089 HD
ATOM     12  H   UNL     1      34.740 -16.912 -23.730  0.00  0.00    -0.089 HD
ATOM     13  H   UNL     1      34.954 -17.964 -25.002  0.00  0.00    -0.089 HD
ENDBRANCH   9  10
ENDBRANCH   1   9
BRANCH   1  14
ATOM     14  C   UNL     1      35.240 -17.287 -21.160  0.00  0.00    +0.116 C 
BRANCH  14  17
ATOM     15  O   UNL     1      34.864 -15.151 -20.233  0.00  0.00    -0.246 OA
ATOM     16  O   UNL     1      33.751 -15.719 -22.146  0.00  0.00    -0.246 OA
ATOM     17  C   UNL     1      34.542 -15.921 -21.183  0.00  0.00    +0.365 C 
ENDBRANCH  14  17
ENDBRANCH   1  14
TORSDOF 5
ENDMDL
MODEL 3
REMARK VINA RESULT:      -7.0      1.767      2.728
REMARK  Name = 6918881
REMARK  5 active torsions:
REMARK  status: ('A' for Active; 'I' for Inactive)
REMARK    1  A    between atoms: C_1  and  C_3
REMARK    2  A    between atoms: C_1  and  C_9
REMARK    3  A    between atoms: C_1  and  C_14
REMARK    4  A    between atoms: C_9  and  N_10
REMARK    5  A    between atoms: C_14  and  C_17
REMARK                            x       y       z     vdW  Elec       q    Type
REMARK                         _______ _______ _______ _____ _____    ______ ____
ROOT
ATOM      1  C   UNL     1      34.827 -18.101 -21.822  0.00  0.00    +0.012 C 
ENDROOT
BRANCH   1   3
ATOM      2 CL   UNL     1      33.753 -23.017 -18.551  0.00  0.00    -0.082 Cl
ATOM      3  C   UNL     1      34.554 -19.349 -20.994  0.00  0.00    -0.024 C 
ATOM      4  C   UNL     1      33.248 -19.680 -20.699  0.00  0.00    -0.003 C 
ATOM      5  C   UNL     1      35.622 -20.108 -20.563  0.00  0.00    -0.003 C 
ATOM      6  C   UNL     1      32.998 -20.823 -19.938  0.00  0.00    +0.011 C 
ATOM      7  C   UNL     1      35.372 -21.252 -19.802  0.00  0.00    +0.011 C 
ATOM      8  C   UNL     1      34.060 -21.608 -19.490  0.00  0.00    +0.058 C 
ENDBRANCH   1   3
BRANCH   1   9
ATOM      9  C   UNL     1      33.938 -16.918 -21.401  0.00  0.00    -0.081 C 
BRANCH   9  10
ATOM     10  N   UNL     1      34.762 -15.854 -20.771  0.00  0.00    +0.381 N 
ATOM     11  H   UNL     1      34.503 -15.762 -19.789  0.00  0.00    -0.089 HD
ATOM     12  H   UNL     1      34.597 -14.969 -21.250  0.00  0.00    -0.089 HD
ATOM     13  H   UNL     1      35.748 -16.100 -20.842  0.00  0.00    -0.089 HD
ENDBRANCH   9  10
ENDBRANCH   1   9
BRANCH   1  14
ATOM     14  C   UNL     1      34.642 -18.375 -23.327  0.00  0.00    +0.116 C 
BRANCH  14  17
ATOM     15  O   UNL     1      35.533 -16.224 -23.701  0.00  0.00    -0.246 OA
ATOM     16  O   UNL     1      34.596 -17.334 -25.464  0.00  0.00    -0.246 OA
ATOM     17  C   UNL     1      34.946 -17.194 -24.259  0.00  0.00    +0.365 C 
ENDBRANCH  14  17
ENDBRANCH   1  14
TORSDOF 5
ENDMDL
MODEL 4
REMARK VINA RESULT:      -7.0      1.729      2.268
REMARK  Name = 6918881
REMARK  5 active torsions:
REMARK  status: ('A' for Active; 'I' for Inactive)
REMARK    1  A    between atoms: C_1  and  C_3
REMARK    2  A    between atoms: C_1  and  C_9
REMARK    3  A    between atoms: C_1  and  C_14
REMARK    4  A    between atoms: C_9  and  N_10
REMARK    5  A    between atoms: C_14  and  C_17
REMARK                            x       y       z     vdW  Elec       q    Type
REMARK                         _______ _______ _______ _____ _____    ______ ____
ROOT
ATOM      1  C   UNL     1      34.862 -18.403 -21.856  0.00  0.00    +0.012 C 
ENDROOT
BRANCH   1   3
ATOM      2 CL   UNL     1      33.708 -23.112 -18.317  0.00  0.00    -0.082 Cl
ATOM      3  C   UNL     1      34.570 -19.597 -20.957  0.00  0.00    -0.024 C 
ATOM      4  C   UNL     1      35.623 -20.365 -20.506  0.00  0.00    -0.003 C 
ATOM      5  C   UNL     1      33.260 -19.873 -20.623  0.00  0.00    -0.003 C 
ATOM      6  C   UNL     1      35.354 -21.459 -19.683  0.00  0.00    +0.011 C 
ATOM      7  C   UNL     1      32.992 -20.969 -19.800  0.00  0.00    +0.011 C 
ATOM      8  C   UNL     1      34.039 -21.761 -19.331  0.00  0.00    +0.058 C 
ENDBRANCH   1   3
BRANCH   1   9
ATOM      9  C   UNL     1      34.002 -17.180 -21.495  0.00  0.00    -0.081 C 
BRANCH   9  10
ATOM     10  N   UNL     1      34.849 -16.111 -20.906  0.00  0.00    +0.381 N 
ATOM     11  H   UNL     1      35.698 -16.524 -20.521  0.00  0.00    -0.089 HD
ATOM     12  H   UNL     1      34.334 -15.639 -20.163  0.00  0.00    -0.089 HD
ATOM     13  H   UNL     1      35.097 -15.436 -21.629  0.00  0.00    -0.089 HD
ENDBRANCH   9  10
ENDBRANCH   1   9
BRANCH   1  14
ATOM     14  C   UNL     1      34.657 -18.757 -23.342  0.00  0.00    +0.116 C 
BRANCH  14  17
ATOM     15  O   UNL     1      34.295 -17.792 -25.463  0.00  0.00    -0.246 OA
ATOM     16  O   UNL     1      35.427 -16.576 -23.894  0.00  0.00    -0.246 OA
ATOM     17  C   UNL     1      34.817 -17.593 -24.329  0.00  0.00    +0.365 C 
ENDBRANCH  14  17
ENDBRANCH   1  14
TORSDOF 5
ENDMDL
MODEL 5
REMARK VINA RESULT:      -6.9      4.096      5.690
REMARK  Name = 6918881
REMARK  5 active torsions:
REMARK  status: ('A' for Active; 'I' for Inactive)
REMARK    1  A    between atoms: C_1  and  C_3
REMARK    2  A    between atoms: C_1  and  C_9
REMARK    3  A    between atoms: C_1  and  C_14
REMARK    4  A    between atoms: C_9  and  N_10
REMARK    5  A    between atoms: C_14  and  C_17
REMARK                            x       y       z     vdW  Elec       q    Type
REMARK                         _______ _______ _______ _____ _____    ______ ____
ROOT
ATOM      1  C   UNL     1      35.093 -18.368 -21.003  0.00  0.00    +0.012 C 
ENDROOT
BRANCH   1   3
ATOM      2 CL   UNL     1      33.990 -13.090 -23.638  0.00  0.00    -0.082 Cl
ATOM      3  C   UNL     1      34.812 -17.030 -21.672  0.00  0.00    -0.024 C 
ATOM      4  C   UNL     1      34.841 -16.954 -23.048  0.00  0.00    -0.003 C 
ATOM      5  C   UNL     1      34.538 -15.935 -20.879  0.00  0.00    -0.003 C 
ATOM      6  C   UNL     1      34.584 -15.727 -23.661  0.00  0.00    +0.011 C 
ATOM      7  C   UNL     1      34.281 -14.707 -21.492  0.00  0.00    +0.011 C 
ATOM      8  C   UNL     1      34.305 -14.604 -22.883  0.00  0.00    +0.058 C 
ENDBRANCH   1   3
BRANCH   1   9
ATOM      9  C   UNL     1      36.526 -18.861 -21.270  0.00  0.00    -0.081 C 
BRANCH   9  10
ATOM     10  N   UNL     1      36.985 -19.736 -20.160  0.00  0.00    +0.381 N 
ATOM     11  H   UNL     1      36.322 -19.680 -19.387  0.00  0.00    -0.089 HD
ATOM     12  H   UNL     1      37.904 -19.429 -19.842  0.00  0.00    -0.089 HD
ATOM     13  H   UNL     1      37.043 -20.700 -20.488  0.00  0.00    -0.089 HD
ENDBRANCH   9  10
ENDBRANCH   1   9
BRANCH   1  14
ATOM     14  C   UNL     1      34.086 -19.444 -21.453  0.00  0.00    +0.116 C 
BRANCH  14  17
ATOM     15  O   UNL     1      32.340 -20.178 -20.047  0.00  0.00    -0.246 OA
ATOM     16  O   UNL     1      34.377 -21.198 -19.875  0.00  0.00    -0.246 OA
ATOM     17  C   UNL     1      33.555 -20.362 -20.344  0.00  0.00    +0.365 C 
ENDBRANCH  14  17
ENDBRANCH   1  14
TORSDOF 5
ENDMDL
MODEL 6
REMARK VINA RESULT:      -6.8      7.448      8.588
REMARK  Name = 6918881
REMARK  5 active torsions:
REMARK  status: ('A' for Active; 'I' for Inactive)
REMARK    1  A    between atoms: C_1  and  C_3
REMARK    2  A    between atoms: C_1  and  C_9
REMARK    3  A    between atoms: C_1  and  C_14
REMARK    4  A    between atoms: C_9  and  N_10
REMARK    5  A    between atoms: C_14  and  C_17
REMARK                            x       y       z     vdW  Elec       q    Type
REMARK                         _______ _______ _______ _____ _____    ______ ____
ROOT
ATOM      1  C   UNL     1      30.202 -23.559 -15.551  0.00  0.00    +0.012 C 
ENDROOT
BRANCH   1   3
ATOM      2 CL   UNL     1      36.191 -23.252 -15.797  0.00  0.00    -0.082 Cl
ATOM      3  C   UNL     1      31.721 -23.483 -15.613  0.00  0.00    -0.024 C 
ATOM      4  C   UNL     1      32.446 -23.674 -14.456  0.00  0.00    -0.003 C 
ATOM      5  C   UNL     1      32.325 -23.223 -16.826  0.00  0.00    -0.003 C 
ATOM      6  C   UNL     1      33.838 -23.603 -14.513  0.00  0.00    +0.011 C 
ATOM      7  C   UNL     1      33.718 -23.152 -16.884  0.00  0.00    +0.011 C 
ATOM      8  C   UNL     1      34.473 -23.341 -15.727  0.00  0.00    +0.058 C 
ENDBRANCH   1   3
BRANCH   1   9
ATOM      9  C   UNL     1      29.689 -25.008 -15.620  0.00  0.00    -0.081 C 
BRANCH   9  10
ATOM     10  N   UNL     1      29.064 -25.395 -14.329  0.00  0.00    +0.381 N 
ATOM     11  H   UNL     1      28.083 -25.113 -14.329  0.00  0.00    -0.089 HD
ATOM     12  H   UNL     1      29.551 -24.931 -13.563  0.00  0.00    -0.089 HD
ATOM     13  H   UNL     1      29.127 -26.405 -14.210  0.00  0.00    -0.089 HD
ENDBRANCH   9  10
ENDBRANCH   1   9
BRANCH   1  14
ATOM     14  C   UNL     1      29.552 -22.728 -16.674  0.00  0.00    +0.116 C 
BRANCH  14  17
ATOM     15  O   UNL     1      27.493 -22.064 -15.735  0.00  0.00    -0.246 OA
ATOM     16  O   UNL     1      27.463 -23.324 -17.641  0.00  0.00    -0.246 OA
ATOM     17  C   UNL     1      28.018 -22.712 -16.685  0.00  0.00    +0.365 C 
ENDBRANCH  14  17
ENDBRANCH   1  14
TORSDOF 5
ENDMDL
MODEL 7
REMARK VINA RESULT:      -6.8      4.904      6.493
REMARK  Name = 6918881
REMARK  5 active torsions:
REMARK  status: ('A' for Active; 'I' for Inactive)
REMARK    1  A    between atoms: C_1  and  C_3
REMARK    2  A    between atoms: C_1  and  C_9
REMARK    3  A    between atoms: C_1  and  C_14
REMARK    4  A    between atoms: C_9  and  N_10
REMARK    5  A    between atoms: C_14  and  C_17
REMARK                            x       y       z     vdW  Elec       q    Type
REMARK                         _______ _______ _______ _____ _____    ______ ____
ROOT
ATOM      1  C   UNL     1      34.171 -16.328 -22.242  0.00  0.00    +0.012 C 
ENDROOT
BRANCH   1   3
ATOM      2 CL   UNL     1      31.069 -11.255 -21.427  0.00  0.00    -0.082 Cl
ATOM      3  C   UNL     1      33.386 -15.040 -22.035  0.00  0.00    -0.024 C 
ATOM      4  C   UNL     1      33.034 -14.673 -20.753  0.00  0.00    -0.003 C 
ATOM      5  C   UNL     1      33.049 -14.282 -23.137  0.00  0.00    -0.003 C 
ATOM      6  C   UNL     1      32.313 -13.494 -20.563  0.00  0.00    +0.011 C 
ATOM      7  C   UNL     1      32.327 -13.102 -22.947  0.00  0.00    +0.011 C 
ATOM      8  C   UNL     1      31.960 -12.709 -21.660  0.00  0.00    +0.058 C 
ENDBRANCH   1   3
BRANCH   1   9
ATOM      9  C   UNL     1      35.006 -16.704 -21.006  0.00  0.00    -0.081 C 
BRANCH   9  10
ATOM     10  N   UNL     1      35.238 -18.171 -20.969  0.00  0.00    +0.381 N 
ATOM     11  H   UNL     1      35.585 -18.483 -21.876  0.00  0.00    -0.089 HD
ATOM     12  H   UNL     1      34.362 -18.649 -20.757  0.00  0.00    -0.089 HD
ATOM     13  H   UNL     1      35.926 -18.389 -20.248  0.00  0.00    -0.089 HD
ENDBRANCH   9  10
ENDBRANCH   1   9
BRANCH   1  14
ATOM     14  C   UNL     1      35.090 -16.232 -23.475  0.00  0.00    +0.116 C 
BRANCH  14  17
ATOM     15  O   UNL     1      34.753 -18.475 -24.123  0.00  0.00    -0.246 OA
ATOM     16  O   UNL     1      34.782 -16.866 -25.745  0.00  0.00    -0.246 OA
ATOM     17  C   UNL     1      34.858 -17.293 -24.559  0.00  0.00    +0.365 C 
ENDBRANCH  14  17
ENDBRANCH   1  14
TORSDOF 5
ENDMDL
MODEL 8
REMARK VINA RESULT:      -6.7      4.493      5.853
REMARK  Name = 6918881
REMARK  5 active torsions:
REMARK  status: ('A' for Active; 'I' for Inactive)
REMARK    1  A    between atoms: C_1  and  C_3
REMARK    2  A    between atoms: C_1  and  C_9
REMARK    3  A    between atoms: C_1  and  C_14
REMARK    4  A    between atoms: C_9  and  N_10
REMARK    5  A    between atoms: C_14  and  C_17
REMARK                            x       y       z     vdW  Elec       q    Type
REMARK                         _______ _______ _______ _____ _____    ______ ____
ROOT
ATOM      1  C   UNL     1      35.289 -21.191 -19.146  0.00  0.00    +0.012 C 
ENDROOT
BRANCH   1   3
ATOM      2 CL   UNL     1      35.143 -17.375 -23.777  0.00  0.00    -0.082 Cl
ATOM      3  C   UNL     1      35.251 -20.221 -20.320  0.00  0.00    -0.024 C 
ATOM      4  C   UNL     1      34.063 -20.039 -20.995  0.00  0.00    -0.003 C 
ATOM      5  C   UNL     1      36.408 -19.557 -20.672  0.00  0.00    -0.003 C 
ATOM      6  C   UNL     1      34.029 -19.152 -22.071  0.00  0.00    +0.011 C 
ATOM      7  C   UNL     1      36.374 -18.670 -21.749  0.00  0.00    +0.011 C 
ATOM      8  C   UNL     1      35.184 -18.468 -22.448  0.00  0.00    +0.058 C 
ENDBRANCH   1   3
BRANCH   1   9
ATOM      9  C   UNL     1      36.721 -21.647 -18.816  0.00  0.00    -0.081 C 
BRANCH   9  10
ATOM     10  N   UNL     1      36.844 -21.947 -17.366  0.00  0.00    +0.381 N 
ATOM     11  H   UNL     1      36.135 -22.631 -17.100  0.00  0.00    -0.089 HD
ATOM     12  H   UNL     1      36.709 -21.091 -16.829  0.00  0.00    -0.089 HD
ATOM     13  H   UNL     1      37.771 -22.326 -17.174  0.00  0.00    -0.089 HD
ENDBRANCH   9  10
ENDBRANCH   1   9
BRANCH   1  14
ATOM     14  C   UNL     1      34.403 -22.423 -19.408  0.00  0.00    +0.116 C 
BRANCH  14  17
ATOM     15  O   UNL     1      34.090 -23.603 -17.390  0.00  0.00    -0.246 OA
ATOM     16  O   UNL     1      32.330 -22.422 -18.244  0.00  0.00    -0.246 OA
ATOM     17  C   UNL     1      33.514 -22.862 -18.237  0.00  0.00    +0.365 C 
ENDBRANCH  14  17
ENDBRANCH   1  14
TORSDOF 5
ENDMDL
MODEL 9
REMARK VINA RESULT:      -6.6      5.317      6.739
REMARK  Name = 6918881
REMARK  5 active torsions:
REMARK  status: ('A' for Active; 'I' for Inactive)
REMARK    1  A    between atoms: C_1  and  C_3
REMARK    2  A    between atoms: C_1  and  C_9
REMARK    3  A    between atoms: C_1  and  C_14
REMARK    4  A    between atoms: C_9  and  N_10
REMARK    5  A    between atoms: C_14  and  C_17
REMARK                            x       y       z     vdW  Elec       q    Type
REMARK                         _______ _______ _______ _____ _____    ______ ____
ROOT
ATOM      1  C   UNL     1      34.696 -23.029 -17.349  0.00  0.00    +0.012 C 
ENDROOT
BRANCH   1   3
ATOM      2 CL   UNL     1      34.697 -19.243 -22.006  0.00  0.00    -0.082 Cl
ATOM      3  C   UNL     1      34.697 -22.070 -18.532  0.00  0.00    -0.024 C 
ATOM      4  C   UNL     1      35.904 -21.629 -19.031  0.00  0.00    -0.003 C 
ATOM      5  C   UNL     1      33.489 -21.670 -19.065  0.00  0.00    -0.003 C 
ATOM      6  C   UNL     1      35.905 -20.749 -20.114  0.00  0.00    +0.011 C 
ATOM      7  C   UNL     1      33.489 -20.790 -20.148  0.00  0.00    +0.011 C 
ATOM      8  C   UNL     1      34.697 -20.329 -20.671  0.00  0.00    +0.058 C 
ENDBRANCH   1   3
BRANCH   1   9
ATOM      9  C   UNL     1      33.274 -23.324 -16.841  0.00  0.00    -0.081 C 
BRANCH   9  10
ATOM     10  N   UNL     1      33.289 -23.555 -15.374  0.00  0.00    +0.381 N 
ATOM     11  H   UNL     1      33.517 -24.532 -15.186  0.00  0.00    -0.089 HD
ATOM     12  H   UNL     1      32.371 -23.340 -14.986  0.00  0.00    -0.089 HD
ATOM     13  H   UNL     1      33.990 -22.954 -14.941  0.00  0.00    -0.089 HD
ENDBRANCH   9  10
ENDBRANCH   1   9
BRANCH   1  14
ATOM     14  C   UNL     1      35.557 -22.491 -16.190  0.00  0.00    +0.116 C 
BRANCH  14  17
ATOM     15  O   UNL     1      37.794 -22.829 -15.523  0.00  0.00    -0.246 OA
ATOM     16  O   UNL     1      36.388 -24.629 -15.569  0.00  0.00    -0.246 OA
ATOM     17  C   UNL     1      36.690 -23.413 -15.720  0.00  0.00    +0.365 C 
ENDBRANCH  14  17
ENDBRANCH   1  14
TORSDOF 5
ENDMDL
