MODEL 1
REMARK VINA RESULT:      -5.4      0.000      0.000
REMARK  Name = 637568
REMARK  4 active torsions:
REMARK  status: ('A' for Active; 'I' for Inactive)
REMARK    1  A    between atoms: C_1  and  C_4
REMARK    2  A    between atoms: C_2  and  C_8
REMARK    3  A    between atoms: C_4  and  O_5
REMARK    4  A    between atoms: C_8  and  O_9
REMARK                            x       y       z     vdW  Elec       q    Type
REMARK                         _______ _______ _______ _____ _____    ______ ____
ROOT
ATOM      1  C   UNL     1      36.487 -25.141 -12.890  0.00  0.00    +0.089 C 
ATOM      2  C   UNL     1      37.227 -26.214 -13.195  0.00  0.00    +0.089 C 
ENDROOT
BRANCH   1   4
ATOM      3  O   UNL     1      35.255 -25.199 -10.828  0.00  0.00    -0.245 OA
ATOM      4  C   UNL     1      36.222 -24.822 -11.471  0.00  0.00    +0.342 C 
BRANCH   4   5
ATOM      5  O   UNL     1      37.245 -24.042 -11.026  0.00  0.00    -0.441 OA
ATOM      6  C   UNL     1      37.463 -22.834 -11.763  0.00  0.00    +0.256 C 
ENDBRANCH   4   5
ENDBRANCH   1   4
BRANCH   2   8
ATOM      7  O   UNL     1      36.668 -26.486 -15.516  0.00  0.00    -0.245 OA
ATOM      8  C   UNL     1      37.491 -26.534 -14.615  0.00  0.00    +0.342 C 
BRANCH   8   9
ATOM      9  O   UNL     1      38.801 -26.884 -14.723  0.00  0.00    -0.441 OA
ATOM     10  C   UNL     1      39.738 -25.809 -14.592  0.00  0.00    +0.256 C 
ENDBRANCH   8   9
ENDBRANCH   2   8
TORSDOF 4
ENDMDL
MODEL 2
REMARK VINA RESULT:      -5.4      1.363      2.451
REMARK  Name = 637568
REMARK  4 active torsions:
REMARK  status: ('A' for Active; 'I' for Inactive)
REMARK    1  A    between atoms: C_1  and  C_4
REMARK    2  A    between atoms: C_2  and  C_8
REMARK    3  A    between atoms: C_4  and  O_5
REMARK    4  A    between atoms: C_8  and  O_9
REMARK                            x       y       z     vdW  Elec       q    Type
REMARK                         _______ _______ _______ _____ _____    ______ ____
ROOT
ATOM      1  C   UNL     1      38.649 -24.778 -12.608  0.00  0.00    +0.089 C 
ATOM      2  C   UNL     1      38.354 -24.911 -13.906  0.00  0.00    +0.089 C 
ENDROOT
BRANCH   1   4
ATOM      3  O   UNL     1      38.187 -22.515 -11.946  0.00  0.00    -0.245 OA
ATOM      4  C   UNL     1      37.991 -23.713 -11.820  0.00  0.00    +0.342 C 
BRANCH   4   5
ATOM      5  O   UNL     1      37.141 -24.314 -10.944  0.00  0.00    -0.441 OA
ATOM      6  C   UNL     1      35.752 -24.230 -11.278  0.00  0.00    +0.256 C 
ENDBRANCH   4   5
ENDBRANCH   1   4
BRANCH   2   8
ATOM      7  O   UNL     1      40.111 -25.889 -15.221  0.00  0.00    -0.245 OA
ATOM      8  C   UNL     1      39.013 -25.975 -14.695  0.00  0.00    +0.342 C 
BRANCH   8   9
ATOM      9  O   UNL     1      38.176 -27.048 -14.721  0.00  0.00    -0.441 OA
ATOM     10  C   UNL     1      36.860 -26.788 -15.222  0.00  0.00    +0.256 C 
ENDBRANCH   8   9
ENDBRANCH   2   8
TORSDOF 4
ENDMDL
MODEL 3
REMARK VINA RESULT:      -5.4      1.279      4.702
REMARK  Name = 637568
REMARK  4 active torsions:
REMARK  status: ('A' for Active; 'I' for Inactive)
REMARK    1  A    between atoms: C_1  and  C_4
REMARK    2  A    between atoms: C_2  and  C_8
REMARK    3  A    between atoms: C_4  and  O_5
REMARK    4  A    between atoms: C_8  and  O_9
REMARK                            x       y       z     vdW  Elec       q    Type
REMARK                         _______ _______ _______ _____ _____    ______ ____
ROOT
ATOM      1  C   UNL     1      38.660 -24.857 -13.818  0.00  0.00    +0.089 C 
ATOM      2  C   UNL     1      38.361 -25.062 -12.530  0.00  0.00    +0.089 C 
ENDROOT
BRANCH   1   4
ATOM      3  O   UNL     1      40.091 -26.045 -15.339  0.00  0.00    -0.245 OA
ATOM      4  C   UNL     1      39.079 -26.001 -14.657  0.00  0.00    +0.342 C 
BRANCH   4   5
ATOM      5  O   UNL     1      38.140 -26.976 -14.525  0.00  0.00    -0.441 OA
ATOM      6  C   UNL     1      36.933 -26.771 -15.267  0.00  0.00    +0.256 C 
ENDBRANCH   4   5
ENDBRANCH   1   4
BRANCH   2   8
ATOM      7  O   UNL     1      38.452 -22.809 -11.702  0.00  0.00    -0.245 OA
ATOM      8  C   UNL     1      37.942 -23.918 -11.691  0.00  0.00    +0.342 C 
BRANCH   8   9
ATOM      9  O   UNL     1      36.902 -24.333 -10.919  0.00  0.00    -0.441 OA
ATOM     10  C   UNL     1      35.667 -24.544 -11.613  0.00  0.00    +0.256 C 
ENDBRANCH   8   9
ENDBRANCH   2   8
TORSDOF 4
ENDMDL
MODEL 4
REMARK VINA RESULT:      -5.3      8.778      9.636
REMARK  Name = 637568
REMARK  4 active torsions:
REMARK  status: ('A' for Active; 'I' for Inactive)
REMARK    1  A    between atoms: C_1  and  C_4
REMARK    2  A    between atoms: C_2  and  C_8
REMARK    3  A    between atoms: C_4  and  O_5
REMARK    4  A    between atoms: C_8  and  O_9
REMARK                            x       y       z     vdW  Elec       q    Type
REMARK                         _______ _______ _______ _____ _____    ______ ____
ROOT
ATOM      1  C   UNL     1      34.735 -20.963 -19.994  0.00  0.00    +0.089 C 
ATOM      2  C   UNL     1      33.937 -20.108 -20.646  0.00  0.00    +0.089 C 
ENDROOT
BRANCH   1   4
ATOM      3  O   UNL     1      32.963 -22.323 -19.108  0.00  0.00    -0.245 OA
ATOM      4  C   UNL     1      34.135 -21.981 -19.104  0.00  0.00    +0.342 C 
BRANCH   4   5
ATOM      5  O   UNL     1      35.121 -22.454 -18.296  0.00  0.00    -0.441 OA
ATOM      6  C   UNL     1      36.362 -21.742 -18.356  0.00  0.00    +0.256 C 
ENDBRANCH   4   5
ENDBRANCH   1   4
BRANCH   2   8
ATOM      7  O   UNL     1      34.461 -19.082 -22.753  0.00  0.00    -0.245 OA
ATOM      8  C   UNL     1      34.537 -19.090 -21.535  0.00  0.00    +0.342 C 
BRANCH   8   9
ATOM      9  O   UNL     1      35.177 -18.182 -20.750  0.00  0.00    -0.441 OA
ATOM     10  C   UNL     1      34.925 -16.808 -21.067  0.00  0.00    +0.256 C 
ENDBRANCH   8   9
ENDBRANCH   2   8
TORSDOF 4
ENDMDL
MODEL 5
REMARK VINA RESULT:      -5.3      8.798      9.692
REMARK  Name = 637568
REMARK  4 active torsions:
REMARK  status: ('A' for Active; 'I' for Inactive)
REMARK    1  A    between atoms: C_1  and  C_4
REMARK    2  A    between atoms: C_2  and  C_8
REMARK    3  A    between atoms: C_4  and  O_5
REMARK    4  A    between atoms: C_8  and  O_9
REMARK                            x       y       z     vdW  Elec       q    Type
REMARK                         _______ _______ _______ _____ _____    ______ ____
ROOT
ATOM      1  C   UNL     1      34.006 -20.083 -20.689  0.00  0.00    +0.089 C 
ATOM      2  C   UNL     1      34.804 -20.933 -20.033  0.00  0.00    +0.089 C 
ENDROOT
BRANCH   1   4
ATOM      3  O   UNL     1      34.551 -19.026 -22.777  0.00  0.00    -0.245 OA
ATOM      4  C   UNL     1      34.606 -19.047 -21.557  0.00  0.00    +0.342 C 
BRANCH   4   5
ATOM      5  O   UNL     1      35.219 -18.138 -20.752  0.00  0.00    -0.441 OA
ATOM      6  C   UNL     1      34.916 -16.767 -21.028  0.00  0.00    +0.256 C 
ENDBRANCH   4   5
ENDBRANCH   1   4
BRANCH   2   8
ATOM      7  O   UNL     1      33.040 -22.335 -19.200  0.00  0.00    -0.245 OA
ATOM      8  C   UNL     1      34.204 -21.969 -19.164  0.00  0.00    +0.342 C 
BRANCH   8   9
ATOM      9  O   UNL     1      35.179 -22.425 -18.332  0.00  0.00    -0.441 OA
ATOM     10  C   UNL     1      36.417 -21.708 -18.385  0.00  0.00    +0.256 C 
ENDBRANCH   8   9
ENDBRANCH   2   8
TORSDOF 4
ENDMDL
MODEL 6
REMARK VINA RESULT:      -5.3      8.669      9.592
REMARK  Name = 637568
REMARK  4 active torsions:
REMARK  status: ('A' for Active; 'I' for Inactive)
REMARK    1  A    between atoms: C_1  and  C_4
REMARK    2  A    between atoms: C_2  and  C_8
REMARK    3  A    between atoms: C_4  and  O_5
REMARK    4  A    between atoms: C_8  and  O_9
REMARK                            x       y       z     vdW  Elec       q    Type
REMARK                         _______ _______ _______ _____ _____    ______ ____
ROOT
ATOM      1  C   UNL     1      33.778 -20.922 -19.912  0.00  0.00    +0.089 C 
ATOM      2  C   UNL     1      34.895 -20.408 -20.440  0.00  0.00    +0.089 C 
ENDROOT
BRANCH   1   4
ATOM      3  O   UNL     1      34.884 -22.742 -18.800  0.00  0.00    -0.245 OA
ATOM      4  C   UNL     1      33.871 -22.096 -19.018  0.00  0.00    +0.342 C 
BRANCH   4   5
ATOM      5  O   UNL     1      32.635 -22.315 -18.494  0.00  0.00    -0.441 OA
ATOM      6  C   UNL     1      32.608 -23.039 -17.260  0.00  0.00    +0.256 C 
ENDBRANCH   4   5
ENDBRANCH   1   4
BRANCH   2   8
ATOM      7  O   UNL     1      34.302 -19.232 -22.448  0.00  0.00    -0.245 OA
ATOM      8  C   UNL     1      34.802 -19.234 -21.335  0.00  0.00    +0.342 C 
BRANCH   8   9
ATOM      9  O   UNL     1      35.370 -18.179 -20.691  0.00  0.00    -0.441 OA
ATOM     10  C   UNL     1      34.924 -16.887 -21.116  0.00  0.00    +0.256 C 
ENDBRANCH   8   9
ENDBRANCH   2   8
TORSDOF 4
ENDMDL
MODEL 7
REMARK VINA RESULT:      -5.2     13.314     13.951
REMARK  Name = 637568
REMARK  4 active torsions:
REMARK  status: ('A' for Active; 'I' for Inactive)
REMARK    1  A    between atoms: C_1  and  C_4
REMARK    2  A    between atoms: C_2  and  C_8
REMARK    3  A    between atoms: C_4  and  O_5
REMARK    4  A    between atoms: C_8  and  O_9
REMARK                            x       y       z     vdW  Elec       q    Type
REMARK                         _______ _______ _______ _____ _____    ______ ____
ROOT
ATOM      1  C   UNL     1      34.455 -16.476 -22.397  0.00  0.00    +0.089 C 
ATOM      2  C   UNL     1      35.072 -16.931 -23.493  0.00  0.00    +0.089 C 
ENDROOT
BRANCH   1   4
ATOM      3  O   UNL     1      35.472 -17.896 -20.747  0.00  0.00    -0.245 OA
ATOM      4  C   UNL     1      34.998 -16.816 -21.064  0.00  0.00    +0.342 C 
BRANCH   4   5
ATOM      5  O   UNL     1      34.872 -15.716 -20.274  0.00  0.00    -0.441 OA
ATOM      6  C   UNL     1      33.963 -14.717 -20.750  0.00  0.00    +0.256 C 
ENDBRANCH   4   5
ENDBRANCH   1   4
BRANCH   2   8
ATOM      7  O   UNL     1      34.787 -17.176 -25.866  0.00  0.00    -0.245 OA
ATOM      8  C   UNL     1      34.527 -16.592 -24.826  0.00  0.00    +0.342 C 
BRANCH   8   9
ATOM      9  O   UNL     1      33.698 -15.524 -24.673  0.00  0.00    -0.441 OA
ATOM     10  C   UNL     1      33.133 -15.006 -25.883  0.00  0.00    +0.256 C 
ENDBRANCH   8   9
ENDBRANCH   2   8
TORSDOF 4
ENDMDL
MODEL 8
REMARK VINA RESULT:      -5.2      8.735      9.801
REMARK  Name = 637568
REMARK  4 active torsions:
REMARK  status: ('A' for Active; 'I' for Inactive)
REMARK    1  A    between atoms: C_1  and  C_4
REMARK    2  A    between atoms: C_2  and  C_8
REMARK    3  A    between atoms: C_4  and  O_5
REMARK    4  A    between atoms: C_8  and  O_9
REMARK                            x       y       z     vdW  Elec       q    Type
REMARK                         _______ _______ _______ _____ _____    ______ ____
ROOT
ATOM      1  C   UNL     1      34.060 -20.141 -20.589  0.00  0.00    +0.089 C 
ATOM      2  C   UNL     1      34.679 -21.033 -19.807  0.00  0.00    +0.089 C 
ENDROOT
BRANCH   1   4
ATOM      3  O   UNL     1      35.523 -18.242 -20.757  0.00  0.00    -0.245 OA
ATOM      4  C   UNL     1      34.859 -19.115 -21.294  0.00  0.00    +0.342 C 
BRANCH   4   5
ATOM      5  O   UNL     1      34.716 -19.327 -22.630  0.00  0.00    -0.441 OA
ATOM      6  C   UNL     1      35.487 -18.467 -23.475  0.00  0.00    +0.256 C 
ENDBRANCH   4   5
ENDBRANCH   1   4
BRANCH   2   8
ATOM      7  O   UNL     1      32.686 -22.258 -19.261  0.00  0.00    -0.245 OA
ATOM      8  C   UNL     1      33.879 -22.058 -19.101  0.00  0.00    +0.342 C 
BRANCH   8   9
ATOM      9  O   UNL     1      34.714 -22.722 -18.256  0.00  0.00    -0.441 OA
ATOM     10  C   UNL     1      34.131 -23.133 -17.014  0.00  0.00    +0.256 C 
ENDBRANCH   8   9
ENDBRANCH   2   8
TORSDOF 4
ENDMDL
MODEL 9
REMARK VINA RESULT:      -5.1     13.098     13.783
REMARK  Name = 637568
REMARK  4 active torsions:
REMARK  status: ('A' for Active; 'I' for Inactive)
REMARK    1  A    between atoms: C_1  and  C_4
REMARK    2  A    between atoms: C_2  and  C_8
REMARK    3  A    between atoms: C_4  and  O_5
REMARK    4  A    between atoms: C_8  and  O_9
REMARK                            x       y       z     vdW  Elec       q    Type
REMARK                         _______ _______ _______ _____ _____    ______ ____
ROOT
ATOM      1  C   UNL     1      34.369 -16.772 -22.355  0.00  0.00    +0.089 C 
ATOM      2  C   UNL     1      35.141 -16.458 -23.402  0.00  0.00    +0.089 C 
ENDROOT
BRANCH   1   4
ATOM      3  O   UNL     1      34.991 -16.011 -20.162  0.00  0.00    -0.245 OA
ATOM      4  C   UNL     1      34.979 -16.887 -21.013  0.00  0.00    +0.342 C 
BRANCH   4   5
ATOM      5  O   UNL     1      35.514 -18.134 -20.909  0.00  0.00    -0.441 OA
ATOM      6  C   UNL     1      34.576 -19.213 -20.973  0.00  0.00    +0.256 C 
ENDBRANCH   4   5
ENDBRANCH   1   4
BRANCH   2   8
ATOM      7  O   UNL     1      34.887 -16.957 -25.738  0.00  0.00    -0.245 OA
ATOM      8  C   UNL     1      34.531 -16.343 -24.745  0.00  0.00    +0.342 C 
BRANCH   8   9
ATOM      9  O   UNL     1      33.519 -15.438 -24.662  0.00  0.00    -0.441 OA
ATOM     10  C   UNL     1      33.065 -14.907 -25.912  0.00  0.00    +0.256 C 
ENDBRANCH   8   9
ENDBRANCH   2   8
TORSDOF 4
ENDMDL
