MODEL 1
REMARK VINA RESULT:      -5.1      0.000      0.000
REMARK  Name = 2724898
REMARK  6 active torsions:
REMARK  status: ('A' for Active; 'I' for Inactive)
REMARK    1  A    between atoms: C_1  and  C_2
REMARK    2  A    between atoms: C_1  and  C_6
REMARK    3  A    between atoms: C_2  and  C_3
REMARK    4  A    between atoms: C_3  and  C_4
REMARK    5  A    between atoms: C_6  and  O_7
REMARK    6  A    between atoms: C_6  and  C_9
REMARK                            x       y       z     vdW  Elec       q    Type
REMARK                         _______ _______ _______ _____ _____    ______ ____
ROOT
ATOM      1  C   UNL     1      34.842 -18.598 -22.438  0.00  0.00    +0.034 C 
ENDROOT
BRANCH   1   2
ATOM      2  C   UNL     1      34.704 -19.254 -21.062  0.00  0.00    +0.003 C 
BRANCH   2   3
ATOM      3  C   UNL     1      33.285 -19.781 -20.839  0.00  0.00    +0.000 C 
BRANCH   3   4
ATOM      4  C   UNL     1      33.279 -20.982 -19.893  0.00  0.00    +0.000 C 
ATOM      5  C   UNL     1      34.691 -21.433 -19.558  0.00  0.00    +0.000 C 
ENDBRANCH   3   4
ENDBRANCH   2   3
ENDBRANCH   1   2
BRANCH   1   6
ATOM      6  C   UNL     1      34.739 -17.066 -22.407  0.00  0.00    +0.132 C 
BRANCH   6   7
ATOM      7  O   UNL     1      35.761 -16.535 -23.251  0.00  0.00    -0.380 OA
ATOM      8  H   UNL     1      35.405 -16.397 -24.143  0.00  0.00    +0.211 HD
ENDBRANCH   6   7
BRANCH   6   9
ATOM      9  C   UNL     1      34.849 -16.495 -21.017  0.00  0.00    +0.003 C 
ATOM     10  C   UNL     1      34.453 -15.279 -20.620  0.00  0.00    -0.002 C 
ENDBRANCH   6   9
ENDBRANCH   1   6
TORSDOF 6
ENDMDL
MODEL 2
REMARK VINA RESULT:      -5.1      0.840      1.342
REMARK  Name = 2724898
REMARK  6 active torsions:
REMARK  status: ('A' for Active; 'I' for Inactive)
REMARK    1  A    between atoms: C_1  and  C_2
REMARK    2  A    between atoms: C_1  and  C_6
REMARK    3  A    between atoms: C_2  and  C_3
REMARK    4  A    between atoms: C_3  and  C_4
REMARK    5  A    between atoms: C_6  and  O_7
REMARK    6  A    between atoms: C_6  and  C_9
REMARK                            x       y       z     vdW  Elec       q    Type
REMARK                         _______ _______ _______ _____ _____    ______ ____
ROOT
ATOM      1  C   UNL     1      35.672 -18.265 -22.754  0.00  0.00    +0.034 C 
ENDROOT
BRANCH   1   2
ATOM      2  C   UNL     1      34.777 -19.416 -22.287  0.00  0.00    +0.003 C 
BRANCH   2   3
ATOM      3  C   UNL     1      35.208 -19.930 -20.911  0.00  0.00    +0.000 C 
BRANCH   3   4
ATOM      4  C   UNL     1      34.042 -20.590 -20.173  0.00  0.00    +0.000 C 
ATOM      5  C   UNL     1      32.719 -19.926 -20.517  0.00  0.00    +0.000 C 
ENDBRANCH   3   4
ENDBRANCH   2   3
ENDBRANCH   1   2
BRANCH   1   6
ATOM      6  C   UNL     1      34.951 -16.912 -22.833  0.00  0.00    +0.132 C 
BRANCH   6   7
ATOM      7  O   UNL     1      35.702 -16.059 -23.698  0.00  0.00    -0.380 OA
ATOM      8  H   UNL     1      36.532 -15.809 -23.263  0.00  0.00    +0.211 HD
ENDBRANCH   6   7
BRANCH   6   9
ATOM      9  C   UNL     1      34.761 -16.266 -21.485  0.00  0.00    +0.003 C 
ATOM     10  C   UNL     1      33.599 -15.879 -20.942  0.00  0.00    -0.002 C 
ENDBRANCH   6   9
ENDBRANCH   1   6
TORSDOF 6
ENDMDL
MODEL 3
REMARK VINA RESULT:      -5.1      1.192      2.240
REMARK  Name = 2724898
REMARK  6 active torsions:
REMARK  status: ('A' for Active; 'I' for Inactive)
REMARK    1  A    between atoms: C_1  and  C_2
REMARK    2  A    between atoms: C_1  and  C_6
REMARK    3  A    between atoms: C_2  and  C_3
REMARK    4  A    between atoms: C_3  and  C_4
REMARK    5  A    between atoms: C_6  and  O_7
REMARK    6  A    between atoms: C_6  and  C_9
REMARK                            x       y       z     vdW  Elec       q    Type
REMARK                         _______ _______ _______ _____ _____    ______ ____
ROOT
ATOM      1  C   UNL     1      34.938 -17.860 -21.558  0.00  0.00    +0.034 C 
ENDROOT
BRANCH   1   2
ATOM      2  C   UNL     1      34.798 -19.263 -20.961  0.00  0.00    +0.003 C 
BRANCH   2   3
ATOM      3  C   UNL     1      33.327 -19.662 -20.823  0.00  0.00    +0.000 C 
BRANCH   3   4
ATOM      4  C   UNL     1      33.157 -20.836 -19.858  0.00  0.00    +0.000 C 
ATOM      5  C   UNL     1      34.488 -21.505 -19.556  0.00  0.00    +0.000 C 
ENDBRANCH   3   4
ENDBRANCH   2   3
ENDBRANCH   1   2
BRANCH   1   6
ATOM      6  C   UNL     1      35.709 -17.825 -22.885  0.00  0.00    +0.132 C 
BRANCH   6   7
ATOM      7  O   UNL     1      35.754 -16.472 -23.337  0.00  0.00    -0.380 OA
ATOM      8  H   UNL     1      35.774 -15.876 -22.571  0.00  0.00    +0.211 HD
ENDBRANCH   6   7
BRANCH   6   9
ATOM      9  C   UNL     1      35.107 -18.717 -23.940  0.00  0.00    +0.003 C 
ATOM     10  C   UNL     1      34.374 -18.326 -24.991  0.00  0.00    -0.002 C 
ENDBRANCH   6   9
ENDBRANCH   1   6
TORSDOF 6
ENDMDL
MODEL 4
REMARK VINA RESULT:      -5.0      2.184      4.597
REMARK  Name = 2724898
REMARK  6 active torsions:
REMARK  status: ('A' for Active; 'I' for Inactive)
REMARK    1  A    between atoms: C_1  and  C_2
REMARK    2  A    between atoms: C_1  and  C_6
REMARK    3  A    between atoms: C_2  and  C_3
REMARK    4  A    between atoms: C_3  and  C_4
REMARK    5  A    between atoms: C_6  and  O_7
REMARK    6  A    between atoms: C_6  and  C_9
REMARK                            x       y       z     vdW  Elec       q    Type
REMARK                         _______ _______ _______ _____ _____    ______ ____
ROOT
ATOM      1  C   UNL     1      35.540 -18.294 -22.883  0.00  0.00    +0.034 C 
ENDROOT
BRANCH   1   2
ATOM      2  C   UNL     1      34.924 -19.191 -23.960  0.00  0.00    +0.003 C 
BRANCH   2   3
ATOM      3  C   UNL     1      34.278 -18.359 -25.070  0.00  0.00    +0.000 C 
BRANCH   3   4
ATOM      4  C   UNL     1      34.808 -16.925 -25.072  0.00  0.00    +0.000 C 
ATOM      5  C   UNL     1      33.728 -15.934 -25.475  0.00  0.00    +0.000 C 
ENDBRANCH   3   4
ENDBRANCH   2   3
ENDBRANCH   1   2
BRANCH   1   6
ATOM      6  C   UNL     1      34.918 -18.479 -21.491  0.00  0.00    +0.132 C 
BRANCH   6   7
ATOM      7  O   UNL     1      35.979 -18.579 -20.541  0.00  0.00    -0.380 OA
ATOM      8  H   UNL     1      36.521 -19.359 -20.742  0.00  0.00    +0.211 HD
ENDBRANCH   6   7
BRANCH   6   9
ATOM      9  C   UNL     1      34.014 -19.682 -21.405  0.00  0.00    +0.003 C 
ATOM     10  C   UNL     1      32.911 -19.799 -20.655  0.00  0.00    -0.002 C 
ENDBRANCH   6   9
ENDBRANCH   1   6
TORSDOF 6
ENDMDL
MODEL 5
REMARK VINA RESULT:      -5.0      3.293      5.055
REMARK  Name = 2724898
REMARK  6 active torsions:
REMARK  status: ('A' for Active; 'I' for Inactive)
REMARK    1  A    between atoms: C_1  and  C_2
REMARK    2  A    between atoms: C_1  and  C_6
REMARK    3  A    between atoms: C_2  and  C_3
REMARK    4  A    between atoms: C_3  and  C_4
REMARK    5  A    between atoms: C_6  and  O_7
REMARK    6  A    between atoms: C_6  and  C_9
REMARK                            x       y       z     vdW  Elec       q    Type
REMARK                         _______ _______ _______ _____ _____    ______ ____
ROOT
ATOM      1  C   UNL     1      33.234 -21.057 -19.538  0.00  0.00    +0.034 C 
ENDROOT
BRANCH   1   2
ATOM      2  C   UNL     1      33.013 -20.302 -20.851  0.00  0.00    +0.003 C 
BRANCH   2   3
ATOM      3  C   UNL     1      33.979 -19.122 -20.981  0.00  0.00    +0.000 C 
BRANCH   3   4
ATOM      4  C   UNL     1      35.080 -19.413 -22.002  0.00  0.00    +0.000 C 
ATOM      5  C   UNL     1      34.652 -19.024 -23.407  0.00  0.00    +0.000 C 
ENDBRANCH   3   4
ENDBRANCH   2   3
ENDBRANCH   1   2
BRANCH   1   6
ATOM      6  C   UNL     1      34.312 -22.147 -19.623  0.00  0.00    +0.132 C 
BRANCH   6   7
ATOM      7  O   UNL     1      33.728 -23.382 -19.207  0.00  0.00    -0.380 OA
ATOM      8  H   UNL     1      33.736 -23.434 -18.238  0.00  0.00    +0.211 HD
ENDBRANCH   6   7
BRANCH   6   9
ATOM      9  C   UNL     1      35.533 -21.834 -18.798  0.00  0.00    +0.003 C 
ATOM     10  C   UNL     1      36.650 -21.230 -19.225  0.00  0.00    -0.002 C 
ENDBRANCH   6   9
ENDBRANCH   1   6
TORSDOF 6
ENDMDL
MODEL 6
REMARK VINA RESULT:      -4.9      1.865      2.690
REMARK  Name = 2724898
REMARK  6 active torsions:
REMARK  status: ('A' for Active; 'I' for Inactive)
REMARK    1  A    between atoms: C_1  and  C_2
REMARK    2  A    between atoms: C_1  and  C_6
REMARK    3  A    between atoms: C_2  and  C_3
REMARK    4  A    between atoms: C_3  and  C_4
REMARK    5  A    between atoms: C_6  and  O_7
REMARK    6  A    between atoms: C_6  and  C_9
REMARK                            x       y       z     vdW  Elec       q    Type
REMARK                         _______ _______ _______ _____ _____    ______ ____
ROOT
ATOM      1  C   UNL     1      33.788 -19.205 -21.134  0.00  0.00    +0.034 C 
ENDROOT
BRANCH   1   2
ATOM      2  C   UNL     1      33.739 -20.467 -20.267  0.00  0.00    +0.003 C 
BRANCH   2   3
ATOM      3  C   UNL     1      35.146 -20.993 -19.975  0.00  0.00    +0.000 C 
BRANCH   3   4
ATOM      4  C   UNL     1      35.132 -22.019 -18.841  0.00  0.00    +0.000 C 
ATOM      5  C   UNL     1      33.735 -22.573 -18.609  0.00  0.00    +0.000 C 
ENDBRANCH   3   4
ENDBRANCH   2   3
ENDBRANCH   1   2
BRANCH   1   6
ATOM      6  C   UNL     1      35.208 -18.673 -21.373  0.00  0.00    +0.132 C 
BRANCH   6   7
ATOM      7  O   UNL     1      35.335 -17.426 -20.689  0.00  0.00    -0.380 OA
ATOM      8  H   UNL     1      34.881 -16.733 -21.194  0.00  0.00    +0.211 HD
ENDBRANCH   6   7
BRANCH   6   9
ATOM      9  C   UNL     1      35.540 -18.512 -22.834  0.00  0.00    +0.003 C 
ATOM     10  C   UNL     1      34.904 -19.086 -23.864  0.00  0.00    -0.002 C 
ENDBRANCH   6   9
ENDBRANCH   1   6
TORSDOF 6
ENDMDL
MODEL 7
REMARK VINA RESULT:      -4.9      1.682      2.303
REMARK  Name = 2724898
REMARK  6 active torsions:
REMARK  status: ('A' for Active; 'I' for Inactive)
REMARK    1  A    between atoms: C_1  and  C_2
REMARK    2  A    between atoms: C_1  and  C_6
REMARK    3  A    between atoms: C_2  and  C_3
REMARK    4  A    between atoms: C_3  and  C_4
REMARK    5  A    between atoms: C_6  and  O_7
REMARK    6  A    between atoms: C_6  and  C_9
REMARK                            x       y       z     vdW  Elec       q    Type
REMARK                         _______ _______ _______ _____ _____    ______ ____
ROOT
ATOM      1  C   UNL     1      35.344 -18.071 -23.960  0.00  0.00    +0.034 C 
ENDROOT
BRANCH   1   2
ATOM      2  C   UNL     1      34.653 -19.302 -23.369  0.00  0.00    +0.003 C 
BRANCH   2   3
ATOM      3  C   UNL     1      34.991 -19.468 -21.885  0.00  0.00    +0.000 C 
BRANCH   3   4
ATOM      4  C   UNL     1      33.824 -19.036 -20.997  0.00  0.00    +0.000 C 
ATOM      5  C   UNL     1      32.972 -20.224 -20.580  0.00  0.00    +0.000 C 
ENDBRANCH   3   4
ENDBRANCH   2   3
ENDBRANCH   1   2
BRANCH   1   6
ATOM      6  C   UNL     1      34.375 -17.054 -24.580  0.00  0.00    +0.132 C 
BRANCH   6   7
ATOM      7  O   UNL     1      34.850 -16.729 -25.887  0.00  0.00    -0.380 OA
ATOM      8  H   UNL     1      35.166 -17.535 -26.325  0.00  0.00    +0.211 HD
ENDBRANCH   6   7
BRANCH   6   9
ATOM      9  C   UNL     1      34.217 -15.807 -23.749  0.00  0.00    +0.003 C 
ATOM     10  C   UNL     1      34.660 -15.621 -22.499  0.00  0.00    -0.002 C 
ENDBRANCH   6   9
ENDBRANCH   1   6
TORSDOF 6
ENDMDL
MODEL 8
REMARK VINA RESULT:      -4.8      2.330      4.140
REMARK  Name = 2724898
REMARK  6 active torsions:
REMARK  status: ('A' for Active; 'I' for Inactive)
REMARK    1  A    between atoms: C_1  and  C_2
REMARK    2  A    between atoms: C_1  and  C_6
REMARK    3  A    between atoms: C_2  and  C_3
REMARK    4  A    between atoms: C_3  and  C_4
REMARK    5  A    between atoms: C_6  and  O_7
REMARK    6  A    between atoms: C_6  and  C_9
REMARK                            x       y       z     vdW  Elec       q    Type
REMARK                         _______ _______ _______ _____ _____    ______ ____
ROOT
ATOM      1  C   UNL     1      34.614 -19.017 -22.495  0.00  0.00    +0.034 C 
ENDROOT
BRANCH   1   2
ATOM      2  C   UNL     1      35.115 -19.137 -23.937  0.00  0.00    +0.003 C 
BRANCH   2   3
ATOM      3  C   UNL     1      34.239 -18.327 -24.897  0.00  0.00    +0.000 C 
BRANCH   3   4
ATOM      4  C   UNL     1      34.838 -16.947 -25.167  0.00  0.00    +0.000 C 
ATOM      5  C   UNL     1      33.755 -15.891 -25.321  0.00  0.00    +0.000 C 
ENDBRANCH   3   4
ENDBRANCH   2   3
ENDBRANCH   1   2
BRANCH   1   6
ATOM      6  C   UNL     1      35.358 -17.958 -21.667  0.00  0.00    +0.132 C 
BRANCH   6   7
ATOM      7  O   UNL     1      35.945 -18.610 -20.541  0.00  0.00    -0.380 OA
ATOM      8  H   UNL     1      35.795 -18.076 -19.744  0.00  0.00    +0.211 HD
ENDBRANCH   6   7
BRANCH   6   9
ATOM      9  C   UNL     1      34.468 -16.827 -21.222  0.00  0.00    +0.003 C 
ATOM     10  C   UNL     1      34.577 -15.540 -21.576  0.00  0.00    -0.002 C 
ENDBRANCH   6   9
ENDBRANCH   1   6
TORSDOF 6
ENDMDL
MODEL 9
REMARK VINA RESULT:      -4.8      3.293      5.742
REMARK  Name = 2724898
REMARK  6 active torsions:
REMARK  status: ('A' for Active; 'I' for Inactive)
REMARK    1  A    between atoms: C_1  and  C_2
REMARK    2  A    between atoms: C_1  and  C_6
REMARK    3  A    between atoms: C_2  and  C_3
REMARK    4  A    between atoms: C_3  and  C_4
REMARK    5  A    between atoms: C_6  and  O_7
REMARK    6  A    between atoms: C_6  and  C_9
REMARK                            x       y       z     vdW  Elec       q    Type
REMARK                         _______ _______ _______ _____ _____    ______ ____
ROOT
ATOM      1  C   UNL     1      34.310 -21.436 -19.418  0.00  0.00    +0.034 C 
ENDROOT
BRANCH   1   2
ATOM      2  C   UNL     1      33.014 -20.790 -19.914  0.00  0.00    +0.003 C 
BRANCH   2   3
ATOM      3  C   UNL     1      33.303 -19.603 -20.836  0.00  0.00    +0.000 C 
BRANCH   3   4
ATOM      4  C   UNL     1      34.763 -19.595 -21.290  0.00  0.00    +0.000 C 
ATOM      5  C   UNL     1      35.338 -18.187 -21.291  0.00  0.00    +0.000 C 
ENDBRANCH   3   4
ENDBRANCH   2   3
ENDBRANCH   1   2
BRANCH   1   6
ATOM      6  C   UNL     1      34.097 -22.766 -18.679  0.00  0.00    +0.132 C 
BRANCH   6   7
ATOM      7  O   UNL     1      34.008 -23.805 -19.654  0.00  0.00    -0.380 OA
ATOM      8  H   UNL     1      33.662 -24.610 -19.238  0.00  0.00    +0.211 HD
ENDBRANCH   6   7
BRANCH   6   9
ATOM      9  C   UNL     1      32.876 -22.760 -17.797  0.00  0.00    +0.003 C 
ATOM     10  C   UNL     1      32.774 -23.295 -16.573  0.00  0.00    -0.002 C 
ENDBRANCH   6   9
ENDBRANCH   1   6
TORSDOF 6
ENDMDL
