MODEL 1
REMARK VINA RESULT:      -9.7      0.000      0.000
REMARK  Name = 6540428
REMARK  5 active torsions:
REMARK  status: ('A' for Active; 'I' for Inactive)
REMARK    1  A    between atoms: C_6  and  C_22
REMARK    2  A    between atoms: N_21  and  CA_24
REMARK    3  A    between atoms: CA_24  and  C_25
REMARK    4  A    between atoms: CA_24  and  C_27
REMARK    5  A    between atoms: C_27  and  O_28
REMARK                            x       y       z     vdW  Elec       q    Type
REMARK                         _______ _______ _______ _____ _____    ______ ____
ROOT
ATOM      1  N   UNL     1      34.904 -17.993 -23.889  0.00  0.00    +0.390 N 
ATOM      2  N   UNL     1      33.068 -12.298 -23.448  0.00  0.00    -0.284 N 
ATOM      3  C   UNL     1      34.060 -16.818 -23.531  0.00  0.00    -0.031 C 
ATOM      4  C   UNL     1      34.006 -16.553 -21.995  0.00  0.00    -0.045 C 
ATOM      5  C   UNL     1      34.535 -15.565 -24.356  0.00  0.00    +0.011 C 
ATOM      6  C   UNL     1      35.040 -18.767 -21.553  0.00  0.00    +0.077 C 
ATOM      7  C   UNL     1      34.642 -19.123 -22.987  0.00  0.00    -0.063 C 
ATOM      8  C   UNL     1      33.906 -14.318 -23.844  0.00  0.00    -0.008 C 
ATOM      9  C   UNL     1      33.421 -15.271 -21.540  0.00  0.00    -0.005 C 
ATOM     10  C   UNL     1      33.420 -14.271 -22.519  0.00  0.00    +0.010 C 
ATOM     11  C   UNL     1      34.493 -17.444 -21.115  0.00  0.00    -0.026 C 
ATOM     12  C   UNL     1      32.904 -13.009 -22.278  0.00  0.00    +0.051 C 
ATOM     13  C   UNL     1      33.677 -13.083 -24.403  0.00  0.00    +0.061 C 
ATOM     14  C   UNL     1      34.696 -18.422 -25.277  0.00  0.00    -0.100 C 
ATOM     15  C   UNL     1      32.874 -14.947 -20.293  0.00  0.00    -0.000 C 
ATOM     16  C   UNL     1      32.356 -12.668 -21.040  0.00  0.00    +0.015 C 
ATOM     17  C   UNL     1      32.353 -13.667 -20.054  0.00  0.00    +0.001 C 
ATOM     18  C   UNL     1      32.669 -10.923 -23.657  0.00  0.00    +0.117 C 
ATOM     19  H   UNL     1      35.873 -17.694 -23.790  0.00  0.00    -0.079 HD
ENDROOT
BRANCH   6  22
ATOM     20  O   UNL     1      33.292 -19.992 -20.484  0.00  0.00    -0.275 OA
ATOM     21  N   UNL     1      35.502 -20.454 -19.917  0.00  0.00    -0.303 N 
ATOM     22  C   UNL     1      34.499 -19.798 -20.609  0.00  0.00    +0.224 C 
ATOM     23  H   UNL     1      36.437 -20.211 -20.105  0.00  0.00    +0.149 HD
BRANCH  21  24
ATOM     24  CA  UNL     1      35.244 -21.477 -18.931  0.00  0.00    +0.101 C 
BRANCH  24  25
ATOM     25  C   UNL     1      36.533 -21.867 -18.193  0.00  0.00    +0.022 C 
ATOM     26  C   UNL     1      36.283 -22.278 -16.748  0.00  0.00    +0.002 C 
ENDBRANCH  24  25
BRANCH  24  27
ATOM     27  C   UNL     1      34.615 -22.698 -19.602  0.00  0.00    +0.157 C 
BRANCH  27  28
ATOM     28  O   UNL     1      33.219 -22.724 -19.325  0.00  0.00    -0.380 OA
ATOM     29  H   UNL     1      32.837 -23.546 -19.670  0.00  0.00    +0.211 HD
ENDBRANCH  27  28
ENDBRANCH  24  27
ENDBRANCH  21  24
ENDBRANCH   6  22
TORSDOF 5
ENDMDL
MODEL 2
REMARK VINA RESULT:      -9.6      4.411      8.481
REMARK  Name = 6540428
REMARK  5 active torsions:
REMARK  status: ('A' for Active; 'I' for Inactive)
REMARK    1  A    between atoms: C_6  and  C_22
REMARK    2  A    between atoms: N_21  and  CA_24
REMARK    3  A    between atoms: CA_24  and  C_25
REMARK    4  A    between atoms: CA_24  and  C_27
REMARK    5  A    between atoms: C_27  and  O_28
REMARK                            x       y       z     vdW  Elec       q    Type
REMARK                         _______ _______ _______ _____ _____    ______ ____
ROOT
ATOM      1  N   UNL     1      33.382 -12.763 -25.905  0.00  0.00    +0.390 N 
ATOM      2  N   UNL     1      34.686 -18.092 -23.477  0.00  0.00    -0.284 N 
ATOM      3  C   UNL     1      34.046 -13.787 -25.048  0.00  0.00    -0.031 C 
ATOM      4  C   UNL     1      33.746 -13.598 -23.530  0.00  0.00    -0.045 C 
ATOM      5  C   UNL     1      33.678 -15.223 -25.575  0.00  0.00    +0.011 C 
ATOM      6  C   UNL     1      32.793 -11.347 -23.975  0.00  0.00    +0.077 C 
ATOM      7  C   UNL     1      33.517 -11.421 -25.321  0.00  0.00    -0.063 C 
ATOM      8  C   UNL     1      34.094 -16.270 -24.604  0.00  0.00    -0.008 C 
ATOM      9  C   UNL     1      34.130 -14.694 -22.613  0.00  0.00    -0.005 C 
ATOM     10  C   UNL     1      34.275 -15.934 -23.245  0.00  0.00    +0.010 C 
ATOM     11  C   UNL     1      33.140 -12.489 -23.071  0.00  0.00    -0.026 C 
ATOM     12  C   UNL     1      34.639 -17.075 -22.549  0.00  0.00    +0.051 C 
ATOM     13  C   UNL     1      34.355 -17.615 -24.727  0.00  0.00    +0.061 C 
ATOM     14  C   UNL     1      33.915 -12.753 -27.272  0.00  0.00    -0.100 C 
ATOM     15  C   UNL     1      34.368 -14.646 -21.234  0.00  0.00    -0.000 C 
ATOM     16  C   UNL     1      34.880 -17.045 -21.174  0.00  0.00    +0.015 C 
ATOM     17  C   UNL     1      34.736 -15.804 -20.534  0.00  0.00    +0.001 C 
ATOM     18  C   UNL     1      35.026 -19.470 -23.195  0.00  0.00    +0.117 C 
ATOM     19  H   UNL     1      32.396 -13.019 -25.950  0.00  0.00    -0.079 HD
ENDROOT
BRANCH   6  22
ATOM     20  O   UNL     1      34.152  -9.418 -23.613  0.00  0.00    -0.275 OA
ATOM     21  N   UNL     1      32.356  -9.816 -22.187  0.00  0.00    -0.303 N 
ATOM     22  C   UNL     1      33.185 -10.089 -23.261  0.00  0.00    +0.224 C 
ATOM     23  H   UNL     1      31.609 -10.430 -22.003  0.00  0.00    +0.149 HD
BRANCH  21  24
ATOM     24  CA  UNL     1      32.533  -8.672 -21.322  0.00  0.00    +0.101 C 
BRANCH  24  25
ATOM     25  C   UNL     1      31.982  -8.957 -19.917  0.00  0.00    +0.022 C 
ATOM     26  C   UNL     1      31.549 -10.406 -19.737  0.00  0.00    +0.002 C 
ENDBRANCH  24  25
BRANCH  24  27
ATOM     27  C   UNL     1      31.849  -7.449 -21.933  0.00  0.00    +0.157 C 
BRANCH  27  28
ATOM     28  O   UNL     1      32.804  -6.694 -22.672  0.00  0.00    -0.380 OA
ATOM     29  H   UNL     1      33.665  -6.740 -22.229  0.00  0.00    +0.211 HD
ENDBRANCH  27  28
ENDBRANCH  24  27
ENDBRANCH  21  24
ENDBRANCH   6  22
TORSDOF 5
ENDMDL
MODEL 3
REMARK VINA RESULT:      -9.4      4.390      9.354
REMARK  Name = 6540428
REMARK  5 active torsions:
REMARK  status: ('A' for Active; 'I' for Inactive)
REMARK    1  A    between atoms: C_6  and  C_22
REMARK    2  A    between atoms: N_21  and  CA_24
REMARK    3  A    between atoms: CA_24  and  C_25
REMARK    4  A    between atoms: CA_24  and  C_27
REMARK    5  A    between atoms: C_27  and  O_28
REMARK                            x       y       z     vdW  Elec       q    Type
REMARK                         _______ _______ _______ _____ _____    ______ ____
ROOT
ATOM      1  N   UNL     1      33.485 -11.118 -24.559  0.00  0.00    +0.390 N 
ATOM      2  N   UNL     1      34.394 -16.899 -23.233  0.00  0.00    -0.284 N 
ATOM      3  C   UNL     1      33.850 -12.335 -23.779  0.00  0.00    -0.031 C 
ATOM      4  C   UNL     1      32.879 -12.611 -22.591  0.00  0.00    -0.045 C 
ATOM      5  C   UNL     1      33.987 -13.558 -24.759  0.00  0.00    +0.011 C 
ATOM      6  C   UNL     1      31.882 -10.350 -22.851  0.00  0.00    +0.077 C 
ATOM      7  C   UNL     1      33.132 -10.007 -23.664  0.00  0.00    -0.063 C 
ATOM      8  C   UNL     1      34.087 -14.837 -24.006  0.00  0.00    -0.008 C 
ATOM      9  C   UNL     1      32.982 -13.922 -21.911  0.00  0.00    -0.005 C 
ATOM     10  C   UNL     1      33.587 -14.915 -22.689  0.00  0.00    +0.010 C 
ATOM     11  C   UNL     1      31.965 -11.701 -22.210  0.00  0.00    -0.026 C 
ATOM     12  C   UNL     1      33.778 -16.203 -22.215  0.00  0.00    +0.051 C 
ATOM     13  C   UNL     1      34.583 -16.079 -24.325  0.00  0.00    +0.061 C 
ATOM     14  C   UNL     1      34.563 -10.692 -25.459  0.00  0.00    -0.100 C 
ATOM     15  C   UNL     1      32.569 -14.279 -20.622  0.00  0.00    -0.000 C 
ATOM     16  C   UNL     1      33.373 -16.576 -20.932  0.00  0.00    +0.015 C 
ATOM     17  C   UNL     1      32.765 -15.585 -20.148  0.00  0.00    +0.001 C 
ATOM     18  C   UNL     1      34.786 -18.290 -23.181  0.00  0.00    +0.117 C 
ATOM     19  H   UNL     1      32.677 -11.370 -25.127  0.00  0.00    -0.079 HD
ENDROOT
BRANCH   6  22
ATOM     20  O   UNL     1      31.551  -9.699 -20.579  0.00  0.00    -0.275 OA
ATOM     21  N   UNL     1      31.733  -8.048 -22.209  0.00  0.00    -0.303 N 
ATOM     22  C   UNL     1      31.710  -9.352 -21.746  0.00  0.00    +0.224 C 
ATOM     23  H   UNL     1      31.869  -7.895 -23.172  0.00  0.00    +0.149 HD
BRANCH  21  24
ATOM     24  CA  UNL     1      31.566  -6.900 -21.348  0.00  0.00    +0.101 C 
BRANCH  24  25
ATOM     25  C   UNL     1      30.998  -5.707 -22.129  0.00  0.00    +0.022 C 
ATOM     26  C   UNL     1      31.114  -5.881 -23.637  0.00  0.00    +0.002 C 
ENDBRANCH  24  25
BRANCH  24  27
ATOM     27  C   UNL     1      32.904  -6.537 -20.703  0.00  0.00    +0.157 C 
BRANCH  27  28
ATOM     28  O   UNL     1      33.039  -7.236 -19.470  0.00  0.00    -0.380 OA
ATOM     29  H   UNL     1      33.105  -8.187 -19.644  0.00  0.00    +0.211 HD
ENDBRANCH  27  28
ENDBRANCH  24  27
ENDBRANCH  21  24
ENDBRANCH   6  22
TORSDOF 5
ENDMDL
MODEL 4
REMARK VINA RESULT:      -9.3      7.256     10.036
REMARK  Name = 6540428
REMARK  5 active torsions:
REMARK  status: ('A' for Active; 'I' for Inactive)
REMARK    1  A    between atoms: C_6  and  C_22
REMARK    2  A    between atoms: N_21  and  CA_24
REMARK    3  A    between atoms: CA_24  and  C_25
REMARK    4  A    between atoms: CA_24  and  C_27
REMARK    5  A    between atoms: C_27  and  O_28
REMARK                            x       y       z     vdW  Elec       q    Type
REMARK                         _______ _______ _______ _____ _____    ______ ____
ROOT
ATOM      1  N   UNL     1      34.989 -22.124 -17.897  0.00  0.00    +0.390 N 
ATOM      2  N   UNL     1      29.516 -23.660 -15.979  0.00  0.00    -0.284 N 
ATOM      3  C   UNL     1      33.890 -22.941 -17.310  0.00  0.00    -0.031 C 
ATOM      4  C   UNL     1      34.083 -23.219 -15.788  0.00  0.00    -0.045 C 
ATOM      5  C   UNL     1      32.507 -22.268 -17.642  0.00  0.00    +0.011 C 
ATOM      6  C   UNL     1      36.425 -22.403 -15.913  0.00  0.00    +0.077 C 
ATOM      7  C   UNL     1      36.301 -22.591 -17.426  0.00  0.00    -0.063 C 
ATOM      8  C   UNL     1      31.407 -22.894 -16.861  0.00  0.00    -0.008 C 
ATOM      9  C   UNL     1      32.938 -23.791 -15.044  0.00  0.00    -0.005 C 
ATOM     10  C   UNL     1      31.700 -23.577 -15.661  0.00  0.00    +0.010 C 
ATOM     11  C   UNL     1      35.240 -22.931 -15.167  0.00  0.00    -0.026 C 
ATOM     12  C   UNL     1      30.517 -24.048 -15.116  0.00  0.00    +0.051 C 
ATOM     13  C   UNL     1      30.045 -22.957 -17.040  0.00  0.00    +0.061 C 
ATOM     14  C   UNL     1      34.968 -22.136 -19.364  0.00  0.00    -0.100 C 
ATOM     15  C   UNL     1      32.938 -24.506 -13.841  0.00  0.00    -0.000 C 
ATOM     16  C   UNL     1      30.500 -24.762 -13.916  0.00  0.00    +0.015 C 
ATOM     17  C   UNL     1      31.737 -24.980 -13.292  0.00  0.00    +0.001 C 
ATOM     18  C   UNL     1      28.106 -23.937 -15.808  0.00  0.00    +0.117 C 
ATOM     19  H   UNL     1      34.836 -21.166 -17.584  0.00  0.00    -0.079 HD
ENDROOT
BRANCH   6  22
ATOM     20  O   UNL     1      38.703 -23.110 -15.997  0.00  0.00    -0.275 OA
ATOM     21  N   UNL     1      37.353 -23.864 -14.257  0.00  0.00    -0.303 N 
ATOM     22  C   UNL     1      37.625 -23.146 -15.410  0.00  0.00    +0.224 C 
ATOM     23  H   UNL     1      36.446 -23.813 -13.878  0.00  0.00    +0.149 HD
BRANCH  21  24
ATOM     24  CA  UNL     1      38.334 -24.682 -13.585  0.00  0.00    +0.101 C 
BRANCH  24  25
ATOM     25  C   UNL     1      38.207 -26.152 -14.010  0.00  0.00    +0.022 C 
ATOM     26  C   UNL     1      36.878 -26.455 -14.689  0.00  0.00    +0.002 C 
ENDBRANCH  24  25
BRANCH  24  27
ATOM     27  C   UNL     1      38.177 -24.543 -12.070  0.00  0.00    +0.157 C 
BRANCH  27  28
ATOM     28  O   UNL     1      38.619 -23.251 -11.666  0.00  0.00    -0.380 OA
ATOM     29  H   UNL     1      38.162 -22.994 -10.851  0.00  0.00    +0.211 HD
ENDBRANCH  27  28
ENDBRANCH  24  27
ENDBRANCH  21  24
ENDBRANCH   6  22
TORSDOF 5
ENDMDL
MODEL 5
REMARK VINA RESULT:      -9.2      0.991      1.300
REMARK  Name = 6540428
REMARK  5 active torsions:
REMARK  status: ('A' for Active; 'I' for Inactive)
REMARK    1  A    between atoms: C_6  and  C_22
REMARK    2  A    between atoms: N_21  and  CA_24
REMARK    3  A    between atoms: CA_24  and  C_25
REMARK    4  A    between atoms: CA_24  and  C_27
REMARK    5  A    between atoms: C_27  and  O_28
REMARK                            x       y       z     vdW  Elec       q    Type
REMARK                         _______ _______ _______ _____ _____    ______ ____
ROOT
ATOM      1  N   UNL     1      34.968 -17.818 -23.963  0.00  0.00    +0.390 N 
ATOM      2  N   UNL     1      33.057 -12.179 -23.229  0.00  0.00    -0.284 N 
ATOM      3  C   UNL     1      34.098 -16.676 -23.563  0.00  0.00    -0.031 C 
ATOM      4  C   UNL     1      33.982 -16.511 -22.017  0.00  0.00    -0.045 C 
ATOM      5  C   UNL     1      34.593 -15.369 -24.286  0.00  0.00    +0.011 C 
ATOM      6  C   UNL     1      35.021 -18.741 -21.678  0.00  0.00    +0.077 C 
ATOM      7  C   UNL     1      34.683 -19.007 -23.146  0.00  0.00    -0.063 C 
ATOM      8  C   UNL     1      33.930 -14.163 -23.720  0.00  0.00    -0.008 C 
ATOM      9  C   UNL     1      33.366 -15.267 -21.505  0.00  0.00    -0.005 C 
ATOM     10  C   UNL     1      33.393 -14.206 -22.416  0.00  0.00    +0.010 C 
ATOM     11  C   UNL     1      34.444 -17.454 -21.177  0.00  0.00    -0.026 C 
ATOM     12  C   UNL     1      32.855 -12.965 -22.115  0.00  0.00    +0.051 C 
ATOM     13  C   UNL     1      33.711 -12.896 -24.208  0.00  0.00    +0.061 C 
ATOM     14  C   UNL     1      34.820 -18.159 -25.382  0.00  0.00    -0.100 C 
ATOM     15  C   UNL     1      32.768 -15.028 -20.261  0.00  0.00    -0.000 C 
ATOM     16  C   UNL     1      32.255 -12.710 -20.881  0.00  0.00    +0.015 C 
ATOM     17  C   UNL     1      32.224 -13.770 -19.962  0.00  0.00    +0.001 C 
ATOM     18  C   UNL     1      32.652 -10.797 -23.365  0.00  0.00    +0.117 C 
ATOM     19  H   UNL     1      35.930 -17.519 -23.806  0.00  0.00    -0.079 HD
ENDROOT
BRANCH   6  22
ATOM     20  O   UNL     1      33.257 -19.893 -20.556  0.00  0.00    -0.275 OA
ATOM     21  N   UNL     1      35.428 -20.716 -20.385  0.00  0.00    -0.303 N 
ATOM     22  C   UNL     1      34.454 -19.836 -20.825  0.00  0.00    +0.224 C 
ATOM     23  H   UNL     1      36.358 -20.566 -20.670  0.00  0.00    +0.149 HD
BRANCH  21  24
ATOM     24  CA  UNL     1      35.145 -21.845 -19.530  0.00  0.00    +0.101 C 
BRANCH  24  25
ATOM     25  C   UNL     1      33.676 -21.841 -19.084  0.00  0.00    +0.022 C 
ATOM     26  C   UNL     1      33.388 -22.870 -17.999  0.00  0.00    +0.002 C 
ENDBRANCH  24  25
BRANCH  24  27
ATOM     27  C   UNL     1      36.078 -21.826 -18.319  0.00  0.00    +0.157 C 
BRANCH  27  28
ATOM     28  O   UNL     1      36.872 -20.644 -18.353  0.00  0.00    -0.380 OA
ATOM     29  H   UNL     1      37.682 -20.786 -17.840  0.00  0.00    +0.211 HD
ENDBRANCH  27  28
ENDBRANCH  24  27
ENDBRANCH  21  24
ENDBRANCH   6  22
TORSDOF 5
ENDMDL
MODEL 6
REMARK VINA RESULT:      -9.2      2.228      3.283
REMARK  Name = 6540428
REMARK  5 active torsions:
REMARK  status: ('A' for Active; 'I' for Inactive)
REMARK    1  A    between atoms: C_6  and  C_22
REMARK    2  A    between atoms: N_21  and  CA_24
REMARK    3  A    between atoms: CA_24  and  C_25
REMARK    4  A    between atoms: CA_24  and  C_27
REMARK    5  A    between atoms: C_27  and  O_28
REMARK                            x       y       z     vdW  Elec       q    Type
REMARK                         _______ _______ _______ _____ _____    ______ ____
ROOT
ATOM      1  N   UNL     1      33.989 -14.796 -25.702  0.00  0.00    +0.390 N 
ATOM      2  N   UNL     1      32.058 -10.412 -22.090  0.00  0.00    -0.284 N 
ATOM      3  C   UNL     1      33.203 -14.096 -24.647  0.00  0.00    -0.031 C 
ATOM      4  C   UNL     1      33.505 -14.623 -23.212  0.00  0.00    -0.045 C 
ATOM      5  C   UNL     1      33.411 -12.542 -24.789  0.00  0.00    +0.011 C 
ATOM      6  C   UNL     1      34.714 -16.576 -24.159  0.00  0.00    +0.077 C 
ATOM      7  C   UNL     1      34.001 -16.248 -25.473  0.00  0.00    -0.063 C 
ATOM      8  C   UNL     1      32.867 -11.821 -23.607  0.00  0.00    -0.008 C 
ATOM      9  C   UNL     1      32.989 -13.838 -22.069  0.00  0.00    -0.005 C 
ATOM     10  C   UNL     1      32.710 -12.502 -22.381  0.00  0.00    +0.010 C 
ATOM     11  C   UNL     1      34.228 -15.740 -23.016  0.00  0.00    -0.026 C 
ATOM     12  C   UNL     1      32.210 -11.617 -21.440  0.00  0.00    +0.051 C 
ATOM     13  C   UNL     1      32.456 -10.525 -23.405  0.00  0.00    +0.061 C 
ATOM     14  C   UNL     1      33.475 -14.523 -27.050  0.00  0.00    -0.100 C 
ATOM     15  C   UNL     1      32.742 -14.253 -20.755  0.00  0.00    -0.000 C 
ATOM     16  C   UNL     1      31.959 -12.015 -20.126  0.00  0.00    +0.015 C 
ATOM     17  C   UNL     1      32.236 -13.352 -19.805  0.00  0.00    +0.001 C 
ATOM     18  C   UNL     1      31.560  -9.192 -21.491  0.00  0.00    +0.117 C 
ATOM     19  H   UNL     1      34.939 -14.433 -25.644  0.00  0.00    -0.079 HD
ENDROOT
BRANCH   6  22
ATOM     20  O   UNL     1      34.181 -18.853 -24.638  0.00  0.00    -0.275 OA
ATOM     21  N   UNL     1      34.557 -18.224 -22.429  0.00  0.00    -0.303 N 
ATOM     22  C   UNL     1      34.460 -18.007 -23.793  0.00  0.00    +0.224 C 
ATOM     23  H   UNL     1      34.789 -17.464 -21.849  0.00  0.00    +0.149 HD
BRANCH  21  24
ATOM     24  CA  UNL     1      34.336 -19.514 -21.816  0.00  0.00    +0.101 C 
BRANCH  24  25
ATOM     25  C   UNL     1      33.047 -19.510 -20.981  0.00  0.00    +0.022 C 
ATOM     26  C   UNL     1      33.017 -20.621 -19.940  0.00  0.00    +0.002 C 
ENDBRANCH  24  25
BRANCH  24  27
ATOM     27  C   UNL     1      35.539 -19.890 -20.951  0.00  0.00    +0.157 C 
BRANCH  27  28
ATOM     28  O   UNL     1      36.219 -18.707 -20.546  0.00  0.00    -0.380 OA
ATOM     29  H   UNL     1      37.139 -18.743 -20.852  0.00  0.00    +0.211 HD
ENDBRANCH  27  28
ENDBRANCH  24  27
ENDBRANCH  21  24
ENDBRANCH   6  22
TORSDOF 5
ENDMDL
MODEL 7
REMARK VINA RESULT:      -9.1      1.779      3.131
REMARK  Name = 6540428
REMARK  5 active torsions:
REMARK  status: ('A' for Active; 'I' for Inactive)
REMARK    1  A    between atoms: C_6  and  C_22
REMARK    2  A    between atoms: N_21  and  CA_24
REMARK    3  A    between atoms: CA_24  and  C_25
REMARK    4  A    between atoms: CA_24  and  C_27
REMARK    5  A    between atoms: C_27  and  O_28
REMARK                            x       y       z     vdW  Elec       q    Type
REMARK                         _______ _______ _______ _____ _____    ______ ____
ROOT
ATOM      1  N   UNL     1      34.004 -14.683 -24.223  0.00  0.00    +0.390 N 
ATOM      2  N   UNL     1      31.903  -9.269 -22.716  0.00  0.00    -0.284 N 
ATOM      3  C   UNL     1      33.121 -13.640 -23.629  0.00  0.00    -0.031 C 
ATOM      4  C   UNL     1      33.134 -13.646 -22.071  0.00  0.00    -0.045 C 
ATOM      5  C   UNL     1      33.487 -12.238 -24.243  0.00  0.00    +0.011 C 
ATOM      6  C   UNL     1      34.303 -15.838 -22.066  0.00  0.00    +0.077 C 
ATOM      7  C   UNL     1      33.849 -15.965 -23.522  0.00  0.00    -0.063 C 
ATOM      8  C   UNL     1      32.822 -11.137 -23.494  0.00  0.00    -0.008 C 
ATOM      9  C   UNL     1      32.509 -12.499 -21.374  0.00  0.00    -0.005 C 
ATOM     10  C   UNL     1      32.405 -11.348 -22.163  0.00  0.00    +0.010 C 
ATOM     11  C   UNL     1      33.713 -14.645 -21.381  0.00  0.00    -0.026 C 
ATOM     12  C   UNL     1      31.838 -10.179 -21.683  0.00  0.00    +0.051 C 
ATOM     13  C   UNL     1      32.501  -9.841 -23.819  0.00  0.00    +0.061 C 
ATOM     14  C   UNL     1      33.746 -14.879 -25.655  0.00  0.00    -0.100 C 
ATOM     15  C   UNL     1      32.013 -12.427 -20.067  0.00  0.00    -0.000 C 
ATOM     16  C   UNL     1      31.339 -10.089 -20.382  0.00  0.00    +0.015 C 
ATOM     17  C   UNL     1      31.440 -11.240 -19.586  0.00  0.00    +0.001 C 
ATOM     18  C   UNL     1      31.424  -7.905 -22.665  0.00  0.00    +0.117 C 
ATOM     19  H   UNL     1      34.961 -14.348 -24.115  0.00  0.00    -0.079 HD
ENDROOT
BRANCH   6  22
ATOM     20  O   UNL     1      32.783 -17.088 -20.716  0.00  0.00    -0.275 OA
ATOM     21  N   UNL     1      34.819 -18.050 -21.308  0.00  0.00    -0.303 N 
ATOM     22  C   UNL     1      33.866 -17.046 -21.295  0.00  0.00    +0.224 C 
ATOM     23  H   UNL     1      35.652 -17.899 -21.810  0.00  0.00    +0.149 HD
BRANCH  21  24
ATOM     24  CA  UNL     1      34.650 -19.309 -20.620  0.00  0.00    +0.101 C 
BRANCH  24  25
ATOM     25  C   UNL     1      35.908 -20.180 -20.754  0.00  0.00    +0.022 C 
ATOM     26  C   UNL     1      35.966 -21.293 -19.716  0.00  0.00    +0.002 C 
ENDBRANCH  24  25
BRANCH  24  27
ATOM     27  C   UNL     1      33.425 -20.040 -21.169  0.00  0.00    +0.157 C 
BRANCH  27  28
ATOM     28  O   UNL     1      32.435 -20.134 -20.150  0.00  0.00    -0.380 OA
ATOM     29  H   UNL     1      32.839 -19.947 -19.289  0.00  0.00    +0.211 HD
ENDBRANCH  27  28
ENDBRANCH  24  27
ENDBRANCH  21  24
ENDBRANCH   6  22
TORSDOF 5
ENDMDL
MODEL 8
REMARK VINA RESULT:      -8.9      7.680     10.178
REMARK  Name = 6540428
REMARK  5 active torsions:
REMARK  status: ('A' for Active; 'I' for Inactive)
REMARK    1  A    between atoms: C_6  and  C_22
REMARK    2  A    between atoms: N_21  and  CA_24
REMARK    3  A    between atoms: CA_24  and  C_25
REMARK    4  A    between atoms: CA_24  and  C_27
REMARK    5  A    between atoms: C_27  and  O_28
REMARK                            x       y       z     vdW  Elec       q    Type
REMARK                         _______ _______ _______ _____ _____    ______ ____
ROOT
ATOM      1  N   UNL     1      35.158 -22.232 -17.278  0.00  0.00    +0.390 N 
ATOM      2  N   UNL     1      29.409 -23.613 -16.257  0.00  0.00    -0.284 N 
ATOM      3  C   UNL     1      33.956 -23.023 -16.889  0.00  0.00    -0.031 C 
ATOM      4  C   UNL     1      33.906 -23.344 -15.365  0.00  0.00    -0.045 C 
ATOM      5  C   UNL     1      32.663 -22.292 -17.407  0.00  0.00    +0.011 C 
ATOM      6  C   UNL     1      36.266 -22.611 -15.109  0.00  0.00    +0.077 C 
ATOM      7  C   UNL     1      36.367 -22.759 -16.629  0.00  0.00    -0.063 C 
ATOM      8  C   UNL     1      31.437 -22.896 -16.820  0.00  0.00    -0.008 C 
ATOM      9  C   UNL     1      32.643 -23.891 -14.819  0.00  0.00    -0.005 C 
ATOM     10  C   UNL     1      31.522 -23.618 -15.610  0.00  0.00    +0.010 C 
ATOM     11  C   UNL     1      34.964 -23.113 -14.567  0.00  0.00    -0.026 C 
ATOM     12  C   UNL     1      30.255 -24.058 -15.264  0.00  0.00    +0.051 C 
ATOM     13  C   UNL     1      30.117 -22.905 -17.205  0.00  0.00    +0.061 C 
ATOM     14  C   UNL     1      35.360 -22.209 -18.732  0.00  0.00    -0.100 C 
ATOM     15  C   UNL     1      32.438 -24.634 -13.651  0.00  0.00    -0.000 C 
ATOM     16  C   UNL     1      30.032 -24.800 -14.102  0.00  0.00    +0.015 C 
ATOM     17  C   UNL     1      31.152 -25.077 -13.305  0.00  0.00    +0.001 C 
ATOM     18  C   UNL     1      27.982 -23.843 -16.310  0.00  0.00    +0.117 C 
ATOM     19  H   UNL     1      34.990 -21.277 -16.965  0.00  0.00    -0.079 HD
ENDROOT
BRANCH   6  22
ATOM     20  O   UNL     1      37.951 -22.997 -13.463  0.00  0.00    -0.275 OA
ATOM     21  N   UNL     1      37.583 -24.611 -15.100  0.00  0.00    -0.303 N 
ATOM     22  C   UNL     1      37.350 -23.410 -14.452  0.00  0.00    +0.224 C 
ATOM     23  H   UNL     1      37.033 -24.833 -15.886  0.00  0.00    +0.149 HD
BRANCH  21  24
ATOM     24  CA  UNL     1      38.592 -25.554 -14.678  0.00  0.00    +0.101 C 
BRANCH  24  25
ATOM     25  C   UNL     1      38.552 -25.758 -13.157  0.00  0.00    +0.022 C 
ATOM     26  C   UNL     1      37.230 -26.343 -12.677  0.00  0.00    +0.002 C 
ENDBRANCH  24  25
BRANCH  24  27
ATOM     27  C   UNL     1      39.973 -25.069 -15.122  0.00  0.00    +0.157 C 
BRANCH  27  28
ATOM     28  O   UNL     1      40.456 -25.910 -16.164  0.00  0.00    -0.380 OA
ATOM     29  H   UNL     1      41.322 -25.590 -16.462  0.00  0.00    +0.211 HD
ENDBRANCH  27  28
ENDBRANCH  24  27
ENDBRANCH  21  24
ENDBRANCH   6  22
TORSDOF 5
ENDMDL
MODEL 9
REMARK VINA RESULT:      -8.6      2.908      5.476
REMARK  Name = 6540428
REMARK  5 active torsions:
REMARK  status: ('A' for Active; 'I' for Inactive)
REMARK    1  A    between atoms: C_6  and  C_22
REMARK    2  A    between atoms: N_21  and  CA_24
REMARK    3  A    between atoms: CA_24  and  C_25
REMARK    4  A    between atoms: CA_24  and  C_27
REMARK    5  A    between atoms: C_27  and  O_28
REMARK                            x       y       z     vdW  Elec       q    Type
REMARK                         _______ _______ _______ _____ _____    ______ ____
ROOT
ATOM      1  N   UNL     1      32.243 -14.004 -21.728  0.00  0.00    +0.390 N 
ATOM      2  N   UNL     1      32.765  -8.150 -22.931  0.00  0.00    -0.284 N 
ATOM      3  C   UNL     1      32.872 -12.693 -22.054  0.00  0.00    -0.031 C 
ATOM      4  C   UNL     1      33.488 -12.651 -23.485  0.00  0.00    -0.045 C 
ATOM      5  C   UNL     1      31.832 -11.540 -21.798  0.00  0.00    +0.011 C 
ATOM      6  C   UNL     1      33.253 -15.116 -23.683  0.00  0.00    +0.077 C 
ATOM      7  C   UNL     1      33.098 -15.119 -22.161  0.00  0.00    -0.063 C 
ATOM      8  C   UNL     1      32.317 -10.249 -22.355  0.00  0.00    -0.008 C 
ATOM      9  C   UNL     1      33.903 -11.333 -24.015  0.00  0.00    -0.005 C 
ATOM     10  C   UNL     1      33.278 -10.250 -23.389  0.00  0.00    +0.010 C 
ATOM     11  C   UNL     1      33.618 -13.768 -24.222  0.00  0.00    -0.026 C 
ATOM     12  C   UNL     1      33.549  -8.939 -23.746  0.00  0.00    +0.051 C 
ATOM     13  C   UNL     1      32.013  -8.936 -22.086  0.00  0.00    +0.061 C 
ATOM     14  C   UNL     1      31.955 -14.142 -20.296  0.00  0.00    -0.100 C 
ATOM     15  C   UNL     1      34.824 -11.043 -25.029  0.00  0.00    -0.000 C 
ATOM     16  C   UNL     1      34.464  -8.632 -24.754  0.00  0.00    +0.015 C 
ATOM     17  C   UNL     1      35.095  -9.713 -25.387  0.00  0.00    +0.001 C 
ATOM     18  C   UNL     1      32.723  -6.704 -22.954  0.00  0.00    +0.117 C 
ATOM     19  H   UNL     1      31.359 -14.036 -22.235  0.00  0.00    -0.079 HD
ENDROOT
BRANCH   6  22
ATOM     20  O   UNL     1      34.930 -15.959 -25.157  0.00  0.00    -0.275 OA
ATOM     21  N   UNL     1      34.589 -17.021 -23.114  0.00  0.00    -0.303 N 
ATOM     22  C   UNL     1      34.350 -16.058 -24.079  0.00  0.00    +0.224 C 
ATOM     23  H   UNL     1      34.057 -16.997 -22.286  0.00  0.00    +0.149 HD
BRANCH  21  24
ATOM     24  CA  UNL     1      35.582 -18.060 -23.263  0.00  0.00    +0.101 C 
BRANCH  24  25
ATOM     25  C   UNL     1      34.927 -19.390 -23.665  0.00  0.00    +0.022 C 
ATOM     26  C   UNL     1      34.482 -19.409 -25.121  0.00  0.00    +0.002 C 
ENDBRANCH  24  25
BRANCH  24  27
ATOM     27  C   UNL     1      36.368 -18.216 -21.962  0.00  0.00    +0.157 C 
BRANCH  27  28
ATOM     28  O   UNL     1      35.543 -17.843 -20.863  0.00  0.00    -0.380 OA
ATOM     29  H   UNL     1      34.611 -17.942 -21.111  0.00  0.00    +0.211 HD
ENDBRANCH  27  28
ENDBRANCH  24  27
ENDBRANCH  21  24
ENDBRANCH   6  22
TORSDOF 5
ENDMDL
