MODEL 1
REMARK VINA RESULT:      -9.3      0.000      0.000
REMARK  Name = 447834
REMARK  5 active torsions:
REMARK  status: ('A' for Active; 'I' for Inactive)
REMARK    1  A    between atoms: C_1  and  C_15
REMARK    2  A    between atoms: C_4  and  C_8
REMARK    3  A    between atoms: C_8  and  C_11
REMARK    4  A    between atoms: C_15  and  C_18
REMARK    5  A    between atoms: C_18  and  O_19
REMARK                            x       y       z     vdW  Elec       q    Type
REMARK                         _______ _______ _______ _____ _____    ______ ____
ROOT
ATOM      1  C   UNL     1      35.109 -19.403 -20.820  0.00  0.00    -0.012 C 
ATOM      2  C   UNL     1      36.096 -20.287 -20.382  0.00  0.00    -0.004 C 
ATOM      3  C   UNL     1      33.762 -19.718 -20.639  0.00  0.00    -0.004 C 
ATOM      4  C   UNL     1      34.389 -21.799 -19.584  0.00  0.00    +0.039 C 
ATOM      5  C   UNL     1      35.736 -21.485 -19.765  0.00  0.00    +0.003 C 
ATOM      6  C   UNL     1      33.401 -20.916 -20.021  0.00  0.00    +0.003 C 
ENDROOT
BRANCH   4   8
ATOM      7  O   UNL     1      33.912 -24.056 -19.659  0.00  0.00    -0.286 OA
ATOM      8  C   UNL     1      34.014 -23.048 -18.939  0.00  0.00    +0.201 C 
BRANCH   8  11
ATOM      9  I   UNL     1      31.312 -23.430 -13.762  0.00  0.00    -0.035 I 
ATOM     10  S   UNL     1      32.141 -23.274 -16.993  0.00  0.00    -0.078 S 
ATOM     11  C   UNL     1      33.747 -23.108 -17.487  0.00  0.00    +0.069 C 
ATOM     12  C   UNL     1      34.650 -23.044 -16.492  0.00  0.00    +0.011 C 
ATOM     13  C   UNL     1      34.002 -23.137 -15.227  0.00  0.00    +0.013 C 
ATOM     14  C   UNL     1      32.637 -23.265 -15.353  0.00  0.00    +0.059 C 
ENDBRANCH   8  11
ENDBRANCH   4   8
BRANCH   1  15
ATOM     15  C   UNL     1      35.494 -18.124 -21.480  0.00  0.00    +0.121 C 
ATOM     16  C   UNL     1      34.689 -16.903 -20.989  0.00  0.00    +0.016 C 
BRANCH  15  18
ATOM     17  O   UNL     1      35.080 -19.202 -23.633  0.00  0.00    -0.250 OA
ATOM     18  C   UNL     1      35.401 -18.199 -23.008  0.00  0.00    +0.317 C 
BRANCH  18  19
ATOM     19  O   UNL     1      35.724 -17.030 -23.621  0.00  0.00    -0.480 OA
ATOM     20  H   UNL     1      35.478 -16.213 -23.232  0.00  0.00    +0.295 HD
ENDBRANCH  18  19
ENDBRANCH  15  18
ENDBRANCH   1  15
TORSDOF 5
ENDMDL
MODEL 2
REMARK VINA RESULT:      -9.2      2.014      2.630
REMARK  Name = 447834
REMARK  5 active torsions:
REMARK  status: ('A' for Active; 'I' for Inactive)
REMARK    1  A    between atoms: C_1  and  C_15
REMARK    2  A    between atoms: C_4  and  C_8
REMARK    3  A    between atoms: C_8  and  C_11
REMARK    4  A    between atoms: C_15  and  C_18
REMARK    5  A    between atoms: C_18  and  O_19
REMARK                            x       y       z     vdW  Elec       q    Type
REMARK                         _______ _______ _______ _____ _____    ______ ____
ROOT
ATOM      1  C   UNL     1      34.424 -19.477 -21.294  0.00  0.00    -0.012 C 
ATOM      2  C   UNL     1      33.227 -19.881 -20.702  0.00  0.00    -0.004 C 
ATOM      3  C   UNL     1      35.620 -20.103 -20.944  0.00  0.00    -0.004 C 
ATOM      4  C   UNL     1      34.424 -21.536 -19.412  0.00  0.00    +0.039 C 
ATOM      5  C   UNL     1      33.227 -20.911 -19.761  0.00  0.00    +0.003 C 
ATOM      6  C   UNL     1      35.621 -21.133 -20.004  0.00  0.00    +0.003 C 
ENDROOT
BRANCH   4   8
ATOM      7  O   UNL     1      33.597 -23.525 -18.583  0.00  0.00    -0.286 OA
ATOM      8  C   UNL     1      34.425 -22.611 -18.431  0.00  0.00    +0.201 C 
BRANCH   8  11
ATOM      9  I   UNL     1      36.841 -23.498 -13.176  0.00  0.00    -0.035 I 
ATOM     10  S   UNL     1      34.881 -23.392 -15.877  0.00  0.00    -0.078 S 
ATOM     11  C   UNL     1      35.363 -22.603 -17.289  0.00  0.00    +0.069 C 
ATOM     12  C   UNL     1      36.578 -22.030 -17.241  0.00  0.00    +0.011 C 
ATOM     13  C   UNL     1      37.176 -22.241 -15.965  0.00  0.00    +0.013 C 
ATOM     14  C   UNL     1      36.360 -22.967 -15.126  0.00  0.00    +0.059 C 
ENDBRANCH   8  11
ENDBRANCH   4   8
BRANCH   1  15
ATOM     15  C   UNL     1      34.424 -18.376 -22.299  0.00  0.00    +0.121 C 
ATOM     16  C   UNL     1      35.005 -18.784 -23.668  0.00  0.00    +0.016 C 
BRANCH  15  18
ATOM     17  O   UNL     1      35.229 -16.789 -20.625  0.00  0.00    -0.250 OA
ATOM     18  C   UNL     1      35.153 -17.123 -21.801  0.00  0.00    +0.317 C 
BRANCH  18  19
ATOM     19  O   UNL     1      35.712 -16.397 -22.804  0.00  0.00    -0.480 OA
ATOM     20  H   UNL     1      35.517 -16.603 -23.697  0.00  0.00    +0.295 HD
ENDBRANCH  18  19
ENDBRANCH  15  18
ENDBRANCH   1  15
TORSDOF 5
ENDMDL
MODEL 3
REMARK VINA RESULT:      -9.0      1.414      1.964
REMARK  Name = 447834
REMARK  5 active torsions:
REMARK  status: ('A' for Active; 'I' for Inactive)
REMARK    1  A    between atoms: C_1  and  C_15
REMARK    2  A    between atoms: C_4  and  C_8
REMARK    3  A    between atoms: C_8  and  C_11
REMARK    4  A    between atoms: C_15  and  C_18
REMARK    5  A    between atoms: C_18  and  O_19
REMARK                            x       y       z     vdW  Elec       q    Type
REMARK                         _______ _______ _______ _____ _____    ______ ____
ROOT
ATOM      1  C   UNL     1      34.296 -19.275 -21.058  0.00  0.00    -0.012 C 
ATOM      2  C   UNL     1      33.040 -19.779 -20.720  0.00  0.00    -0.004 C 
ATOM      3  C   UNL     1      35.446 -19.990 -20.722  0.00  0.00    -0.004 C 
ATOM      4  C   UNL     1      34.085 -21.710 -19.711  0.00  0.00    +0.039 C 
ATOM      5  C   UNL     1      32.934 -20.996 -20.046  0.00  0.00    +0.003 C 
ATOM      6  C   UNL     1      35.341 -21.207 -20.049  0.00  0.00    +0.003 C 
ENDROOT
BRANCH   4   8
ATOM      7  O   UNL     1      34.052 -24.017 -19.688  0.00  0.00    -0.286 OA
ATOM      8  C   UNL     1      33.975 -22.979 -19.009  0.00  0.00    +0.201 C 
BRANCH   8  11
ATOM      9  I   UNL     1      31.465 -23.334 -13.735  0.00  0.00    -0.035 I 
ATOM     10  S   UNL     1      32.176 -23.201 -16.994  0.00  0.00    -0.078 S 
ATOM     11  C   UNL     1      33.761 -23.029 -17.548  0.00  0.00    +0.069 C 
ATOM     12  C   UNL     1      34.700 -22.950 -16.587  0.00  0.00    +0.011 C 
ATOM     13  C   UNL     1      34.099 -23.037 -15.298  0.00  0.00    +0.013 C 
ATOM     14  C   UNL     1      32.730 -23.175 -15.374  0.00  0.00    +0.059 C 
ENDBRANCH   8  11
ENDBRANCH   4   8
BRANCH   1  15
ATOM     15  C   UNL     1      34.409 -17.975 -21.777  0.00  0.00    +0.121 C 
ATOM     16  C   UNL     1      35.784 -17.745 -22.436  0.00  0.00    +0.016 C 
BRANCH  15  18
ATOM     17  O   UNL     1      32.987 -16.222 -20.840  0.00  0.00    -0.250 OA
ATOM     18  C   UNL     1      34.079 -16.776 -20.881  0.00  0.00    +0.317 C 
BRANCH  18  19
ATOM     19  O   UNL     1      35.133 -16.368 -20.126  0.00  0.00    -0.480 OA
ATOM     20  H   UNL     1      35.526 -15.532 -20.282  0.00  0.00    +0.295 HD
ENDBRANCH  18  19
ENDBRANCH  15  18
ENDBRANCH   1  15
TORSDOF 5
ENDMDL
MODEL 4
REMARK VINA RESULT:      -8.9      4.612      7.651
REMARK  Name = 447834
REMARK  5 active torsions:
REMARK  status: ('A' for Active; 'I' for Inactive)
REMARK    1  A    between atoms: C_1  and  C_15
REMARK    2  A    between atoms: C_4  and  C_8
REMARK    3  A    between atoms: C_8  and  C_11
REMARK    4  A    between atoms: C_15  and  C_18
REMARK    5  A    between atoms: C_18  and  O_19
REMARK                            x       y       z     vdW  Elec       q    Type
REMARK                         _______ _______ _______ _____ _____    ______ ____
ROOT
ATOM      1  C   UNL     1      34.785 -20.643 -19.895  0.00  0.00    -0.012 C 
ATOM      2  C   UNL     1      35.993 -20.144 -20.385  0.00  0.00    -0.004 C 
ATOM      3  C   UNL     1      33.582 -20.263 -20.490  0.00  0.00    -0.004 C 
ATOM      4  C   UNL     1      34.792 -18.887 -22.064  0.00  0.00    +0.039 C 
ATOM      5  C   UNL     1      35.996 -19.266 -21.469  0.00  0.00    +0.003 C 
ATOM      6  C   UNL     1      33.584 -19.385 -21.574  0.00  0.00    +0.003 C 
ENDROOT
BRANCH   4   8
ATOM      7  O   UNL     1      35.010 -18.453 -24.320  0.00  0.00    -0.286 OA
ATOM      8  C   UNL     1      34.795 -17.972 -23.194  0.00  0.00    +0.201 C 
BRANCH   8  11
ATOM      9  I   UNL     1      33.565 -12.333 -24.165  0.00  0.00    -0.035 I 
ATOM     10  S   UNL     1      34.124 -15.620 -24.361  0.00  0.00    -0.078 S 
ATOM     11  C   UNL     1      34.570 -16.523 -23.006  0.00  0.00    +0.069 C 
ATOM     12  C   UNL     1      34.682 -15.826 -21.862  0.00  0.00    +0.011 C 
ATOM     13  C   UNL     1      34.383 -14.451 -22.087  0.00  0.00    +0.013 C 
ATOM     14  C   UNL     1      34.064 -14.200 -23.403  0.00  0.00    +0.059 C 
ENDBRANCH   8  11
ENDBRANCH   4   8
BRANCH   1  15
ATOM     15  C   UNL     1      34.782 -21.581 -18.737  0.00  0.00    +0.121 C 
ATOM     16  C   UNL     1      36.187 -22.061 -18.321  0.00  0.00    +0.016 C 
BRANCH  15  18
ATOM     17  O   UNL     1      34.181 -23.746 -19.696  0.00  0.00    -0.250 OA
ATOM     18  C   UNL     1      33.887 -22.803 -18.972  0.00  0.00    +0.317 C 
BRANCH  18  19
ATOM     19  O   UNL     1      32.709 -22.740 -18.297  0.00  0.00    -0.480 OA
ATOM     20  H   UNL     1      32.066 -22.102 -18.536  0.00  0.00    +0.295 HD
ENDBRANCH  18  19
ENDBRANCH  15  18
ENDBRANCH   1  15
TORSDOF 5
ENDMDL
MODEL 5
REMARK VINA RESULT:      -8.8      4.879      8.016
REMARK  Name = 447834
REMARK  5 active torsions:
REMARK  status: ('A' for Active; 'I' for Inactive)
REMARK    1  A    between atoms: C_1  and  C_15
REMARK    2  A    between atoms: C_4  and  C_8
REMARK    3  A    between atoms: C_8  and  C_11
REMARK    4  A    between atoms: C_15  and  C_18
REMARK    5  A    between atoms: C_18  and  O_19
REMARK                            x       y       z     vdW  Elec       q    Type
REMARK                         _______ _______ _______ _____ _____    ______ ____
ROOT
ATOM      1  C   UNL     1      35.138 -20.663 -20.127  0.00  0.00    -0.012 C 
ATOM      2  C   UNL     1      33.884 -20.107 -20.386  0.00  0.00    -0.004 C 
ATOM      3  C   UNL     1      36.293 -19.927 -20.387  0.00  0.00    -0.004 C 
ATOM      4  C   UNL     1      34.944 -18.079 -21.162  0.00  0.00    +0.039 C 
ATOM      5  C   UNL     1      33.787 -18.815 -20.903  0.00  0.00    +0.003 C 
ATOM      6  C   UNL     1      36.197 -18.635 -20.904  0.00  0.00    +0.003 C 
ENDROOT
BRANCH   4   8
ATOM      7  O   UNL     1      35.013 -15.786 -20.913  0.00  0.00    -0.286 OA
ATOM      8  C   UNL     1      34.843 -16.732 -21.701  0.00  0.00    +0.201 C 
BRANCH   8  11
ATOM      9  I   UNL     1      32.922 -14.350 -26.689  0.00  0.00    -0.035 I 
ATOM     10  S   UNL     1      33.722 -15.076 -23.529  0.00  0.00    -0.078 S 
ATOM     11  C   UNL     1      34.534 -16.500 -23.127  0.00  0.00    +0.069 C 
ATOM     12  C   UNL     1      34.827 -17.307 -24.163  0.00  0.00    +0.011 C 
ATOM     13  C   UNL     1      34.364 -16.735 -25.383  0.00  0.00    +0.013 C 
ATOM     14  C   UNL     1      33.743 -15.522 -25.183  0.00  0.00    +0.059 C 
ENDBRANCH   8  11
ENDBRANCH   4   8
BRANCH   1  15
ATOM     15  C   UNL     1      35.241 -22.044 -19.575  0.00  0.00    +0.121 C 
ATOM     16  C   UNL     1      33.893 -22.792 -19.514  0.00  0.00    +0.016 C 
BRANCH  15  18
ATOM     17  O   UNL     1      36.914 -21.472 -17.889  0.00  0.00    -0.250 OA
ATOM     18  C   UNL     1      35.891 -22.076 -18.187  0.00  0.00    +0.317 C 
BRANCH  18  19
ATOM     19  O   UNL     1      35.221 -22.859 -17.302  0.00  0.00    -0.480 OA
ATOM     20  H   UNL     1      35.486 -23.748 -17.169  0.00  0.00    +0.295 HD
ENDBRANCH  18  19
ENDBRANCH  15  18
ENDBRANCH   1  15
TORSDOF 5
ENDMDL
MODEL 6
REMARK VINA RESULT:      -8.7      4.470      7.460
REMARK  Name = 447834
REMARK  5 active torsions:
REMARK  status: ('A' for Active; 'I' for Inactive)
REMARK    1  A    between atoms: C_1  and  C_15
REMARK    2  A    between atoms: C_4  and  C_8
REMARK    3  A    between atoms: C_8  and  C_11
REMARK    4  A    between atoms: C_15  and  C_18
REMARK    5  A    between atoms: C_18  and  O_19
REMARK                            x       y       z     vdW  Elec       q    Type
REMARK                         _______ _______ _______ _____ _____    ______ ____
ROOT
ATOM      1  C   UNL     1      35.194 -20.617 -20.223  0.00  0.00    -0.012 C 
ATOM      2  C   UNL     1      33.916 -20.174 -20.564  0.00  0.00    -0.004 C 
ATOM      3  C   UNL     1      36.312 -19.874 -20.600  0.00  0.00    -0.004 C 
ATOM      4  C   UNL     1      34.876 -18.247 -21.660  0.00  0.00    +0.039 C 
ATOM      5  C   UNL     1      33.757 -18.989 -21.283  0.00  0.00    +0.003 C 
ATOM      6  C   UNL     1      36.154 -18.689 -21.319  0.00  0.00    +0.003 C 
ENDROOT
BRANCH   4   8
ATOM      7  O   UNL     1      35.237 -16.947 -23.533  0.00  0.00    -0.286 OA
ATOM      8  C   UNL     1      34.710 -17.011 -22.409  0.00  0.00    +0.201 C 
BRANCH   8  11
ATOM      9  I   UNL     1      31.739 -12.000 -21.855  0.00  0.00    -0.035 I 
ATOM     10  S   UNL     1      33.449 -14.666 -22.913  0.00  0.00    -0.078 S 
ATOM     11  C   UNL     1      33.959 -15.870 -21.846  0.00  0.00    +0.069 C 
ATOM     12  C   UNL     1      33.628 -15.673 -20.557  0.00  0.00    +0.011 C 
ATOM     13  C   UNL     1      32.903 -14.456 -20.411  0.00  0.00    +0.013 C 
ATOM     14  C   UNL     1      32.735 -13.807 -21.614  0.00  0.00    +0.059 C 
ENDBRANCH   8  11
ENDBRANCH   4   8
BRANCH   1  15
ATOM     15  C   UNL     1      35.363 -21.883 -19.455  0.00  0.00    +0.121 C 
ATOM     16  C   UNL     1      34.035 -22.601 -19.138  0.00  0.00    +0.016 C 
BRANCH  15  18
ATOM     17  O   UNL     1      36.951 -20.780 -17.961  0.00  0.00    -0.250 OA
ATOM     18  C   UNL     1      36.144 -21.681 -18.151  0.00  0.00    +0.317 C 
BRANCH  18  19
ATOM     19  O   UNL     1      35.861 -22.618 -17.209  0.00  0.00    -0.480 OA
ATOM     20  H   UNL     1      35.995 -22.426 -16.302  0.00  0.00    +0.295 HD
ENDBRANCH  18  19
ENDBRANCH  15  18
ENDBRANCH   1  15
TORSDOF 5
ENDMDL
MODEL 7
REMARK VINA RESULT:      -8.7      3.652      5.874
REMARK  Name = 447834
REMARK  5 active torsions:
REMARK  status: ('A' for Active; 'I' for Inactive)
REMARK    1  A    between atoms: C_1  and  C_15
REMARK    2  A    between atoms: C_4  and  C_8
REMARK    3  A    between atoms: C_8  and  C_11
REMARK    4  A    between atoms: C_15  and  C_18
REMARK    5  A    between atoms: C_18  and  O_19
REMARK                            x       y       z     vdW  Elec       q    Type
REMARK                         _______ _______ _______ _____ _____    ______ ____
ROOT
ATOM      1  C   UNL     1      33.658 -14.984 -23.842  0.00  0.00    -0.012 C 
ATOM      2  C   UNL     1      33.894 -14.970 -22.467  0.00  0.00    -0.004 C 
ATOM      3  C   UNL     1      34.034 -16.091 -24.602  0.00  0.00    -0.004 C 
ATOM      4  C   UNL     1      34.881 -17.171 -22.614  0.00  0.00    +0.039 C 
ATOM      5  C   UNL     1      34.505 -16.064 -21.853  0.00  0.00    +0.003 C 
ATOM      6  C   UNL     1      34.645 -17.185 -23.989  0.00  0.00    +0.003 C 
ENDROOT
BRANCH   4   8
ATOM      7  O   UNL     1      36.744 -18.442 -22.126  0.00  0.00    -0.286 OA
ATOM      8  C   UNL     1      35.517 -18.311 -21.975  0.00  0.00    +0.201 C 
BRANCH   8  11
ATOM      9  I   UNL     1      34.002 -22.775 -18.506  0.00  0.00    -0.035 I 
ATOM     10  S   UNL     1      35.578 -20.473 -20.340  0.00  0.00    -0.078 S 
ATOM     11  C   UNL     1      34.730 -19.286 -21.190  0.00  0.00    +0.069 C 
ATOM     12  C   UNL     1      33.391 -19.341 -21.072  0.00  0.00    +0.011 C 
ATOM     13  C   UNL     1      33.012 -20.424 -20.228  0.00  0.00    +0.013 C 
ATOM     14  C   UNL     1      34.103 -21.123 -19.762  0.00  0.00    +0.059 C 
ENDBRANCH   8  11
ENDBRANCH   4   8
BRANCH   1  15
ATOM     15  C   UNL     1      33.005 -13.815 -24.497  0.00  0.00    +0.121 C 
ATOM     16  C   UNL     1      33.339 -13.676 -25.997  0.00  0.00    +0.016 C 
BRANCH  15  18
ATOM     17  O   UNL     1      32.632 -11.994 -22.911  0.00  0.00    -0.250 OA
ATOM     18  C   UNL     1      33.323 -12.491 -23.792  0.00  0.00    +0.317 C 
BRANCH  18  19
ATOM     19  O   UNL     1      34.459 -11.903 -24.249  0.00  0.00    -0.480 OA
ATOM     20  H   UNL     1      34.895 -12.247 -25.003  0.00  0.00    +0.295 HD
ENDBRANCH  18  19
ENDBRANCH  15  18
ENDBRANCH   1  15
TORSDOF 5
ENDMDL
MODEL 8
REMARK VINA RESULT:      -8.5      4.167      8.111
REMARK  Name = 447834
REMARK  5 active torsions:
REMARK  status: ('A' for Active; 'I' for Inactive)
REMARK    1  A    between atoms: C_1  and  C_15
REMARK    2  A    between atoms: C_4  and  C_8
REMARK    3  A    between atoms: C_8  and  C_11
REMARK    4  A    between atoms: C_15  and  C_18
REMARK    5  A    between atoms: C_18  and  O_19
REMARK                            x       y       z     vdW  Elec       q    Type
REMARK                         _______ _______ _______ _____ _____    ______ ____
ROOT
ATOM      1  C   UNL     1      35.591 -23.374 -13.777  0.00  0.00    -0.012 C 
ATOM      2  C   UNL     1      34.250 -23.596 -14.092  0.00  0.00    -0.004 C 
ATOM      3  C   UNL     1      36.500 -23.054 -14.785  0.00  0.00    -0.004 C 
ATOM      4  C   UNL     1      34.728 -23.178 -16.423  0.00  0.00    +0.039 C 
ATOM      5  C   UNL     1      33.819 -23.498 -15.415  0.00  0.00    +0.003 C 
ATOM      6  C   UNL     1      36.069 -22.955 -16.109  0.00  0.00    +0.003 C 
ENDROOT
BRANCH   4   8
ATOM      7  O   UNL     1      33.410 -23.878 -18.183  0.00  0.00    -0.286 OA
ATOM      8  C   UNL     1      34.279 -23.075 -17.802  0.00  0.00    +0.201 C 
BRANCH   8  11
ATOM      9  I   UNL     1      34.849 -18.913 -21.877  0.00  0.00    -0.035 I 
ATOM     10  S   UNL     1      33.780 -21.234 -19.728  0.00  0.00    -0.078 S 
ATOM     11  C   UNL     1      34.848 -22.065 -18.719  0.00  0.00    +0.069 C 
ATOM     12  C   UNL     1      36.143 -21.723 -18.847  0.00  0.00    +0.011 C 
ATOM     13  C   UNL     1      36.293 -20.709 -19.837  0.00  0.00    +0.013 C 
ATOM     14  C   UNL     1      35.086 -20.351 -20.396  0.00  0.00    +0.059 C 
ENDBRANCH   8  11
ENDBRANCH   4   8
BRANCH   1  15
ATOM     15  C   UNL     1      36.052 -23.479 -12.363  0.00  0.00    +0.121 C 
ATOM     16  C   UNL     1      37.521 -23.059 -12.155  0.00  0.00    +0.016 C 
BRANCH  15  18
ATOM     17  O   UNL     1      35.268 -25.116 -10.727  0.00  0.00    -0.250 OA
ATOM     18  C   UNL     1      35.847 -24.882 -11.780  0.00  0.00    +0.317 C 
BRANCH  18  19
ATOM     19  O   UNL     1      36.387 -25.864 -12.550  0.00  0.00    -0.480 OA
ATOM     20  H   UNL     1      36.355 -25.797 -13.484  0.00  0.00    +0.295 HD
ENDBRANCH  18  19
ENDBRANCH  15  18
ENDBRANCH   1  15
TORSDOF 5
ENDMDL
MODEL 9
REMARK VINA RESULT:      -8.4      3.354      5.569
REMARK  Name = 447834
REMARK  5 active torsions:
REMARK  status: ('A' for Active; 'I' for Inactive)
REMARK    1  A    between atoms: C_1  and  C_15
REMARK    2  A    between atoms: C_4  and  C_8
REMARK    3  A    between atoms: C_8  and  C_11
REMARK    4  A    between atoms: C_15  and  C_18
REMARK    5  A    between atoms: C_18  and  O_19
REMARK                            x       y       z     vdW  Elec       q    Type
REMARK                         _______ _______ _______ _____ _____    ______ ____
ROOT
ATOM      1  C   UNL     1      34.141 -14.591 -22.774  0.00  0.00    -0.012 C 
ATOM      2  C   UNL     1      34.519 -15.513 -23.752  0.00  0.00    -0.004 C 
ATOM      3  C   UNL     1      34.267 -14.918 -21.424  0.00  0.00    -0.004 C 
ATOM      4  C   UNL     1      35.148 -17.084 -22.028  0.00  0.00    +0.039 C 
ATOM      5  C   UNL     1      35.023 -16.759 -23.378  0.00  0.00    +0.003 C 
ATOM      6  C   UNL     1      34.771 -16.164 -21.050  0.00  0.00    +0.003 C 
ENDROOT
BRANCH   4   8
ATOM      7  O   UNL     1      36.860 -18.628 -21.915  0.00  0.00    -0.286 OA
ATOM      8  C   UNL     1      35.674 -18.383 -21.638  0.00  0.00    +0.201 C 
BRANCH   8  11
ATOM      9  I   UNL     1      33.864 -22.944 -18.448  0.00  0.00    -0.035 I 
ATOM     10  S   UNL     1      35.593 -20.592 -20.069  0.00  0.00    -0.078 S 
ATOM     11  C   UNL     1      34.822 -19.379 -20.955  0.00  0.00    +0.069 C 
ATOM     12  C   UNL     1      33.477 -19.436 -20.957  0.00  0.00    +0.011 C 
ATOM     13  C   UNL     1      33.026 -20.543 -20.182  0.00  0.00    +0.013 C 
ATOM     14  C   UNL     1      34.073 -21.257 -19.642  0.00  0.00    +0.059 C 
ENDBRANCH   8  11
ENDBRANCH   4   8
BRANCH   1  15
ATOM     15  C   UNL     1      33.603 -13.260 -23.173  0.00  0.00    +0.121 C 
ATOM     16  C   UNL     1      32.268 -12.899 -22.491  0.00  0.00    +0.016 C 
BRANCH  15  18
ATOM     17  O   UNL     1      34.005 -12.276 -25.373  0.00  0.00    -0.250 OA
ATOM     18  C   UNL     1      33.440 -13.122 -24.691  0.00  0.00    +0.317 C 
BRANCH  18  19
ATOM     19  O   UNL     1      32.587 -14.037 -25.222  0.00  0.00    -0.480 OA
ATOM     20  H   UNL     1      32.914 -14.858 -25.533  0.00  0.00    +0.295 HD
ENDBRANCH  18  19
ENDBRANCH  15  18
ENDBRANCH   1  15
TORSDOF 5
ENDMDL
