MODEL 1
REMARK VINA RESULT:      -8.0      0.000      0.000
REMARK  Name = 133246
REMARK  4 active torsions:
REMARK  status: ('A' for Active; 'I' for Inactive)
REMARK    1  A    between atoms: C_7  and  C_16
REMARK    2  A    between atoms: C_16  and  O_17
REMARK    3  A    between atoms: C_16  and  C_19
REMARK    4  A    between atoms: C_19  and  O_21
REMARK                            x       y       z     vdW  Elec       q    Type
REMARK                         _______ _______ _______ _____ _____    ______ ____
ROOT
ATOM      1  O   UNL     1      36.446 -25.773 -11.939  0.00  0.00    -0.208 OA
ATOM      2  N   UNL     1      35.273 -24.652 -14.106  0.00  0.00    -0.253 NA
ATOM      3  N   UNL     1      37.077 -23.321 -15.911  0.00  0.00    -0.252 NA
ATOM      4  N   UNL     1      38.704 -24.854 -15.067  0.00  0.00    -0.259 N 
ATOM      5  N   UNL     1      38.422 -26.142 -13.069  0.00  0.00    -0.301 NA
ATOM      6  N   UNL     1      40.405 -26.220 -14.325  0.00  0.00    -0.320 N 
ATOM      7  C   UNL     1      34.781 -23.951 -15.296  0.00  0.00    +0.158 C 
ATOM      8  C   UNL     1      35.724 -22.814 -15.670  0.00  0.00    +0.154 C 
ATOM      9  C   UNL     1      36.551 -24.803 -14.055  0.00  0.00    +0.202 C 
ATOM     10  C   UNL     1      37.467 -24.253 -15.110  0.00  0.00    +0.160 C 
ATOM     11  C   UNL     1      37.149 -25.618 -12.931  0.00  0.00    +0.228 C 
ATOM     12  C   UNL     1      39.132 -25.757 -14.102  0.00  0.00    +0.249 C 
ATOM     13  H   UNL     1      39.340 -24.624 -15.782  0.00  0.00    +0.157 HD
ATOM     14  H   UNL     1      40.911 -25.910 -15.110  0.00  0.00    +0.146 HD
ATOM     15  H   UNL     1      40.813 -26.861 -13.699  0.00  0.00    +0.146 HD
ENDROOT
BRANCH   7  16
ATOM     16  C   UNL     1      33.383 -23.426 -14.990  0.00  0.00    +0.161 C 
BRANCH  16  17
ATOM     17  O   UNL     1      32.570 -23.609 -16.148  0.00  0.00    -0.380 OA
ATOM     18  H   UNL     1      32.604 -22.809 -16.697  0.00  0.00    +0.211 HD
ENDBRANCH  16  17
BRANCH  16  19
ATOM     19  C   UNL     1      32.745 -24.112 -13.774  0.00  0.00    +0.139 C 
ATOM     20  C   UNL     1      31.346 -24.636 -14.072  0.00  0.00    +0.034 C 
BRANCH  19  21
ATOM     21  O   UNL     1      32.666 -23.184 -12.694  0.00  0.00    -0.382 OA
ATOM     22  H   UNL     1      33.204 -22.403 -12.897  0.00  0.00    +0.210 HD
ENDBRANCH  19  21
ENDBRANCH  16  19
ENDBRANCH   7  16
TORSDOF 4
ENDMDL
MODEL 2
REMARK VINA RESULT:      -7.9      2.986      5.923
REMARK  Name = 133246
REMARK  4 active torsions:
REMARK  status: ('A' for Active; 'I' for Inactive)
REMARK    1  A    between atoms: C_7  and  C_16
REMARK    2  A    between atoms: C_16  and  O_17
REMARK    3  A    between atoms: C_16  and  C_19
REMARK    4  A    between atoms: C_19  and  O_21
REMARK                            x       y       z     vdW  Elec       q    Type
REMARK                         _______ _______ _______ _____ _____    ______ ____
ROOT
ATOM      1  O   UNL     1      30.691 -24.647 -12.802  0.00  0.00    -0.208 OA
ATOM      2  N   UNL     1      33.355 -24.190 -12.944  0.00  0.00    -0.253 NA
ATOM      3  N   UNL     1      34.410 -23.964 -15.612  0.00  0.00    -0.252 NA
ATOM      4  N   UNL     1      32.206 -23.237 -16.185  0.00  0.00    -0.259 N 
ATOM      5  N   UNL     1      30.290 -23.537 -14.783  0.00  0.00    -0.301 NA
ATOM      6  N   UNL     1      30.126 -22.570 -16.917  0.00  0.00    -0.320 N 
ATOM      7  C   UNL     1      34.789 -23.996 -13.183  0.00  0.00    +0.158 C 
ATOM      8  C   UNL     1      35.185 -24.580 -14.534  0.00  0.00    +0.154 C 
ATOM      9  C   UNL     1      32.607 -24.038 -13.981  0.00  0.00    +0.202 C 
ATOM     10  C   UNL     1      33.170 -23.738 -15.340  0.00  0.00    +0.160 C 
ATOM     11  C   UNL     1      31.105 -24.097 -13.816  0.00  0.00    +0.228 C 
ATOM     12  C   UNL     1      30.851 -23.135 -15.898  0.00  0.00    +0.249 C 
ATOM     13  H   UNL     1      32.503 -22.924 -17.069  0.00  0.00    +0.157 HD
ATOM     14  H   UNL     1      30.579 -22.280 -17.741  0.00  0.00    +0.146 HD
ATOM     15  H   UNL     1      29.153 -22.455 -16.824  0.00  0.00    +0.146 HD
ENDROOT
BRANCH   7  16
ATOM     16  C   UNL     1      35.553 -24.669 -12.049  0.00  0.00    +0.161 C 
BRANCH  16  17
ATOM     17  O   UNL     1      36.254 -25.790 -12.583  0.00  0.00    -0.380 OA
ATOM     18  H   UNL     1      35.943 -25.969 -13.484  0.00  0.00    +0.211 HD
ENDBRANCH  16  17
BRANCH  16  19
ATOM     19  C   UNL     1      36.526 -23.716 -11.342  0.00  0.00    +0.139 C 
ATOM     20  C   UNL     1      37.967 -23.913 -11.799  0.00  0.00    +0.034 C 
BRANCH  19  21
ATOM     21  O   UNL     1      36.461 -23.930  -9.934  0.00  0.00    -0.382 OA
ATOM     22  H   UNL     1      37.305 -24.292  -9.621  0.00  0.00    +0.210 HD
ENDBRANCH  19  21
ENDBRANCH  16  19
ENDBRANCH   7  16
TORSDOF 4
ENDMDL
MODEL 3
REMARK VINA RESULT:      -7.9      1.683      2.425
REMARK  Name = 133246
REMARK  4 active torsions:
REMARK  status: ('A' for Active; 'I' for Inactive)
REMARK    1  A    between atoms: C_7  and  C_16
REMARK    2  A    between atoms: C_16  and  O_17
REMARK    3  A    between atoms: C_16  and  C_19
REMARK    4  A    between atoms: C_19  and  O_21
REMARK                            x       y       z     vdW  Elec       q    Type
REMARK                         _______ _______ _______ _____ _____    ______ ____
ROOT
ATOM      1  O   UNL     1      36.425 -27.182 -15.861  0.00  0.00    -0.208 OA
ATOM      2  N   UNL     1      35.291 -25.025 -14.682  0.00  0.00    -0.253 NA
ATOM      3  N   UNL     1      36.554 -24.169 -12.242  0.00  0.00    -0.252 NA
ATOM      4  N   UNL     1      38.521 -25.155 -13.173  0.00  0.00    -0.259 N 
ATOM      5  N   UNL     1      38.513 -26.670 -15.026  0.00  0.00    -0.301 NA
ATOM      6  N   UNL     1      40.493 -26.102 -13.898  0.00  0.00    -0.320 N 
ATOM      7  C   UNL     1      34.758 -23.905 -13.901  0.00  0.00    +0.158 C 
ATOM      8  C   UNL     1      35.104 -24.075 -12.426  0.00  0.00    +0.154 C 
ATOM      9  C   UNL     1      36.453 -25.439 -14.314  0.00  0.00    +0.202 C 
ATOM     10  C   UNL     1      37.180 -24.850 -13.139  0.00  0.00    +0.160 C 
ATOM     11  C   UNL     1      37.143 -26.508 -15.130  0.00  0.00    +0.228 C 
ATOM     12  C   UNL     1      39.137 -26.006 -14.083  0.00  0.00    +0.249 C 
ATOM     13  H   UNL     1      39.095 -24.733 -12.494  0.00  0.00    +0.157 HD
ATOM     14  H   UNL     1      40.929 -25.590 -13.180  0.00  0.00    +0.146 HD
ATOM     15  H   UNL     1      41.030 -26.684 -14.484  0.00  0.00    +0.146 HD
ENDROOT
BRANCH   7  16
ATOM     16  C   UNL     1      33.248 -23.860 -14.107  0.00  0.00    +0.161 C 
BRANCH  16  17
ATOM     17  O   UNL     1      32.655 -23.254 -12.961  0.00  0.00    -0.380 OA
ATOM     18  H   UNL     1      33.348 -22.865 -12.404  0.00  0.00    +0.211 HD
ENDBRANCH  16  17
BRANCH  16  19
ATOM     19  C   UNL     1      32.848 -23.101 -15.381  0.00  0.00    +0.139 C 
ATOM     20  C   UNL     1      31.424 -23.420 -15.822  0.00  0.00    +0.034 C 
BRANCH  19  21
ATOM     21  O   UNL     1      33.741 -23.445 -16.438  0.00  0.00    -0.382 OA
ATOM     22  H   UNL     1      33.634 -24.383 -16.661  0.00  0.00    +0.210 HD
ENDBRANCH  19  21
ENDBRANCH  16  19
ENDBRANCH   7  16
TORSDOF 4
ENDMDL
MODEL 4
REMARK VINA RESULT:      -7.8     10.978     13.088
REMARK  Name = 133246
REMARK  4 active torsions:
REMARK  status: ('A' for Active; 'I' for Inactive)
REMARK    1  A    between atoms: C_7  and  C_16
REMARK    2  A    between atoms: C_16  and  O_17
REMARK    3  A    between atoms: C_16  and  C_19
REMARK    4  A    between atoms: C_19  and  O_21
REMARK                            x       y       z     vdW  Elec       q    Type
REMARK                         _______ _______ _______ _____ _____    ______ ____
ROOT
ATOM      1  O   UNL     1      34.739 -17.888 -24.675  0.00  0.00    -0.208 OA
ATOM      2  N   UNL     1      34.442 -15.355 -23.769  0.00  0.00    -0.253 NA
ATOM      3  N   UNL     1      33.994 -15.122 -20.935  0.00  0.00    -0.252 NA
ATOM      4  N   UNL     1      35.195 -17.184 -20.799  0.00  0.00    -0.259 N 
ATOM      5  N   UNL     1      35.622 -18.612 -22.671  0.00  0.00    -0.301 NA
ATOM      6  N   UNL     1      36.283 -19.191 -20.493  0.00  0.00    -0.320 N 
ATOM      7  C   UNL     1      34.209 -14.052 -23.139  0.00  0.00    +0.158 C 
ATOM      8  C   UNL     1      33.353 -14.213 -21.888  0.00  0.00    +0.154 C 
ATOM      9  C   UNL     1      34.639 -16.327 -22.947  0.00  0.00    +0.202 C 
ATOM     10  C   UNL     1      34.580 -16.145 -21.458  0.00  0.00    +0.160 C 
ATOM     11  C   UNL     1      35.008 -17.687 -23.496  0.00  0.00    +0.228 C 
ATOM     12  C   UNL     1      35.695 -18.337 -21.391  0.00  0.00    +0.249 C 
ATOM     13  H   UNL     1      35.288 -17.104 -19.822  0.00  0.00    +0.157 HD
ATOM     14  H   UNL     1      36.321 -18.954 -19.539  0.00  0.00    +0.146 HD
ATOM     15  H   UNL     1      36.667 -20.044 -20.803  0.00  0.00    +0.146 HD
ENDROOT
BRANCH   7  16
ATOM     16  C   UNL     1      33.524 -13.149 -24.158  0.00  0.00    +0.161 C 
BRANCH  16  17
ATOM     17  O   UNL     1      34.204 -11.896 -24.179  0.00  0.00    -0.380 OA
ATOM     18  H   UNL     1      35.116 -12.027 -24.483  0.00  0.00    +0.211 HD
ENDBRANCH  16  17
BRANCH  16  19
ATOM     19  C   UNL     1      33.491 -13.764 -25.565  0.00  0.00    +0.139 C 
ATOM     20  C   UNL     1      33.534 -12.706 -26.661  0.00  0.00    +0.034 C 
BRANCH  19  21
ATOM     21  O   UNL     1      32.301 -14.533 -25.719  0.00  0.00    -0.382 OA
ATOM     22  H   UNL     1      31.782 -14.184 -26.461  0.00  0.00    +0.210 HD
ENDBRANCH  19  21
ENDBRANCH  16  19
ENDBRANCH   7  16
TORSDOF 4
ENDMDL
MODEL 5
REMARK VINA RESULT:      -7.8      2.913      6.151
REMARK  Name = 133246
REMARK  4 active torsions:
REMARK  status: ('A' for Active; 'I' for Inactive)
REMARK    1  A    between atoms: C_7  and  C_16
REMARK    2  A    between atoms: C_16  and  O_17
REMARK    3  A    between atoms: C_16  and  C_19
REMARK    4  A    between atoms: C_19  and  O_21
REMARK                            x       y       z     vdW  Elec       q    Type
REMARK                         _______ _______ _______ _____ _____    ______ ____
ROOT
ATOM      1  O   UNL     1      34.535 -22.761 -18.342  0.00  0.00    -0.208 OA
ATOM      2  N   UNL     1      35.296 -24.146 -16.144  0.00  0.00    -0.253 NA
ATOM      3  N   UNL     1      33.636 -23.754 -13.826  0.00  0.00    -0.252 NA
ATOM      4  N   UNL     1      31.913 -23.278 -15.412  0.00  0.00    -0.259 N 
ATOM      5  N   UNL     1      32.314 -22.793 -17.721  0.00  0.00    -0.301 NA
ATOM      6  N   UNL     1      30.155 -22.741 -16.800  0.00  0.00    -0.320 N 
ATOM      7  C   UNL     1      35.612 -24.787 -14.863  0.00  0.00    +0.158 C 
ATOM      8  C   UNL     1      35.083 -23.948 -13.706  0.00  0.00    +0.154 C 
ATOM      9  C   UNL     1      34.136 -23.589 -16.200  0.00  0.00    +0.202 C 
ATOM     10  C   UNL     1      33.204 -23.555 -15.023  0.00  0.00    +0.160 C 
ATOM     11  C   UNL     1      33.665 -23.007 -17.514  0.00  0.00    +0.228 C 
ATOM     12  C   UNL     1      31.509 -22.934 -16.695  0.00  0.00    +0.249 C 
ATOM     13  H   UNL     1      31.216 -23.328 -14.719  0.00  0.00    +0.157 HD
ATOM     14  H   UNL     1      29.579 -22.855 -16.010  0.00  0.00    +0.146 HD
ATOM     15  H   UNL     1      29.758 -22.487 -17.665  0.00  0.00    +0.146 HD
ENDROOT
BRANCH   7  16
ATOM     16  C   UNL     1      37.125 -24.948 -14.776  0.00  0.00    +0.161 C 
BRANCH  16  17
ATOM     17  O   UNL     1      37.680 -23.729 -14.286  0.00  0.00    -0.380 OA
ATOM     18  H   UNL     1      38.240 -23.915 -13.516  0.00  0.00    +0.211 HD
ENDBRANCH  16  17
BRANCH  16  19
ATOM     19  C   UNL     1      37.545 -26.124 -13.884  0.00  0.00    +0.139 C 
ATOM     20  C   UNL     1      38.354 -25.674 -12.674  0.00  0.00    +0.034 C 
BRANCH  19  21
ATOM     21  O   UNL     1      38.331 -27.039 -14.644  0.00  0.00    -0.382 OA
ATOM     22  H   UNL     1      38.662 -26.597 -15.442  0.00  0.00    +0.210 HD
ENDBRANCH  19  21
ENDBRANCH  16  19
ENDBRANCH   7  16
TORSDOF 4
ENDMDL
MODEL 6
REMARK VINA RESULT:      -7.7      9.614     12.081
REMARK  Name = 133246
REMARK  4 active torsions:
REMARK  status: ('A' for Active; 'I' for Inactive)
REMARK    1  A    between atoms: C_7  and  C_16
REMARK    2  A    between atoms: C_16  and  O_17
REMARK    3  A    between atoms: C_16  and  C_19
REMARK    4  A    between atoms: C_19  and  O_21
REMARK                            x       y       z     vdW  Elec       q    Type
REMARK                         _______ _______ _______ _____ _____    ______ ____
ROOT
ATOM      1  O   UNL     1      34.853 -17.977 -25.783  0.00  0.00    -0.208 OA
ATOM      2  N   UNL     1      34.635 -18.356 -23.112  0.00  0.00    -0.253 NA
ATOM      3  N   UNL     1      34.577 -15.944 -21.543  0.00  0.00    -0.252 NA
ATOM      4  N   UNL     1      33.676 -14.943 -23.517  0.00  0.00    -0.259 N 
ATOM      5  N   UNL     1      33.767 -15.945 -25.689  0.00  0.00    -0.301 NA
ATOM      6  N   UNL     1      32.849 -13.810 -25.346  0.00  0.00    -0.320 N 
ATOM      7  C   UNL     1      34.574 -18.400 -21.648  0.00  0.00    +0.158 C 
ATOM      8  C   UNL     1      35.228 -17.159 -21.052  0.00  0.00    +0.154 C 
ATOM      9  C   UNL     1      34.447 -17.191 -23.627  0.00  0.00    +0.202 C 
ATOM     10  C   UNL     1      34.236 -15.965 -22.786  0.00  0.00    +0.160 C 
ATOM     11  C   UNL     1      34.369 -17.058 -25.131  0.00  0.00    +0.228 C 
ATOM     12  C   UNL     1      33.448 -14.957 -24.888  0.00  0.00    +0.249 C 
ATOM     13  H   UNL     1      33.414 -14.131 -23.027  0.00  0.00    +0.157 HD
ATOM     14  H   UNL     1      32.623 -13.088 -24.717  0.00  0.00    +0.146 HD
ATOM     15  H   UNL     1      32.647 -13.710 -26.304  0.00  0.00    +0.146 HD
ENDROOT
BRANCH   7  16
ATOM     16  C   UNL     1      35.280 -19.669 -21.184  0.00  0.00    +0.161 C 
BRANCH  16  17
ATOM     17  O   UNL     1      36.277 -19.306 -20.230  0.00  0.00    -0.380 OA
ATOM     18  H   UNL     1      36.246 -19.920 -19.479  0.00  0.00    +0.211 HD
ENDBRANCH  16  17
BRANCH  16  19
ATOM     19  C   UNL     1      34.313 -20.698 -20.581  0.00  0.00    +0.139 C 
ATOM     20  C   UNL     1      32.927 -20.116 -20.333  0.00  0.00    +0.034 C 
BRANCH  19  21
ATOM     21  O   UNL     1      34.838 -21.173 -19.344  0.00  0.00    -0.382 OA
ATOM     22  H   UNL     1      35.709 -21.574 -19.493  0.00  0.00    +0.210 HD
ENDBRANCH  19  21
ENDBRANCH  16  19
ENDBRANCH   7  16
TORSDOF 4
ENDMDL
MODEL 7
REMARK VINA RESULT:      -7.6     10.672     13.137
REMARK  Name = 133246
REMARK  4 active torsions:
REMARK  status: ('A' for Active; 'I' for Inactive)
REMARK    1  A    between atoms: C_7  and  C_16
REMARK    2  A    between atoms: C_16  and  O_17
REMARK    3  A    between atoms: C_16  and  C_19
REMARK    4  A    between atoms: C_19  and  O_21
REMARK                            x       y       z     vdW  Elec       q    Type
REMARK                         _______ _______ _______ _____ _____    ______ ____
ROOT
ATOM      1  O   UNL     1      32.787 -14.364 -22.374  0.00  0.00    -0.208 OA
ATOM      2  N   UNL     1      34.579 -16.369 -22.685  0.00  0.00    -0.253 NA
ATOM      3  N   UNL     1      34.550 -17.635 -25.269  0.00  0.00    -0.252 NA
ATOM      4  N   UNL     1      33.724 -15.532 -26.047  0.00  0.00    -0.259 N 
ATOM      5  N   UNL     1      32.842 -13.827 -24.617  0.00  0.00    -0.301 NA
ATOM      6  N   UNL     1      32.872 -13.592 -26.953  0.00  0.00    -0.320 N 
ATOM      7  C   UNL     1      35.454 -17.506 -22.987  0.00  0.00    +0.158 C 
ATOM      8  C   UNL     1      34.819 -18.397 -24.048  0.00  0.00    +0.154 C 
ATOM      9  C   UNL     1      33.975 -15.864 -23.705  0.00  0.00    +0.202 C 
ATOM     10  C   UNL     1      34.118 -16.434 -25.086  0.00  0.00    +0.160 C 
ATOM     11  C   UNL     1      33.145 -14.614 -23.520  0.00  0.00    +0.228 C 
ATOM     12  C   UNL     1      33.136 -14.296 -25.806  0.00  0.00    +0.249 C 
ATOM     13  H   UNL     1      33.871 -15.784 -26.987  0.00  0.00    +0.157 HD
ATOM     14  H   UNL     1      33.105 -13.974 -27.830  0.00  0.00    +0.146 HD
ATOM     15  H   UNL     1      32.450 -12.705 -26.900  0.00  0.00    +0.146 HD
ENDROOT
BRANCH   7  16
ATOM     16  C   UNL     1      35.689 -18.277 -21.693  0.00  0.00    +0.161 C 
BRANCH  16  17
ATOM     17  O   UNL     1      35.382 -17.420 -20.596  0.00  0.00    -0.380 OA
ATOM     18  H   UNL     1      36.187 -16.958 -20.311  0.00  0.00    +0.211 HD
ENDBRANCH  16  17
BRANCH  16  19
ATOM     19  C   UNL     1      34.859 -19.567 -21.613  0.00  0.00    +0.139 C 
ATOM     20  C   UNL     1      33.535 -19.360 -20.887  0.00  0.00    +0.034 C 
BRANCH  19  21
ATOM     21  O   UNL     1      35.605 -20.569 -20.927  0.00  0.00    -0.382 OA
ATOM     22  H   UNL     1      35.281 -20.648 -20.015  0.00  0.00    +0.210 HD
ENDBRANCH  19  21
ENDBRANCH  16  19
ENDBRANCH   7  16
TORSDOF 4
ENDMDL
MODEL 8
REMARK VINA RESULT:      -7.6      2.433      5.942
REMARK  Name = 133246
REMARK  4 active torsions:
REMARK  status: ('A' for Active; 'I' for Inactive)
REMARK    1  A    between atoms: C_7  and  C_16
REMARK    2  A    between atoms: C_16  and  O_17
REMARK    3  A    between atoms: C_16  and  C_19
REMARK    4  A    between atoms: C_19  and  O_21
REMARK                            x       y       z     vdW  Elec       q    Type
REMARK                         _______ _______ _______ _____ _____    ______ ____
ROOT
ATOM      1  O   UNL     1      35.321 -22.854 -17.054  0.00  0.00    -0.208 OA
ATOM      2  N   UNL     1      36.009 -24.232 -14.828  0.00  0.00    -0.253 NA
ATOM      3  N   UNL     1      34.034 -24.222 -12.734  0.00  0.00    -0.252 NA
ATOM      4  N   UNL     1      32.468 -23.919 -14.513  0.00  0.00    -0.259 N 
ATOM      5  N   UNL     1      33.072 -23.251 -16.731  0.00  0.00    -0.301 NA
ATOM      6  N   UNL     1      30.833 -23.572 -16.099  0.00  0.00    -0.320 N 
ATOM      7  C   UNL     1      36.259 -24.889 -13.541  0.00  0.00    +0.158 C 
ATOM      8  C   UNL     1      35.467 -24.205 -12.433  0.00  0.00    +0.154 C 
ATOM      9  C   UNL     1      34.793 -23.852 -15.015  0.00  0.00    +0.202 C 
ATOM     10  C   UNL     1      33.728 -24.022 -13.970  0.00  0.00    +0.160 C 
ATOM     11  C   UNL     1      34.404 -23.273 -16.356  0.00  0.00    +0.228 C 
ATOM     12  C   UNL     1      32.178 -23.568 -15.825  0.00  0.00    +0.249 C 
ATOM     13  H   UNL     1      31.706 -24.111 -13.920  0.00  0.00    +0.157 HD
ATOM     14  H   UNL     1      30.189 -23.815 -15.396  0.00  0.00    +0.146 HD
ATOM     15  H   UNL     1      30.513 -23.332 -16.998  0.00  0.00    +0.146 HD
ENDROOT
BRANCH   7  16
ATOM     16  C   UNL     1      37.756 -24.828 -13.262  0.00  0.00    +0.161 C 
BRANCH  16  17
ATOM     17  O   UNL     1      38.045 -25.689 -12.163  0.00  0.00    -0.380 OA
ATOM     18  H   UNL     1      38.920 -26.092 -12.288  0.00  0.00    +0.211 HD
ENDBRANCH  16  17
BRANCH  16  19
ATOM     19  C   UNL     1      38.602 -25.216 -14.484  0.00  0.00    +0.139 C 
ATOM     20  C   UNL     1      39.982 -25.733 -14.093  0.00  0.00    +0.034 C 
BRANCH  19  21
ATOM     21  O   UNL     1      38.763 -24.080 -15.329  0.00  0.00    -0.382 OA
ATOM     22  H   UNL     1      39.521 -24.218 -15.919  0.00  0.00    +0.210 HD
ENDBRANCH  19  21
ENDBRANCH  16  19
ENDBRANCH   7  16
TORSDOF 4
ENDMDL
MODEL 9
REMARK VINA RESULT:      -7.5      8.954     11.396
REMARK  Name = 133246
REMARK  4 active torsions:
REMARK  status: ('A' for Active; 'I' for Inactive)
REMARK    1  A    between atoms: C_7  and  C_16
REMARK    2  A    between atoms: C_16  and  O_17
REMARK    3  A    between atoms: C_16  and  C_19
REMARK    4  A    between atoms: C_19  and  O_21
REMARK                            x       y       z     vdW  Elec       q    Type
REMARK                         _______ _______ _______ _____ _____    ______ ____
ROOT
ATOM      1  O   UNL     1      32.384 -15.910 -20.448  0.00  0.00    -0.208 OA
ATOM      2  N   UNL     1      34.262 -17.748 -21.098  0.00  0.00    -0.253 NA
ATOM      3  N   UNL     1      35.279 -17.549 -23.783  0.00  0.00    -0.252 NA
ATOM      4  N   UNL     1      34.700 -15.238 -23.596  0.00  0.00    -0.259 N 
ATOM      5  N   UNL     1      33.255 -14.351 -21.906  0.00  0.00    -0.301 NA
ATOM      6  N   UNL     1      34.155 -12.999 -23.603  0.00  0.00    -0.320 N 
ATOM      7  C   UNL     1      35.245 -18.706 -21.614  0.00  0.00    +0.158 C 
ATOM      8  C   UNL     1      35.106 -18.846 -23.125  0.00  0.00    +0.154 C 
ATOM      9  C   UNL     1      34.064 -16.719 -21.847  0.00  0.00    +0.202 C 
ATOM     10  C   UNL     1      34.748 -16.546 -23.172  0.00  0.00    +0.160 C 
ATOM     11  C   UNL     1      33.161 -15.613 -21.348  0.00  0.00    +0.228 C 
ATOM     12  C   UNL     1      34.001 -14.210 -22.976  0.00  0.00    +0.249 C 
ATOM     13  H   UNL     1      35.205 -15.011 -24.410  0.00  0.00    +0.157 HD
ATOM     14  H   UNL     1      34.722 -12.928 -24.405  0.00  0.00    +0.146 HD
ATOM     15  H   UNL     1      33.698 -12.201 -23.252  0.00  0.00    +0.146 HD
ENDROOT
BRANCH   7  16
ATOM     16  C   UNL     1      35.013 -20.042 -20.917  0.00  0.00    +0.161 C 
BRANCH  16  17
ATOM     17  O   UNL     1      36.051 -20.236 -19.958  0.00  0.00    -0.380 OA
ATOM     18  H   UNL     1      35.857 -21.024 -19.426  0.00  0.00    +0.211 HD
ENDBRANCH  16  17
BRANCH  16  19
ATOM     19  C   UNL     1      33.637 -20.126 -20.241  0.00  0.00    +0.139 C 
ATOM     20  C   UNL     1      33.469 -21.402 -19.424  0.00  0.00    +0.034 C 
BRANCH  19  21
ATOM     21  O   UNL     1      32.617 -20.083 -21.236  0.00  0.00    -0.382 OA
ATOM     22  H   UNL     1      32.163 -19.227 -21.199  0.00  0.00    +0.210 HD
ENDBRANCH  19  21
ENDBRANCH  16  19
ENDBRANCH   7  16
TORSDOF 4
ENDMDL
