MODEL 1
REMARK VINA RESULT:     -11.7      0.000      0.000
REMARK  Name = 54689025
REMARK  9 active torsions:
REMARK  status: ('A' for Active; 'I' for Inactive)
REMARK    1  A    between atoms: C_1  and  C_21
REMARK    2  A    between atoms: C_4  and  N_8
REMARK    3  A    between atoms: C_9  and  C_11
REMARK    4  A    between atoms: C_11  and  N_13
REMARK    5  A    between atoms: C_14  and  O_16
REMARK    6  A    between atoms: O_16  and  C_17
REMARK    7  A    between atoms: C_21  and  C_24
REMARK    8  A    between atoms: C_21  and  C_35
REMARK    9  A    between atoms: C_25  and  O_33
REMARK                            x       y       z     vdW  Elec       q    Type
REMARK                         _______ _______ _______ _____ _____    ______ ____
ROOT
ATOM      1  C   UNL     1      34.709 -16.545 -22.283  0.00  0.00    -0.017 C 
ATOM      2  C   UNL     1      34.684 -15.406 -23.087  0.00  0.00    +0.011 C 
ATOM      3  C   UNL     1      34.233 -16.484 -20.973  0.00  0.00    -0.004 C 
ATOM      4  C   UNL     1      34.183 -14.206 -22.583  0.00  0.00    +0.050 C 
ATOM      5  C   UNL     1      33.733 -15.284 -20.468  0.00  0.00    +0.001 C 
ATOM      6  C   UNL     1      33.707 -14.146 -21.273  0.00  0.00    +0.015 C 
ENDROOT
BRANCH   4   8
ATOM      7  O   UNL     1      33.029 -13.781 -25.324  0.00  0.00    -0.273 OA
ATOM      8  N   UNL     1      34.158 -13.066 -23.387  0.00  0.00    -0.283 N 
ATOM      9  C   UNL     1      33.604 -12.918 -24.668  0.00  0.00    +0.246 C 
ATOM     10  H   UNL     1      34.583 -12.263 -23.006  0.00  0.00    +0.155 HD
BRANCH   9  11
ATOM     11  C   UNL     1      33.798 -11.503 -25.184  0.00  0.00    +0.179 C 
BRANCH  11  13
ATOM     12  O   UNL     1      35.245  -9.281 -23.997  0.00  0.00    -0.226 OA
ATOM     13  N   UNL     1      33.315 -10.552 -24.226  0.00  0.00    -0.262 N 
ATOM     14  C   UNL     1      34.076  -9.517 -23.708  0.00  0.00    +0.402 C 
ATOM     15  H   UNL     1      32.385 -10.640 -23.916  0.00  0.00    +0.153 HD
BRANCH  14  16
ATOM     16  O   UNL     1      33.333  -8.787 -22.822  0.00  0.00    -0.442 OA
BRANCH  16  17
ATOM     17  C   UNL     1      32.814  -7.548 -23.316  0.00  0.00    +0.138 C 
ATOM     18  C   UNL     1      33.836  -6.940 -24.276  0.00  0.00    +0.044 C 
ATOM     19  C   UNL     1      32.595  -6.630 -22.114  0.00  0.00    +0.044 C 
ATOM     20  C   UNL     1      31.492  -7.824 -24.030  0.00  0.00    +0.044 C 
ENDBRANCH  16  17
ENDBRANCH  14  16
ENDBRANCH  11  13
ENDBRANCH   9  11
ENDBRANCH   4   8
BRANCH   1  21
ATOM     21  C   UNL     1      35.254 -17.851 -22.833  0.00  0.00    +0.054 C 
BRANCH  21  24
ATOM     22  O   UNL     1      36.791 -20.189 -20.283  0.00  0.00    -0.421 OA
ATOM     23  O   UNL     1      37.662 -18.636 -21.699  0.00  0.00    -0.245 OA
ATOM     24  C   UNL     1      35.297 -18.908 -21.763  0.00  0.00    +0.091 A 
ATOM     25  C   UNL     1      34.231 -19.559 -21.260  0.00  0.00    +0.139 A 
ATOM     26  C   UNL     1      36.670 -19.215 -21.266  0.00  0.00    +0.345 A 
ATOM     27  C   UNL     1      34.393 -20.581 -20.224  0.00  0.00    +0.068 A 
ATOM     28  C   UNL     1      35.675 -20.867 -19.765  0.00  0.00    +0.152 A 
ATOM     29  C   UNL     1      33.323 -21.293 -19.665  0.00  0.00    +0.006 C 
ATOM     30  C   UNL     1      35.916 -21.828 -18.781  0.00  0.00    +0.038 C 
ATOM     31  C   UNL     1      33.548 -22.259 -18.677  0.00  0.00    +0.000 C 
ATOM     32  C   UNL     1      34.843 -22.526 -18.237  0.00  0.00    +0.003 C 
BRANCH  25  33
ATOM     33  O   UNL     1      32.926 -19.341 -21.648  0.00  0.00    -0.506 OA
ATOM     34  H   UNL     1      32.401 -20.055 -21.949  0.00  0.00    +0.292 HD
ENDBRANCH  25  33
ENDBRANCH  21  24
BRANCH  21  35
ATOM     35  C   UNL     1      34.481 -18.377 -24.060  0.00  0.00    +0.009 C 
ATOM     36  C   UNL     1      35.015 -19.710 -24.572  0.00  0.00    +0.001 C 
ENDBRANCH  21  35
ENDBRANCH   1  21
TORSDOF 9
ENDMDL
MODEL 2
REMARK VINA RESULT:     -10.7      4.647     11.676
REMARK  Name = 54689025
REMARK  9 active torsions:
REMARK  status: ('A' for Active; 'I' for Inactive)
REMARK    1  A    between atoms: C_1  and  C_21
REMARK    2  A    between atoms: C_4  and  N_8
REMARK    3  A    between atoms: C_9  and  C_11
REMARK    4  A    between atoms: C_11  and  N_13
REMARK    5  A    between atoms: C_14  and  O_16
REMARK    6  A    between atoms: O_16  and  C_17
REMARK    7  A    between atoms: C_21  and  C_24
REMARK    8  A    between atoms: C_21  and  C_35
REMARK    9  A    between atoms: C_25  and  O_33
REMARK                            x       y       z     vdW  Elec       q    Type
REMARK                         _______ _______ _______ _____ _____    ______ ____
ROOT
ATOM      1  C   UNL     1      34.656 -20.140 -20.844  0.00  0.00    -0.017 C 
ATOM      2  C   UNL     1      35.019 -21.030 -19.833  0.00  0.00    +0.011 C 
ATOM      3  C   UNL     1      33.314 -19.807 -21.030  0.00  0.00    -0.004 C 
ATOM      4  C   UNL     1      34.042 -21.585 -19.007  0.00  0.00    +0.050 C 
ATOM      5  C   UNL     1      32.336 -20.363 -20.205  0.00  0.00    +0.001 C 
ATOM      6  C   UNL     1      32.700 -21.251 -19.194  0.00  0.00    +0.015 C 
ENDROOT
BRANCH   4   8
ATOM      7  O   UNL     1      36.417 -21.578 -17.168  0.00  0.00    -0.273 OA
ATOM      8  N   UNL     1      34.405 -22.475 -17.996  0.00  0.00    -0.283 N 
ATOM      9  C   UNL     1      35.532 -22.428 -17.160  0.00  0.00    +0.246 C 
ATOM     10  H   UNL     1      33.792 -23.232 -17.849  0.00  0.00    +0.155 HD
BRANCH   9  11
ATOM     11  C   UNL     1      35.540 -23.598 -16.193  0.00  0.00    +0.179 C 
BRANCH  11  13
ATOM     12  O   UNL     1      36.626 -23.343 -13.510  0.00  0.00    -0.226 OA
ATOM     13  N   UNL     1      36.877 -23.876 -15.756  0.00  0.00    -0.262 N 
ATOM     14  C   UNL     1      37.315 -23.726 -14.450  0.00  0.00    +0.402 C 
ATOM     15  H   UNL     1      37.525 -24.192 -16.426  0.00  0.00    +0.153 HD
BRANCH  14  16
ATOM     16  O   UNL     1      38.634 -24.070 -14.355  0.00  0.00    -0.442 OA
BRANCH  16  17
ATOM     17  C   UNL     1      38.900 -25.411 -13.930  0.00  0.00    +0.138 C 
ATOM     18  C   UNL     1      38.004 -26.360 -14.725  0.00  0.00    +0.044 C 
ATOM     19  C   UNL     1      38.578 -25.492 -12.438  0.00  0.00    +0.044 C 
ATOM     20  C   UNL     1      40.376 -25.717 -14.179  0.00  0.00    +0.044 C 
ENDBRANCH  16  17
ENDBRANCH  14  16
ENDBRANCH  11  13
ENDBRANCH   9  11
ENDBRANCH   4   8
BRANCH   1  21
ATOM     21  C   UNL     1      35.720 -19.536 -21.742  0.00  0.00    +0.054 C 
BRANCH  21  24
ATOM     22  O   UNL     1      34.416 -17.428 -24.603  0.00  0.00    -0.421 OA
ATOM     23  O   UNL     1      35.047 -19.606 -24.433  0.00  0.00    -0.245 OA
ATOM     24  C   UNL     1      35.199 -18.310 -22.442  0.00  0.00    +0.091 A 
ATOM     25  C   UNL     1      35.010 -17.104 -21.874  0.00  0.00    +0.139 A 
ATOM     26  C   UNL     1      34.891 -18.518 -23.887  0.00  0.00    +0.345 A 
ATOM     27  C   UNL     1      34.506 -15.974 -22.658  0.00  0.00    +0.068 A 
ATOM     28  C   UNL     1      34.223 -16.170 -24.005  0.00  0.00    +0.152 A 
ATOM     29  C   UNL     1      34.292 -14.695 -22.124  0.00  0.00    +0.006 C 
ATOM     30  C   UNL     1      33.741 -15.147 -24.823  0.00  0.00    +0.038 C 
ATOM     31  C   UNL     1      33.808 -13.658 -22.929  0.00  0.00    +0.000 C 
ATOM     32  C   UNL     1      33.535 -13.884 -24.277  0.00  0.00    +0.003 C 
BRANCH  25  33
ATOM     33  O   UNL     1      35.257 -16.815 -20.549  0.00  0.00    -0.506 OA
ATOM     34  H   UNL     1      35.563 -17.486 -19.972  0.00  0.00    +0.292 HD
ENDBRANCH  25  33
ENDBRANCH  21  24
BRANCH  21  35
ATOM     35  C   UNL     1      37.034 -19.202 -21.006  0.00  0.00    +0.009 C 
ATOM     36  C   UNL     1      38.135 -18.719 -21.945  0.00  0.00    +0.001 C 
ENDBRANCH  21  35
ENDBRANCH   1  21
TORSDOF 9
ENDMDL
MODEL 3
REMARK VINA RESULT:     -10.7      4.636     11.445
REMARK  Name = 54689025
REMARK  9 active torsions:
REMARK  status: ('A' for Active; 'I' for Inactive)
REMARK    1  A    between atoms: C_1  and  C_21
REMARK    2  A    between atoms: C_4  and  N_8
REMARK    3  A    between atoms: C_9  and  C_11
REMARK    4  A    between atoms: C_11  and  N_13
REMARK    5  A    between atoms: C_14  and  O_16
REMARK    6  A    between atoms: O_16  and  C_17
REMARK    7  A    between atoms: C_21  and  C_24
REMARK    8  A    between atoms: C_21  and  C_35
REMARK    9  A    between atoms: C_25  and  O_33
REMARK                            x       y       z     vdW  Elec       q    Type
REMARK                         _______ _______ _______ _____ _____    ______ ____
ROOT
ATOM      1  C   UNL     1      34.659 -20.090 -20.854  0.00  0.00    -0.017 C 
ATOM      2  C   UNL     1      35.024 -21.075 -19.937  0.00  0.00    +0.011 C 
ATOM      3  C   UNL     1      33.328 -19.679 -20.944  0.00  0.00    -0.004 C 
ATOM      4  C   UNL     1      34.060 -21.649 -19.108  0.00  0.00    +0.050 C 
ATOM      5  C   UNL     1      32.364 -20.255 -20.116  0.00  0.00    +0.001 C 
ATOM      6  C   UNL     1      32.730 -21.239 -19.198  0.00  0.00    +0.015 C 
ENDROOT
BRANCH   4   8
ATOM      7  O   UNL     1      32.511 -22.868 -16.841  0.00  0.00    -0.273 OA
ATOM      8  N   UNL     1      34.425 -22.636 -18.191  0.00  0.00    -0.283 N 
ATOM      9  C   UNL     1      33.661 -23.174 -17.143  0.00  0.00    +0.246 C 
ATOM     10  H   UNL     1      35.334 -23.002 -18.292  0.00  0.00    +0.155 HD
BRANCH   9  11
ATOM     11  C   UNL     1      34.444 -24.230 -16.386  0.00  0.00    +0.179 C 
BRANCH  11  13
ATOM     12  O   UNL     1      37.040 -25.084 -15.398  0.00  0.00    -0.226 OA
ATOM     13  N   UNL     1      35.235 -23.623 -15.356  0.00  0.00    -0.262 N 
ATOM     14  C   UNL     1      36.470 -24.097 -14.943  0.00  0.00    +0.402 C 
ATOM     15  H   UNL     1      34.879 -22.819 -14.914  0.00  0.00    +0.153 HD
BRANCH  14  16
ATOM     16  O   UNL     1      36.968 -23.303 -13.948  0.00  0.00    -0.442 OA
BRANCH  16  17
ATOM     17  C   UNL     1      37.089 -23.918 -12.661  0.00  0.00    +0.138 C 
ATOM     18  C   UNL     1      35.822 -24.728 -12.388  0.00  0.00    +0.044 C 
ATOM     19  C   UNL     1      37.245 -22.801 -11.631  0.00  0.00    +0.044 C 
ATOM     20  C   UNL     1      38.322 -24.821 -12.667  0.00  0.00    +0.044 C 
ENDBRANCH  16  17
ENDBRANCH  14  16
ENDBRANCH  11  13
ENDBRANCH   9  11
ENDBRANCH   4   8
BRANCH   1  21
ATOM     21  C   UNL     1      35.708 -19.464 -21.754  0.00  0.00    +0.054 C 
BRANCH  21  24
ATOM     22  O   UNL     1      34.334 -17.333 -24.565  0.00  0.00    -0.421 OA
ATOM     23  O   UNL     1      34.969 -19.513 -24.429  0.00  0.00    -0.245 OA
ATOM     24  C   UNL     1      35.171 -18.233 -22.432  0.00  0.00    +0.091 A 
ATOM     25  C   UNL     1      34.995 -17.031 -21.850  0.00  0.00    +0.139 A 
ATOM     26  C   UNL     1      34.827 -18.430 -23.870  0.00  0.00    +0.345 A 
ATOM     27  C   UNL     1      34.472 -15.895 -22.612  0.00  0.00    +0.068 A 
ATOM     28  C   UNL     1      34.156 -16.081 -23.953  0.00  0.00    +0.152 A 
ATOM     29  C   UNL     1      34.271 -14.621 -22.062  0.00  0.00    +0.006 C 
ATOM     30  C   UNL     1      33.654 -15.051 -24.750  0.00  0.00    +0.038 C 
ATOM     31  C   UNL     1      33.768 -13.578 -22.847  0.00  0.00    +0.000 C 
ATOM     32  C   UNL     1      33.461 -13.793 -24.189  0.00  0.00    +0.003 C 
BRANCH  25  33
ATOM     33  O   UNL     1      35.275 -16.753 -20.528  0.00  0.00    -0.506 OA
ATOM     34  H   UNL     1      36.164 -16.721 -20.234  0.00  0.00    +0.292 HD
ENDBRANCH  25  33
ENDBRANCH  21  24
BRANCH  21  35
ATOM     35  C   UNL     1      37.028 -19.131 -21.029  0.00  0.00    +0.009 C 
ATOM     36  C   UNL     1      38.144 -18.720 -21.984  0.00  0.00    +0.001 C 
ENDBRANCH  21  35
ENDBRANCH   1  21
TORSDOF 9
ENDMDL
MODEL 4
REMARK VINA RESULT:     -10.7      4.597     10.953
REMARK  Name = 54689025
REMARK  9 active torsions:
REMARK  status: ('A' for Active; 'I' for Inactive)
REMARK    1  A    between atoms: C_1  and  C_21
REMARK    2  A    between atoms: C_4  and  N_8
REMARK    3  A    between atoms: C_9  and  C_11
REMARK    4  A    between atoms: C_11  and  N_13
REMARK    5  A    between atoms: C_14  and  O_16
REMARK    6  A    between atoms: O_16  and  C_17
REMARK    7  A    between atoms: C_21  and  C_24
REMARK    8  A    between atoms: C_21  and  C_35
REMARK    9  A    between atoms: C_25  and  O_33
REMARK                            x       y       z     vdW  Elec       q    Type
REMARK                         _______ _______ _______ _____ _____    ______ ____
ROOT
ATOM      1  C   UNL     1      34.973 -20.120 -20.914  0.00  0.00    -0.017 C 
ATOM      2  C   UNL     1      35.494 -20.840 -19.840  0.00  0.00    +0.011 C 
ATOM      3  C   UNL     1      33.594 -20.066 -21.115  0.00  0.00    -0.004 C 
ATOM      4  C   UNL     1      34.635 -21.507 -18.965  0.00  0.00    +0.050 C 
ATOM      5  C   UNL     1      32.736 -20.733 -20.242  0.00  0.00    +0.001 C 
ATOM      6  C   UNL     1      33.256 -21.453 -19.167  0.00  0.00    +0.015 C 
ENDROOT
BRANCH   4   8
ATOM      7  O   UNL     1      37.090 -21.024 -17.301  0.00  0.00    -0.273 OA
ATOM      8  N   UNL     1      35.156 -22.229 -17.890  0.00  0.00    -0.283 N 
ATOM      9  C   UNL     1      36.313 -21.960 -17.142  0.00  0.00    +0.246 C 
ATOM     10  H   UNL     1      34.645 -23.027 -17.622  0.00  0.00    +0.155 HD
BRANCH   9  11
ATOM     11  C   UNL     1      36.512 -23.002 -16.057  0.00  0.00    +0.179 C 
BRANCH  11  13
ATOM     12  O   UNL     1      34.988 -25.269 -15.068  0.00  0.00    -0.226 OA
ATOM     13  N   UNL     1      35.408 -22.987 -15.141  0.00  0.00    -0.262 N 
ATOM     14  C   UNL     1      34.733 -24.121 -14.719  0.00  0.00    +0.402 C 
ATOM     15  H   UNL     1      35.111 -22.116 -14.790  0.00  0.00    +0.153 HD
BRANCH  14  16
ATOM     16  O   UNL     1      33.735 -23.776 -13.851  0.00  0.00    -0.442 OA
BRANCH  16  17
ATOM     17  C   UNL     1      32.408 -23.797 -14.387  0.00  0.00    +0.138 C 
ATOM     18  C   UNL     1      32.493 -23.623 -15.903  0.00  0.00    +0.044 C 
ATOM     19  C   UNL     1      31.639 -22.638 -13.755  0.00  0.00    +0.044 C 
ATOM     20  C   UNL     1      31.759 -25.133 -14.028  0.00  0.00    +0.044 C 
ENDBRANCH  16  17
ENDBRANCH  14  16
ENDBRANCH  11  13
ENDBRANCH   9  11
ENDBRANCH   4   8
BRANCH   1  21
ATOM     21  C   UNL     1      35.908 -19.394 -21.865  0.00  0.00    +0.054 C 
BRANCH  21  24
ATOM     22  O   UNL     1      34.283 -17.171 -24.463  0.00  0.00    -0.421 OA
ATOM     23  O   UNL     1      35.100 -19.293 -24.518  0.00  0.00    -0.245 OA
ATOM     24  C   UNL     1      35.252 -18.162 -22.428  0.00  0.00    +0.091 A 
ATOM     25  C   UNL     1      34.995 -17.030 -21.747  0.00  0.00    +0.139 A 
ATOM     26  C   UNL     1      34.885 -18.273 -23.870  0.00  0.00    +0.345 A 
ATOM     27  C   UNL     1      34.359 -15.885 -22.402  0.00  0.00    +0.068 A 
ATOM     28  C   UNL     1      34.021 -15.990 -23.748  0.00  0.00    +0.152 A 
ATOM     29  C   UNL     1      34.069 -14.680 -21.747  0.00  0.00    +0.006 C 
ATOM     30  C   UNL     1      33.413 -14.946 -24.447  0.00  0.00    +0.038 C 
ATOM     31  C   UNL     1      33.459 -13.624 -22.434  0.00  0.00    +0.000 C 
ATOM     32  C   UNL     1      33.133 -13.757 -23.782  0.00  0.00    +0.003 C 
BRANCH  25  33
ATOM     33  O   UNL     1      35.289 -16.834 -20.414  0.00  0.00    -0.506 OA
ATOM     34  H   UNL     1      35.367 -17.569 -19.839  0.00  0.00    +0.292 HD
ENDBRANCH  25  33
ENDBRANCH  21  24
BRANCH  21  35
ATOM     35  C   UNL     1      37.267 -19.023 -21.236  0.00  0.00    +0.009 C 
ATOM     36  C   UNL     1      38.298 -18.578 -22.267  0.00  0.00    +0.001 C 
ENDBRANCH  21  35
ENDBRANCH   1  21
TORSDOF 9
ENDMDL
MODEL 5
REMARK VINA RESULT:     -10.4      2.902     11.263
REMARK  Name = 54689025
REMARK  9 active torsions:
REMARK  status: ('A' for Active; 'I' for Inactive)
REMARK    1  A    between atoms: C_1  and  C_21
REMARK    2  A    between atoms: C_4  and  N_8
REMARK    3  A    between atoms: C_9  and  C_11
REMARK    4  A    between atoms: C_11  and  N_13
REMARK    5  A    between atoms: C_14  and  O_16
REMARK    6  A    between atoms: O_16  and  C_17
REMARK    7  A    between atoms: C_21  and  C_24
REMARK    8  A    between atoms: C_21  and  C_35
REMARK    9  A    between atoms: C_25  and  O_33
REMARK                            x       y       z     vdW  Elec       q    Type
REMARK                         _______ _______ _______ _____ _____    ______ ____
ROOT
ATOM      1  C   UNL     1      33.190 -10.029 -23.169  0.00  0.00    -0.017 C 
ATOM      2  C   UNL     1      32.969 -11.340 -23.593  0.00  0.00    +0.011 C 
ATOM      3  C   UNL     1      34.198  -9.266 -23.758  0.00  0.00    -0.004 C 
ATOM      4  C   UNL     1      33.756 -11.886 -24.607  0.00  0.00    +0.050 C 
ATOM      5  C   UNL     1      34.986  -9.813 -24.770  0.00  0.00    +0.001 C 
ATOM      6  C   UNL     1      34.765 -11.123 -25.195  0.00  0.00    +0.015 C 
ENDROOT
BRANCH   4   8
ATOM      7  O   UNL     1      32.971 -12.955 -27.303  0.00  0.00    -0.273 OA
ATOM      8  N   UNL     1      33.537 -13.198 -25.031  0.00  0.00    -0.283 N 
ATOM      9  C   UNL     1      33.168 -13.647 -26.309  0.00  0.00    +0.246 C 
ATOM     10  H   UNL     1      33.657 -13.896 -24.347  0.00  0.00    +0.155 HD
BRANCH   9  11
ATOM     11  C   UNL     1      33.037 -15.159 -26.336  0.00  0.00    +0.179 C 
BRANCH  11  13
ATOM     12  O   UNL     1      35.236 -16.961 -25.741  0.00  0.00    -0.226 OA
ATOM     13  N   UNL     1      33.398 -15.715 -25.065  0.00  0.00    -0.262 N 
ATOM     14  C   UNL     1      34.468 -16.571 -24.867  0.00  0.00    +0.402 C 
ATOM     15  H   UNL     1      32.851 -15.472 -24.283  0.00  0.00    +0.153 HD
BRANCH  14  16
ATOM     16  O   UNL     1      34.550 -16.924 -23.549  0.00  0.00    -0.442 OA
BRANCH  16  17
ATOM     17  C   UNL     1      34.843 -18.301 -23.290  0.00  0.00    +0.138 C 
ATOM     18  C   UNL     1      34.455 -19.122 -24.519  0.00  0.00    +0.044 C 
ATOM     19  C   UNL     1      34.016 -18.726 -22.077  0.00  0.00    +0.044 C 
ATOM     20  C   UNL     1      36.336 -18.433 -22.995  0.00  0.00    +0.044 C 
ENDBRANCH  16  17
ENDBRANCH  14  16
ENDBRANCH  11  13
ENDBRANCH   9  11
ENDBRANCH   4   8
BRANCH   1  21
ATOM     21  C   UNL     1      32.333  -9.434 -22.067  0.00  0.00    +0.054 C 
BRANCH  21  24
ATOM     22  O   UNL     1      32.183  -5.732 -21.288  0.00  0.00    -0.421 OA
ATOM     23  O   UNL     1      32.829  -7.553 -20.087  0.00  0.00    -0.245 OA
ATOM     24  C   UNL     1      32.084  -7.970 -22.310  0.00  0.00    +0.091 A 
ATOM     25  C   UNL     1      31.619  -7.433 -23.454  0.00  0.00    +0.139 A 
ATOM     26  C   UNL     1      32.397  -7.097 -21.142  0.00  0.00    +0.345 A 
ATOM     27  C   UNL     1      31.404  -5.990 -23.576  0.00  0.00    +0.068 A 
ATOM     28  C   UNL     1      31.694  -5.179 -22.483  0.00  0.00    +0.152 A 
ATOM     29  C   UNL     1      30.920  -5.374 -24.738  0.00  0.00    +0.006 C 
ATOM     30  C   UNL     1      31.517  -3.794 -22.516  0.00  0.00    +0.038 C 
ATOM     31  C   UNL     1      30.737  -3.987 -24.787  0.00  0.00    +0.000 C 
ATOM     32  C   UNL     1      31.035  -3.199 -23.677  0.00  0.00    +0.003 C 
BRANCH  25  33
ATOM     33  O   UNL     1      31.309  -8.155 -24.588  0.00  0.00    -0.506 OA
ATOM     34  H   UNL     1      30.843  -7.746 -25.291  0.00  0.00    +0.292 HD
ENDBRANCH  25  33
ENDBRANCH  21  24
BRANCH  21  35
ATOM     35  C   UNL     1      30.991 -10.167 -21.861  0.00  0.00    +0.009 C 
ATOM     36  C   UNL     1      30.939 -10.958 -20.559  0.00  0.00    +0.001 C 
ENDBRANCH  21  35
ENDBRANCH   1  21
TORSDOF 9
ENDMDL
MODEL 6
REMARK VINA RESULT:     -10.3      4.703     11.494
REMARK  Name = 54689025
REMARK  9 active torsions:
REMARK  status: ('A' for Active; 'I' for Inactive)
REMARK    1  A    between atoms: C_1  and  C_21
REMARK    2  A    between atoms: C_4  and  N_8
REMARK    3  A    between atoms: C_9  and  C_11
REMARK    4  A    between atoms: C_11  and  N_13
REMARK    5  A    between atoms: C_14  and  O_16
REMARK    6  A    between atoms: O_16  and  C_17
REMARK    7  A    between atoms: C_21  and  C_24
REMARK    8  A    between atoms: C_21  and  C_35
REMARK    9  A    between atoms: C_25  and  O_33
REMARK                            x       y       z     vdW  Elec       q    Type
REMARK                         _______ _______ _______ _____ _____    ______ ____
ROOT
ATOM      1  C   UNL     1      34.902 -20.091 -20.857  0.00  0.00    -0.017 C 
ATOM      2  C   UNL     1      35.392 -20.973 -19.895  0.00  0.00    +0.011 C 
ATOM      3  C   UNL     1      33.531 -19.852 -20.951  0.00  0.00    -0.004 C 
ATOM      4  C   UNL     1      34.511 -21.615 -19.024  0.00  0.00    +0.050 C 
ATOM      5  C   UNL     1      32.650 -20.495 -20.082  0.00  0.00    +0.001 C 
ATOM      6  C   UNL     1      33.140 -21.376 -19.118  0.00  0.00    +0.015 C 
ENDROOT
BRANCH   4   8
ATOM      7  O   UNL     1      36.592 -21.216 -16.895  0.00  0.00    -0.273 OA
ATOM      8  N   UNL     1      35.000 -22.499 -18.061  0.00  0.00    -0.283 N 
ATOM      9  C   UNL     1      35.979 -22.262 -17.083  0.00  0.00    +0.246 C 
ATOM     10  H   UNL     1      34.608 -23.402 -18.068  0.00  0.00    +0.155 HD
BRANCH   9  11
ATOM     11  C   UNL     1      36.211 -23.500 -16.236  0.00  0.00    +0.179 C 
BRANCH  11  13
ATOM     12  O   UNL     1      34.546 -24.827 -14.259  0.00  0.00    -0.226 OA
ATOM     13  N   UNL     1      36.080 -23.185 -14.844  0.00  0.00    -0.262 N 
ATOM     14  C   UNL     1      35.259 -23.872 -13.965  0.00  0.00    +0.402 C 
ATOM     15  H   UNL     1      36.607 -22.432 -14.490  0.00  0.00    +0.153 HD
BRANCH  14  16
ATOM     16  O   UNL     1      35.356 -23.332 -12.713  0.00  0.00    -0.442 OA
BRANCH  16  17
ATOM     17  C   UNL     1      36.329 -23.929 -11.850  0.00  0.00    +0.138 C 
ATOM     18  C   UNL     1      37.524 -22.984 -11.737  0.00  0.00    +0.044 C 
ATOM     19  C   UNL     1      36.751 -25.255 -12.482  0.00  0.00    +0.044 C 
ATOM     20  C   UNL     1      35.688 -24.165 -10.483  0.00  0.00    +0.044 C 
ENDBRANCH  16  17
ENDBRANCH  14  16
ENDBRANCH  11  13
ENDBRANCH   9  11
ENDBRANCH   4   8
BRANCH   1  21
ATOM     21  C   UNL     1      35.861 -19.392 -21.804  0.00  0.00    +0.054 C 
BRANCH  21  24
ATOM     22  O   UNL     1      34.303 -17.176 -24.449  0.00  0.00    -0.421 OA
ATOM     23  O   UNL     1      35.083 -19.313 -24.467  0.00  0.00    -0.245 OA
ATOM     24  C   UNL     1      35.232 -18.157 -22.391  0.00  0.00    +0.091 A 
ATOM     25  C   UNL     1      34.988 -17.011 -21.727  0.00  0.00    +0.139 A 
ATOM     26  C   UNL     1      34.879 -18.280 -23.835  0.00  0.00    +0.345 A 
ATOM     27  C   UNL     1      34.379 -15.864 -22.405  0.00  0.00    +0.068 A 
ATOM     28  C   UNL     1      34.054 -15.981 -23.752  0.00  0.00    +0.152 A 
ATOM     29  C   UNL     1      34.104 -14.646 -21.768  0.00  0.00    +0.006 C 
ATOM     30  C   UNL     1      33.472 -14.936 -24.472  0.00  0.00    +0.038 C 
ATOM     31  C   UNL     1      33.520 -13.588 -22.475  0.00  0.00    +0.000 C 
ATOM     32  C   UNL     1      33.206 -13.734 -23.825  0.00  0.00    +0.003 C 
BRANCH  25  33
ATOM     33  O   UNL     1      35.271 -16.803 -20.394  0.00  0.00    -0.506 OA
ATOM     34  H   UNL     1      36.161 -16.774 -20.102  0.00  0.00    +0.292 HD
ENDBRANCH  25  33
ENDBRANCH  21  24
BRANCH  21  35
ATOM     35  C   UNL     1      37.217 -19.035 -21.160  0.00  0.00    +0.009 C 
ATOM     36  C   UNL     1      38.278 -18.649 -22.185  0.00  0.00    +0.001 C 
ENDBRANCH  21  35
ENDBRANCH   1  21
TORSDOF 9
ENDMDL
MODEL 7
REMARK VINA RESULT:     -10.3      4.603     11.399
REMARK  Name = 54689025
REMARK  9 active torsions:
REMARK  status: ('A' for Active; 'I' for Inactive)
REMARK    1  A    between atoms: C_1  and  C_21
REMARK    2  A    between atoms: C_4  and  N_8
REMARK    3  A    between atoms: C_9  and  C_11
REMARK    4  A    between atoms: C_11  and  N_13
REMARK    5  A    between atoms: C_14  and  O_16
REMARK    6  A    between atoms: O_16  and  C_17
REMARK    7  A    between atoms: C_21  and  C_24
REMARK    8  A    between atoms: C_21  and  C_35
REMARK    9  A    between atoms: C_25  and  O_33
REMARK                            x       y       z     vdW  Elec       q    Type
REMARK                         _______ _______ _______ _____ _____    ______ ____
ROOT
ATOM      1  C   UNL     1      34.632 -19.930 -20.974  0.00  0.00    -0.017 C 
ATOM      2  C   UNL     1      35.007 -20.922 -20.069  0.00  0.00    +0.011 C 
ATOM      3  C   UNL     1      33.293 -19.550 -21.078  0.00  0.00    -0.004 C 
ATOM      4  C   UNL     1      34.045 -21.533 -19.265  0.00  0.00    +0.050 C 
ATOM      5  C   UNL     1      32.331 -20.162 -20.275  0.00  0.00    +0.001 C 
ATOM      6  C   UNL     1      32.707 -21.153 -19.369  0.00  0.00    +0.015 C 
ENDROOT
BRANCH   4   8
ATOM      7  O   UNL     1      32.514 -22.782 -17.001  0.00  0.00    -0.273 OA
ATOM      8  N   UNL     1      34.420 -22.526 -18.359  0.00  0.00    -0.283 N 
ATOM      9  C   UNL     1      33.664 -23.078 -17.313  0.00  0.00    +0.246 C 
ATOM     10  H   UNL     1      35.330 -22.887 -18.469  0.00  0.00    +0.155 HD
BRANCH   9  11
ATOM     11  C   UNL     1      34.457 -24.138 -16.570  0.00  0.00    +0.179 C 
BRANCH  11  13
ATOM     12  O   UNL     1      36.944 -25.094 -15.412  0.00  0.00    -0.226 OA
ATOM     13  N   UNL     1      35.220 -23.542 -15.513  0.00  0.00    -0.262 N 
ATOM     14  C   UNL     1      36.402 -24.066 -15.017  0.00  0.00    +0.402 C 
ATOM     15  H   UNL     1      34.883 -22.707 -15.115  0.00  0.00    +0.153 HD
BRANCH  14  16
ATOM     16  O   UNL     1      36.886 -23.269 -14.018  0.00  0.00    -0.442 OA
BRANCH  16  17
ATOM     17  C   UNL     1      37.007 -23.886 -12.732  0.00  0.00    +0.138 C 
ATOM     18  C   UNL     1      37.237 -22.795 -11.687  0.00  0.00    +0.044 C 
ATOM     19  C   UNL     1      38.203 -24.836 -12.789  0.00  0.00    +0.044 C 
ATOM     20  C   UNL     1      35.721 -24.658 -12.440  0.00  0.00    +0.044 C 
ENDBRANCH  16  17
ENDBRANCH  14  16
ENDBRANCH  11  13
ENDBRANCH   9  11
ENDBRANCH   4   8
BRANCH   1  21
ATOM     21  C   UNL     1      35.679 -19.264 -21.848  0.00  0.00    +0.054 C 
BRANCH  21  24
ATOM     22  O   UNL     1      34.575 -15.645 -21.964  0.00  0.00    -0.421 OA
ATOM     23  O   UNL     1      35.415 -16.967 -20.314  0.00  0.00    -0.245 OA
ATOM     24  C   UNL     1      35.149 -17.990 -22.447  0.00  0.00    +0.091 A 
ATOM     25  C   UNL     1      34.763 -17.826 -23.727  0.00  0.00    +0.139 A 
ATOM     26  C   UNL     1      35.066 -16.852 -21.485  0.00  0.00    +0.345 A 
ATOM     27  C   UNL     1      34.250 -16.538 -24.200  0.00  0.00    +0.068 A 
ATOM     28  C   UNL     1      34.171 -15.481 -23.299  0.00  0.00    +0.152 A 
ATOM     29  C   UNL     1      33.831 -16.308 -25.518  0.00  0.00    +0.006 C 
ATOM     30  C   UNL     1      33.694 -14.222 -23.668  0.00  0.00    +0.038 C 
ATOM     31  C   UNL     1      33.351 -15.052 -25.904  0.00  0.00    +0.000 C 
ATOM     32  C   UNL     1      33.281 -14.011 -24.980  0.00  0.00    +0.003 C 
BRANCH  25  33
ATOM     33  O   UNL     1      34.809 -18.812 -24.691  0.00  0.00    -0.506 OA
ATOM     34  H   UNL     1      35.387 -18.725 -25.423  0.00  0.00    +0.292 HD
ENDBRANCH  25  33
ENDBRANCH  21  24
BRANCH  21  35
ATOM     35  C   UNL     1      37.010 -18.987 -21.118  0.00  0.00    +0.009 C 
ATOM     36  C   UNL     1      38.159 -18.683 -22.073  0.00  0.00    +0.001 C 
ENDBRANCH  21  35
ENDBRANCH   1  21
TORSDOF 9
ENDMDL
MODEL 8
REMARK VINA RESULT:     -10.1      4.689     10.965
REMARK  Name = 54689025
REMARK  9 active torsions:
REMARK  status: ('A' for Active; 'I' for Inactive)
REMARK    1  A    between atoms: C_1  and  C_21
REMARK    2  A    between atoms: C_4  and  N_8
REMARK    3  A    between atoms: C_9  and  C_11
REMARK    4  A    between atoms: C_11  and  N_13
REMARK    5  A    between atoms: C_14  and  O_16
REMARK    6  A    between atoms: O_16  and  C_17
REMARK    7  A    between atoms: C_21  and  C_24
REMARK    8  A    between atoms: C_21  and  C_35
REMARK    9  A    between atoms: C_25  and  O_33
REMARK                            x       y       z     vdW  Elec       q    Type
REMARK                         _______ _______ _______ _____ _____    ______ ____
ROOT
ATOM      1  C   UNL     1      34.888 -20.105 -20.899  0.00  0.00    -0.017 C 
ATOM      2  C   UNL     1      35.350 -20.912 -19.860  0.00  0.00    +0.011 C 
ATOM      3  C   UNL     1      33.517 -19.941 -21.099  0.00  0.00    -0.004 C 
ATOM      4  C   UNL     1      34.442 -21.555 -19.020  0.00  0.00    +0.050 C 
ATOM      5  C   UNL     1      32.608 -20.585 -20.259  0.00  0.00    +0.001 C 
ATOM      6  C   UNL     1      33.071 -21.392 -19.219  0.00  0.00    +0.015 C 
ENDROOT
BRANCH   4   8
ATOM      7  O   UNL     1      36.697 -21.134 -17.079  0.00  0.00    -0.273 OA
ATOM      8  N   UNL     1      34.903 -22.364 -17.980  0.00  0.00    -0.283 N 
ATOM      9  C   UNL     1      35.968 -22.120 -17.097  0.00  0.00    +0.246 C 
ATOM     10  H   UNL     1      34.420 -23.212 -17.848  0.00  0.00    +0.155 HD
BRANCH   9  11
ATOM     11  C   UNL     1      36.129 -23.265 -16.113  0.00  0.00    +0.179 C 
BRANCH  11  13
ATOM     12  O   UNL     1      34.692 -23.651 -13.617  0.00  0.00    -0.226 OA
ATOM     13  N   UNL     1      34.876 -23.933 -15.915  0.00  0.00    -0.262 N 
ATOM     14  C   UNL     1      34.257 -24.074 -14.684  0.00  0.00    +0.402 C 
ATOM     15  H   UNL     1      34.428 -24.317 -16.703  0.00  0.00    +0.153 HD
BRANCH  14  16
ATOM     16  O   UNL     1      33.081 -24.757 -14.826  0.00  0.00    -0.442 OA
BRANCH  16  17
ATOM     17  C   UNL     1      31.894 -23.957 -14.837  0.00  0.00    +0.138 C 
ATOM     18  C   UNL     1      30.682 -24.882 -14.726  0.00  0.00    +0.044 C 
ATOM     19  C   UNL     1      31.867 -23.193 -16.160  0.00  0.00    +0.044 C 
ATOM     20  C   UNL     1      31.949 -22.987 -13.658  0.00  0.00    +0.044 C 
ENDBRANCH  16  17
ENDBRANCH  14  16
ENDBRANCH  11  13
ENDBRANCH   9  11
ENDBRANCH   4   8
BRANCH   1  21
ATOM     21  C   UNL     1      35.877 -19.404 -21.813  0.00  0.00    +0.054 C 
BRANCH  21  24
ATOM     22  O   UNL     1      34.556 -15.857 -21.904  0.00  0.00    -0.421 OA
ATOM     23  O   UNL     1      35.465 -17.141 -20.261  0.00  0.00    -0.245 OA
ATOM     24  C   UNL     1      35.273 -18.158 -22.404  0.00  0.00    +0.091 A 
ATOM     25  C   UNL     1      34.886 -18.007 -23.685  0.00  0.00    +0.139 A 
ATOM     26  C   UNL     1      35.116 -17.037 -21.433  0.00  0.00    +0.345 A 
ATOM     27  C   UNL     1      34.299 -16.748 -24.150  0.00  0.00    +0.068 A 
ATOM     28  C   UNL     1      34.151 -15.706 -23.241  0.00  0.00    +0.152 A 
ATOM     29  C   UNL     1      33.874 -16.532 -25.468  0.00  0.00    +0.006 C 
ATOM     30  C   UNL     1      33.600 -14.475 -23.602  0.00  0.00    +0.038 C 
ATOM     31  C   UNL     1      33.321 -15.304 -25.847  0.00  0.00    +0.000 C 
ATOM     32  C   UNL     1      33.183 -14.278 -24.914  0.00  0.00    +0.003 C 
BRANCH  25  33
ATOM     33  O   UNL     1      34.997 -18.979 -24.657  0.00  0.00    -0.506 OA
ATOM     34  H   UNL     1      34.818 -18.770 -25.552  0.00  0.00    +0.292 HD
ENDBRANCH  25  33
ENDBRANCH  21  24
BRANCH  21  35
ATOM     35  C   UNL     1      37.218 -19.065 -21.131  0.00  0.00    +0.009 C 
ATOM     36  C   UNL     1      38.304 -18.660 -22.123  0.00  0.00    +0.001 C 
ENDBRANCH  21  35
ENDBRANCH   1  21
TORSDOF 9
ENDMDL
MODEL 9
REMARK VINA RESULT:     -10.1      2.358     11.475
REMARK  Name = 54689025
REMARK  9 active torsions:
REMARK  status: ('A' for Active; 'I' for Inactive)
REMARK    1  A    between atoms: C_1  and  C_21
REMARK    2  A    between atoms: C_4  and  N_8
REMARK    3  A    between atoms: C_9  and  C_11
REMARK    4  A    between atoms: C_11  and  N_13
REMARK    5  A    between atoms: C_14  and  O_16
REMARK    6  A    between atoms: O_16  and  C_17
REMARK    7  A    between atoms: C_21  and  C_24
REMARK    8  A    between atoms: C_21  and  C_35
REMARK    9  A    between atoms: C_25  and  O_33
REMARK                            x       y       z     vdW  Elec       q    Type
REMARK                         _______ _______ _______ _____ _____    ______ ____
ROOT
ATOM      1  C   UNL     1      33.097 -10.030 -23.079  0.00  0.00    -0.017 C 
ATOM      2  C   UNL     1      33.087 -11.407 -23.296  0.00  0.00    +0.011 C 
ATOM      3  C   UNL     1      33.950  -9.213 -23.821  0.00  0.00    -0.004 C 
ATOM      4  C   UNL     1      33.929 -11.968 -24.257  0.00  0.00    +0.050 C 
ATOM      5  C   UNL     1      34.793  -9.774 -24.781  0.00  0.00    +0.001 C 
ATOM      6  C   UNL     1      34.782 -11.151 -24.999  0.00  0.00    +0.015 C 
ENDROOT
BRANCH   4   8
ATOM      7  O   UNL     1      34.539 -14.239 -22.386  0.00  0.00    -0.273 OA
ATOM      8  N   UNL     1      33.919 -13.347 -24.474  0.00  0.00    -0.283 N 
ATOM      9  C   UNL     1      34.214 -14.372 -23.562  0.00  0.00    +0.246 C 
ATOM     10  H   UNL     1      33.673 -13.637 -25.383  0.00  0.00    +0.155 HD
BRANCH   9  11
ATOM     11  C   UNL     1      34.080 -15.736 -24.215  0.00  0.00    +0.179 C 
BRANCH  11  13
ATOM     12  O   UNL     1      34.188 -18.603 -24.668  0.00  0.00    -0.226 OA
ATOM     13  N   UNL     1      34.860 -16.708 -23.507  0.00  0.00    -0.262 N 
ATOM     14  C   UNL     1      34.853 -18.064 -23.788  0.00  0.00    +0.402 C 
ATOM     15  H   UNL     1      35.438 -16.392 -22.775  0.00  0.00    +0.153 HD
BRANCH  14  16
ATOM     16  O   UNL     1      35.699 -18.724 -22.941  0.00  0.00    -0.442 OA
BRANCH  16  17
ATOM     17  C   UNL     1      35.252 -18.847 -21.586  0.00  0.00    +0.138 C 
ATOM     18  C   UNL     1      35.144 -17.449 -20.980  0.00  0.00    +0.044 C 
ATOM     19  C   UNL     1      36.290 -19.680 -20.835  0.00  0.00    +0.044 C 
ATOM     20  C   UNL     1      33.895 -19.549 -21.583  0.00  0.00    +0.044 C 
ENDBRANCH  16  17
ENDBRANCH  14  16
ENDBRANCH  11  13
ENDBRANCH   9  11
ENDBRANCH   4   8
BRANCH   1  21
ATOM     21  C   UNL     1      32.181  -9.419 -22.034  0.00  0.00    +0.054 C 
BRANCH  21  24
ATOM     22  O   UNL     1      32.173  -5.704 -21.308  0.00  0.00    -0.421 OA
ATOM     23  O   UNL     1      32.793  -7.528 -20.098  0.00  0.00    -0.245 OA
ATOM     24  C   UNL     1      31.973  -7.951 -22.293  0.00  0.00    +0.091 A 
ATOM     25  C   UNL     1      31.494  -7.416 -23.431  0.00  0.00    +0.139 A 
ATOM     26  C   UNL     1      32.347  -7.072 -21.147  0.00  0.00    +0.345 A 
ATOM     27  C   UNL     1      31.323  -5.968 -23.568  0.00  0.00    +0.068 A 
ATOM     28  C   UNL     1      31.669  -5.151 -22.497  0.00  0.00    +0.152 A 
ATOM     29  C   UNL     1      30.826  -5.353 -24.726  0.00  0.00    +0.006 C 
ATOM     30  C   UNL     1      31.537  -3.763 -22.545  0.00  0.00    +0.038 C 
ATOM     31  C   UNL     1      30.687  -3.962 -24.792  0.00  0.00    +0.000 C 
ATOM     32  C   UNL     1      31.041  -3.169 -23.702  0.00  0.00    +0.003 C 
BRANCH  25  33
ATOM     33  O   UNL     1      31.128  -8.143 -24.545  0.00  0.00    -0.506 OA
ATOM     34  H   UNL     1      31.640  -8.089 -25.328  0.00  0.00    +0.292 HD
ENDBRANCH  25  33
ENDBRANCH  21  24
BRANCH  21  35
ATOM     35  C   UNL     1      30.816 -10.130 -21.916  0.00  0.00    +0.009 C 
ATOM     36  C   UNL     1      30.733 -11.061 -20.712  0.00  0.00    +0.001 C 
ENDBRANCH  21  35
ENDBRANCH   1  21
TORSDOF 9
ENDMDL
