MODEL 1
REMARK VINA RESULT:      -3.5      0.000      0.000
REMARK  Name = 24529
REMARK  1 active torsions:
REMARK  status: ('A' for Active; 'I' for Inactive)
REMARK    1  A    between atoms: O_1  and  N_4
REMARK                            x       y       z     vdW  Elec       q    Type
REMARK                         _______ _______ _______ _____ _____    ______ ____
ROOT
ATOM      1  O   UNL     1      26.019 -20.155 -18.000  0.00  0.00    -0.269 OA
ATOM      2  H   UNL     1      26.470 -19.784 -18.733  0.00  0.00    +0.241 HD
ENDROOT
BRANCH   1   4
ATOM      3  O   UNL     1      25.666 -21.806 -16.486  0.00  0.00    -0.070 OA
ATOM      4  N   UNL     1      26.552 -21.287 -17.340  0.00  0.00    +0.098 NA
ENDBRANCH   1   4
TORSDOF 1
ENDMDL
MODEL 2
REMARK VINA RESULT:      -3.5     15.689     15.792
REMARK  Name = 24529
REMARK  1 active torsions:
REMARK  status: ('A' for Active; 'I' for Inactive)
REMARK    1  A    between atoms: O_1  and  N_4
REMARK                            x       y       z     vdW  Elec       q    Type
REMARK                         _______ _______ _______ _____ _____    ______ ____
ROOT
ATOM      1  O   UNL     1      40.405 -25.942 -16.055  0.00  0.00    -0.269 OA
ATOM      2  H   UNL     1      39.848 -25.342 -16.511  0.00  0.00    +0.241 HD
ENDROOT
BRANCH   1   4
ATOM      3  O   UNL     1      41.272 -26.726 -14.111  0.00  0.00    -0.070 OA
ATOM      4  N   UNL     1      40.871 -25.628 -14.756  0.00  0.00    +0.098 NA
ENDBRANCH   1   4
TORSDOF 1
ENDMDL
MODEL 3
REMARK VINA RESULT:      -3.4      0.212      1.853
REMARK  Name = 24529
REMARK  1 active torsions:
REMARK  status: ('A' for Active; 'I' for Inactive)
REMARK    1  A    between atoms: O_1  and  N_4
REMARK                            x       y       z     vdW  Elec       q    Type
REMARK                         _______ _______ _______ _____ _____    ______ ____
ROOT
ATOM      1  O   UNL     1      25.569 -21.813 -16.352  0.00  0.00    -0.269 OA
ATOM      2  H   UNL     1      24.658 -21.677 -16.524  0.00  0.00    +0.241 HD
ENDROOT
BRANCH   1   4
ATOM      3  O   UNL     1      26.187 -20.362 -17.982  0.00  0.00    -0.070 OA
ATOM      4  N   UNL     1      26.533 -21.476 -17.331  0.00  0.00    +0.098 NA
ENDBRANCH   1   4
TORSDOF 1
ENDMDL
MODEL 4
REMARK VINA RESULT:      -3.2     12.343     12.522
REMARK  Name = 24529
REMARK  1 active torsions:
REMARK  status: ('A' for Active; 'I' for Inactive)
REMARK    1  A    between atoms: O_1  and  N_4
REMARK                            x       y       z     vdW  Elec       q    Type
REMARK                         _______ _______ _______ _____ _____    ______ ____
ROOT
ATOM      1  O   UNL     1      36.061 -25.604 -11.555  0.00  0.00    -0.269 OA
ATOM      2  H   UNL     1      36.970 -25.408 -11.677  0.00  0.00    +0.241 HD
ENDROOT
BRANCH   1   4
ATOM      3  O   UNL     1      36.130 -24.195  -9.779  0.00  0.00    -0.070 OA
ATOM      4  N   UNL     1      35.346 -25.011 -10.488  0.00  0.00    +0.098 NA
ENDBRANCH   1   4
TORSDOF 1
ENDMDL
MODEL 5
REMARK VINA RESULT:      -3.1      8.981      8.981
REMARK  Name = 24529
REMARK  1 active torsions:
REMARK  status: ('A' for Active; 'I' for Inactive)
REMARK    1  A    between atoms: O_1  and  N_4
REMARK                            x       y       z     vdW  Elec       q    Type
REMARK                         _______ _______ _______ _____ _____    ______ ____
ROOT
ATOM      1  O   UNL     1      34.013 -25.417 -20.370  0.00  0.00    -0.269 OA
ATOM      2  H   UNL     1      33.632 -26.083 -19.831  0.00  0.00    +0.241 HD
ENDROOT
BRANCH   1   4
ATOM      3  O   UNL     1      33.716 -23.994 -18.629  0.00  0.00    -0.070 OA
ATOM      4  N   UNL     1      34.046 -24.076 -19.920  0.00  0.00    +0.098 NA
ENDBRANCH   1   4
TORSDOF 1
ENDMDL
MODEL 6
REMARK VINA RESULT:      -3.0     15.440     15.623
REMARK  Name = 24529
REMARK  1 active torsions:
REMARK  status: ('A' for Active; 'I' for Inactive)
REMARK    1  A    between atoms: O_1  and  N_4
REMARK                            x       y       z     vdW  Elec       q    Type
REMARK                         _______ _______ _______ _____ _____    ______ ____
ROOT
ATOM      1  O   UNL     1      39.641 -26.736 -14.689  0.00  0.00    -0.269 OA
ATOM      2  H   UNL     1      38.991 -26.115 -14.953  0.00  0.00    +0.241 HD
ENDROOT
BRANCH   1   4
ATOM      3  O   UNL     1      41.075 -24.984 -14.552  0.00  0.00    -0.070 OA
ATOM      4  N   UNL     1      40.941 -26.296 -14.342  0.00  0.00    +0.098 NA
ENDBRANCH   1   4
TORSDOF 1
ENDMDL
MODEL 7
REMARK VINA RESULT:      -3.0     12.939     12.939
REMARK  Name = 24529
REMARK  1 active torsions:
REMARK  status: ('A' for Active; 'I' for Inactive)
REMARK    1  A    between atoms: O_1  and  N_4
REMARK                            x       y       z     vdW  Elec       q    Type
REMARK                         _______ _______ _______ _____ _____    ______ ____
ROOT
ATOM      1  O   UNL     1      37.356 -22.739 -11.005  0.00  0.00    -0.269 OA
ATOM      2  H   UNL     1      36.722 -22.080 -11.210  0.00  0.00    +0.241 HD
ENDROOT
BRANCH   1   4
ATOM      3  O   UNL     1      36.110 -24.184  -9.779  0.00  0.00    -0.070 OA
ATOM      4  N   UNL     1      36.947 -24.080 -10.815  0.00  0.00    +0.098 NA
ENDBRANCH   1   4
TORSDOF 1
ENDMDL
MODEL 8
REMARK VINA RESULT:      -3.0      2.731      3.230
REMARK  Name = 24529
REMARK  1 active torsions:
REMARK  status: ('A' for Active; 'I' for Inactive)
REMARK    1  A    between atoms: O_1  and  N_4
REMARK                            x       y       z     vdW  Elec       q    Type
REMARK                         _______ _______ _______ _____ _____    ______ ____
ROOT
ATOM      1  O   UNL     1      27.822 -24.254 -17.408  0.00  0.00    -0.269 OA
ATOM      2  H   UNL     1      28.364 -24.817 -17.926  0.00  0.00    +0.241 HD
ENDROOT
BRANCH   1   4
ATOM      3  O   UNL     1      28.202 -22.032 -17.154  0.00  0.00    -0.070 OA
ATOM      4  N   UNL     1      27.527 -22.945 -17.858  0.00  0.00    +0.098 NA
ENDBRANCH   1   4
TORSDOF 1
ENDMDL
MODEL 9
REMARK VINA RESULT:      -2.9     18.084     18.272
REMARK  Name = 24529
REMARK  1 active torsions:
REMARK  status: ('A' for Active; 'I' for Inactive)
REMARK    1  A    between atoms: O_1  and  N_4
REMARK                            x       y       z     vdW  Elec       q    Type
REMARK                         _______ _______ _______ _____ _____    ______ ____
ROOT
ATOM      1  O   UNL     1      41.249 -20.270 -26.508  0.00  0.00    -0.269 OA
ATOM      2  H   UNL     1      41.401 -19.381 -26.762  0.00  0.00    +0.241 HD
ENDROOT
BRANCH   1   4
ATOM      3  O   UNL     1      42.729 -21.298 -25.130  0.00  0.00    -0.070 OA
ATOM      4  N   UNL     1      42.335 -21.171 -26.400  0.00  0.00    +0.098 NA
ENDBRANCH   1   4
TORSDOF 1
ENDMDL
