MODEL 1
REMARK VINA RESULT:      -8.8      0.000      0.000
REMARK  Name = 5280881
REMARK  14 active torsions:
REMARK  status: ('A' for Active; 'I' for Inactive)
REMARK    1  A    between atoms: C_3  and  C_7
REMARK    2  A    between atoms: C_4  and  C_17
REMARK    3  A    between atoms: C_8  and  C_9
REMARK    4  A    between atoms: C_9  and  O_10
REMARK    5  A    between atoms: C_9  and  C_12
REMARK    6  A    between atoms: C_12  and  C_13
REMARK    7  A    between atoms: C_13  and  C_14
REMARK    8  A    between atoms: C_14  and  C_15
REMARK    9  A    between atoms: C_17  and  C_18
REMARK   10  A    between atoms: C_19  and  C_20
REMARK   11  A    between atoms: C_20  and  C_21
REMARK   12  A    between atoms: C_21  and  C_22
REMARK   13  A    between atoms: C_22  and  C_24
REMARK   14  A    between atoms: C_24  and  O_25
REMARK                            x       y       z     vdW  Elec       q    Type
REMARK                         _______ _______ _______ _____ _____    ______ ____
ROOT
ATOM      1  O   UNL     1      34.603 -24.620 -12.028  0.00  0.00    -0.287 OA
ATOM      2  C   UNL     1      35.894 -23.237 -15.034  0.00  0.00    +0.003 C 
ATOM      3  C   UNL     1      34.429 -23.493 -15.242  0.00  0.00    -0.001 C 
ATOM      4  C   UNL     1      33.795 -24.020 -14.187  0.00  0.00    +0.021 C 
ATOM      5  C   UNL     1      36.170 -23.691 -13.607  0.00  0.00    +0.042 C 
ATOM      6  C   UNL     1      34.827 -24.166 -13.141  0.00  0.00    +0.192 C 
ENDROOT
BRANCH   3   7
ATOM      7  C   UNL     1      33.846 -23.165 -16.512  0.00  0.00    -0.002 C 
ATOM      8  C   UNL     1      34.562 -22.788 -17.580  0.00  0.00    +0.003 C 
BRANCH   8   9
ATOM      9  C   UNL     1      33.950 -22.445 -18.910  0.00  0.00    +0.132 C 
BRANCH   9  10
ATOM     10  O   UNL     1      32.566 -22.160 -18.713  0.00  0.00    -0.380 OA
ATOM     11  H   UNL     1      32.450 -21.209 -18.563  0.00  0.00    +0.211 HD
ENDBRANCH   9  10
BRANCH   9  12
ATOM     12  C   UNL     1      34.649 -21.235 -19.547  0.00  0.00    +0.034 C 
BRANCH  12  13
ATOM     13  C   UNL     1      33.714 -20.456 -20.478  0.00  0.00    +0.003 C 
BRANCH  13  14
ATOM     14  C   UNL     1      34.401 -19.207 -21.035  0.00  0.00    +0.000 C 
BRANCH  14  15
ATOM     15  C   UNL     1      34.429 -19.223 -22.563  0.00  0.00    +0.000 C 
ATOM     16  C   UNL     1      35.523 -18.320 -23.110  0.00  0.00    +0.000 C 
ENDBRANCH  14  15
ENDBRANCH  13  14
ENDBRANCH  12  13
ENDBRANCH   9  12
ENDBRANCH   8   9
ENDBRANCH   3   7
BRANCH   4  17
ATOM     17  C   UNL     1      32.385 -24.420 -13.964  0.00  0.00    +0.055 C 
BRANCH  17  18
ATOM     18  C   UNL     1      31.391 -23.296 -13.827  0.00  0.00    -0.026 C 
ATOM     19  C   UNL     1      30.518 -22.860 -14.750  0.00  0.00    -0.030 C 
BRANCH  19  20
ATOM     20  C   UNL     1      30.395 -23.457 -16.123  0.00  0.00    +0.026 C 
BRANCH  20  21
ATOM     21  C   UNL     1      28.953 -23.474 -16.639  0.00  0.00    +0.016 C 
BRANCH  21  22
ATOM     22  C   UNL     1      27.950 -22.906 -15.632  0.00  0.00    +0.110 C 
BRANCH  22  24
ATOM     23  O   UNL     1      27.032 -21.445 -17.350  0.00  0.00    -0.250 OA
ATOM     24  C   UNL     1      26.889 -22.067 -16.307  0.00  0.00    +0.314 C 
BRANCH  24  25
ATOM     25  O   UNL     1      25.726 -22.083 -15.606  0.00  0.00    -0.480 OA
ATOM     26  H   UNL     1      25.599 -21.490 -14.892  0.00  0.00    +0.295 HD
ENDBRANCH  24  25
ENDBRANCH  22  24
ENDBRANCH  21  22
ENDBRANCH  20  21
ENDBRANCH  19  20
ENDBRANCH  17  18
ENDBRANCH   4  17
TORSDOF 14
ENDMDL
MODEL 2
REMARK VINA RESULT:      -8.8      2.780      7.799
REMARK  Name = 5280881
REMARK  14 active torsions:
REMARK  status: ('A' for Active; 'I' for Inactive)
REMARK    1  A    between atoms: C_3  and  C_7
REMARK    2  A    between atoms: C_4  and  C_17
REMARK    3  A    between atoms: C_8  and  C_9
REMARK    4  A    between atoms: C_9  and  O_10
REMARK    5  A    between atoms: C_9  and  C_12
REMARK    6  A    between atoms: C_12  and  C_13
REMARK    7  A    between atoms: C_13  and  C_14
REMARK    8  A    between atoms: C_14  and  C_15
REMARK    9  A    between atoms: C_17  and  C_18
REMARK   10  A    between atoms: C_19  and  C_20
REMARK   11  A    between atoms: C_20  and  C_21
REMARK   12  A    between atoms: C_21  and  C_22
REMARK   13  A    between atoms: C_22  and  C_24
REMARK   14  A    between atoms: C_24  and  O_25
REMARK                            x       y       z     vdW  Elec       q    Type
REMARK                         _______ _______ _______ _____ _____    ______ ____
ROOT
ATOM      1  O   UNL     1      36.796 -21.277 -19.383  0.00  0.00    -0.287 OA
ATOM      2  C   UNL     1      36.033 -22.483 -16.130  0.00  0.00    +0.003 C 
ATOM      3  C   UNL     1      34.831 -22.719 -16.997  0.00  0.00    -0.001 C 
ATOM      4  C   UNL     1      34.965 -22.314 -18.266  0.00  0.00    +0.021 C 
ATOM      5  C   UNL     1      37.054 -21.824 -17.048  0.00  0.00    +0.042 C 
ATOM      6  C   UNL     1      36.326 -21.748 -18.357  0.00  0.00    +0.192 C 
ENDROOT
BRANCH   3   7
ATOM      7  C   UNL     1      33.673 -23.339 -16.418  0.00  0.00    -0.002 C 
ATOM      8  C   UNL     1      33.548 -23.591 -15.108  0.00  0.00    +0.003 C 
BRANCH   8   9
ATOM      9  C   UNL     1      32.335 -24.240 -14.500  0.00  0.00    +0.132 C 
BRANCH   9  10
ATOM     10  O   UNL     1      32.731 -24.909 -13.303  0.00  0.00    -0.380 OA
ATOM     11  H   UNL     1      33.679 -24.769 -13.155  0.00  0.00    +0.211 HD
ENDBRANCH   9  10
BRANCH   9  12
ATOM     12  C   UNL     1      31.248 -23.203 -14.187  0.00  0.00    +0.034 C 
BRANCH  12  13
ATOM     13  C   UNL     1      29.924 -23.526 -14.889  0.00  0.00    +0.003 C 
BRANCH  13  14
ATOM     14  C   UNL     1      29.892 -22.947 -16.305  0.00  0.00    +0.000 C 
BRANCH  14  15
ATOM     15  C   UNL     1      28.465 -22.886 -16.848  0.00  0.00    +0.000 C 
ATOM     16  C   UNL     1      27.481 -22.433 -15.781  0.00  0.00    +0.000 C 
ENDBRANCH  14  15
ENDBRANCH  13  14
ENDBRANCH  12  13
ENDBRANCH   9  12
ENDBRANCH   8   9
ENDBRANCH   3   7
BRANCH   4  17
ATOM     17  C   UNL     1      34.049 -22.353 -19.432  0.00  0.00    +0.055 C 
BRANCH  17  18
ATOM     18  C   UNL     1      33.110 -21.182 -19.575  0.00  0.00    -0.026 C 
ATOM     19  C   UNL     1      33.269 -20.098 -20.351  0.00  0.00    -0.030 C 
BRANCH  19  20
ATOM     20  C   UNL     1      34.463 -19.878 -21.237  0.00  0.00    +0.026 C 
BRANCH  20  21
ATOM     21  C   UNL     1      34.256 -18.745 -22.246  0.00  0.00    +0.016 C 
BRANCH  21  22
ATOM     22  C   UNL     1      34.900 -19.029 -23.604  0.00  0.00    +0.110 C 
BRANCH  22  24
ATOM     23  O   UNL     1      34.435 -17.696 -25.588  0.00  0.00    -0.250 OA
ATOM     24  C   UNL     1      34.938 -17.795 -24.478  0.00  0.00    +0.314 C 
BRANCH  24  25
ATOM     25  O   UNL     1      35.608 -16.781 -23.874  0.00  0.00    -0.480 OA
ATOM     26  H   UNL     1      35.135 -16.080 -23.470  0.00  0.00    +0.295 HD
ENDBRANCH  24  25
ENDBRANCH  22  24
ENDBRANCH  21  22
ENDBRANCH  20  21
ENDBRANCH  19  20
ENDBRANCH  17  18
ENDBRANCH   4  17
TORSDOF 14
ENDMDL
MODEL 3
REMARK VINA RESULT:      -8.7      2.512      6.525
REMARK  Name = 5280881
REMARK  14 active torsions:
REMARK  status: ('A' for Active; 'I' for Inactive)
REMARK    1  A    between atoms: C_3  and  C_7
REMARK    2  A    between atoms: C_4  and  C_17
REMARK    3  A    between atoms: C_8  and  C_9
REMARK    4  A    between atoms: C_9  and  O_10
REMARK    5  A    between atoms: C_9  and  C_12
REMARK    6  A    between atoms: C_12  and  C_13
REMARK    7  A    between atoms: C_13  and  C_14
REMARK    8  A    between atoms: C_14  and  C_15
REMARK    9  A    between atoms: C_17  and  C_18
REMARK   10  A    between atoms: C_19  and  C_20
REMARK   11  A    between atoms: C_20  and  C_21
REMARK   12  A    between atoms: C_21  and  C_22
REMARK   13  A    between atoms: C_22  and  C_24
REMARK   14  A    between atoms: C_24  and  O_25
REMARK                            x       y       z     vdW  Elec       q    Type
REMARK                         _______ _______ _______ _____ _____    ______ ____
ROOT
ATOM      1  O   UNL     1      30.876 -23.909 -12.704  0.00  0.00    -0.287 OA
ATOM      2  C   UNL     1      30.957 -22.878 -16.102  0.00  0.00    +0.003 C 
ATOM      3  C   UNL     1      32.298 -23.466 -15.772  0.00  0.00    -0.001 C 
ATOM      4  C   UNL     1      32.426 -23.905 -14.513  0.00  0.00    +0.021 C 
ATOM      5  C   UNL     1      30.154 -22.991 -14.813  0.00  0.00    +0.042 C 
ATOM      6  C   UNL     1      31.124 -23.635 -13.869  0.00  0.00    +0.192 C 
ENDROOT
BRANCH   3   7
ATOM      7  C   UNL     1      33.303 -23.509 -16.796  0.00  0.00    -0.002 C 
ATOM      8  C   UNL     1      33.310 -22.695 -17.860  0.00  0.00    +0.003 C 
BRANCH   8   9
ATOM      9  C   UNL     1      34.363 -22.740 -18.933  0.00  0.00    +0.132 C 
BRANCH   9  10
ATOM     10  O   UNL     1      34.076 -23.834 -19.803  0.00  0.00    -0.380 OA
ATOM     11  H   UNL     1      34.583 -23.734 -20.624  0.00  0.00    +0.211 HD
ENDBRANCH   9  10
BRANCH   9  12
ATOM     12  C   UNL     1      34.398 -21.429 -19.731  0.00  0.00    +0.034 C 
BRANCH  12  13
ATOM     13  C   UNL     1      33.039 -20.720 -19.733  0.00  0.00    +0.003 C 
BRANCH  13  14
ATOM     14  C   UNL     1      32.912 -19.767 -20.923  0.00  0.00    +0.000 C 
BRANCH  14  15
ATOM     15  C   UNL     1      34.242 -19.076 -21.226  0.00  0.00    +0.000 C 
ATOM     16  C   UNL     1      34.613 -19.200 -22.695  0.00  0.00    +0.000 C 
ENDBRANCH  14  15
ENDBRANCH  13  14
ENDBRANCH  12  13
ENDBRANCH   9  12
ENDBRANCH   8   9
ENDBRANCH   3   7
BRANCH   4  17
ATOM     17  C   UNL     1      33.549 -24.538 -13.783  0.00  0.00    +0.055 C 
BRANCH  17  18
ATOM     18  C   UNL     1      34.811 -23.721 -13.671  0.00  0.00    -0.026 C 
ATOM     19  C   UNL     1      36.030 -24.031 -14.140  0.00  0.00    -0.030 C 
BRANCH  19  20
ATOM     20  C   UNL     1      36.335 -25.302 -14.882  0.00  0.00    +0.026 C 
BRANCH  20  21
ATOM     21  C   UNL     1      37.352 -26.187 -14.156  0.00  0.00    +0.016 C 
BRANCH  21  22
ATOM     22  C   UNL     1      38.465 -25.388 -13.477  0.00  0.00    +0.110 C 
BRANCH  22  24
ATOM     23  O   UNL     1      40.688 -24.745 -14.235  0.00  0.00    -0.250 OA
ATOM     24  C   UNL     1      39.797 -25.580 -14.166  0.00  0.00    +0.314 C 
BRANCH  24  25
ATOM     25  O   UNL     1      39.898 -26.820 -14.711  0.00  0.00    -0.480 OA
ATOM     26  H   UNL     1      40.689 -27.081 -15.140  0.00  0.00    +0.295 HD
ENDBRANCH  24  25
ENDBRANCH  22  24
ENDBRANCH  21  22
ENDBRANCH  20  21
ENDBRANCH  19  20
ENDBRANCH  17  18
ENDBRANCH   4  17
TORSDOF 14
ENDMDL
MODEL 4
REMARK VINA RESULT:      -8.6      2.614      7.694
REMARK  Name = 5280881
REMARK  14 active torsions:
REMARK  status: ('A' for Active; 'I' for Inactive)
REMARK    1  A    between atoms: C_3  and  C_7
REMARK    2  A    between atoms: C_4  and  C_17
REMARK    3  A    between atoms: C_8  and  C_9
REMARK    4  A    between atoms: C_9  and  O_10
REMARK    5  A    between atoms: C_9  and  C_12
REMARK    6  A    between atoms: C_12  and  C_13
REMARK    7  A    between atoms: C_13  and  C_14
REMARK    8  A    between atoms: C_14  and  C_15
REMARK    9  A    between atoms: C_17  and  C_18
REMARK   10  A    between atoms: C_19  and  C_20
REMARK   11  A    between atoms: C_20  and  C_21
REMARK   12  A    between atoms: C_21  and  C_22
REMARK   13  A    between atoms: C_22  and  C_24
REMARK   14  A    between atoms: C_24  and  O_25
REMARK                            x       y       z     vdW  Elec       q    Type
REMARK                         _______ _______ _______ _____ _____    ______ ____
ROOT
ATOM      1  O   UNL     1      30.924 -22.544 -17.132  0.00  0.00    -0.287 OA
ATOM      2  C   UNL     1      32.889 -23.478 -14.324  0.00  0.00    +0.003 C 
ATOM      3  C   UNL     1      33.735 -23.656 -15.552  0.00  0.00    -0.001 C 
ATOM      4  C   UNL     1      33.128 -23.341 -16.703  0.00  0.00    +0.021 C 
ATOM      5  C   UNL     1      31.551 -22.969 -14.842  0.00  0.00    +0.042 C 
ATOM      6  C   UNL     1      31.768 -22.908 -16.325  0.00  0.00    +0.192 C 
ENDROOT
BRANCH   3   7
ATOM      7  C   UNL     1      35.079 -24.133 -15.400  0.00  0.00    -0.002 C 
ATOM      8  C   UNL     1      35.383 -25.391 -15.050  0.00  0.00    +0.003 C 
BRANCH   8   9
ATOM      9  C   UNL     1      36.792 -25.891 -14.890  0.00  0.00    +0.132 C 
BRANCH   9  10
ATOM     10  O   UNL     1      37.095 -26.750 -15.989  0.00  0.00    -0.380 OA
ATOM     11  H   UNL     1      36.442 -26.615 -16.693  0.00  0.00    +0.211 HD
ENDBRANCH   9  10
BRANCH   9  12
ATOM     12  C   UNL     1      37.793 -24.728 -14.843  0.00  0.00    +0.034 C 
BRANCH  12  13
ATOM     13  C   UNL     1      38.761 -24.850 -13.662  0.00  0.00    +0.003 C 
BRANCH  13  14
ATOM     14  C   UNL     1      38.016 -24.805 -12.326  0.00  0.00    +0.000 C 
BRANCH  14  15
ATOM     15  C   UNL     1      37.307 -23.464 -12.131  0.00  0.00    +0.000 C 
ATOM     16  C   UNL     1      35.846 -23.656 -11.759  0.00  0.00    +0.000 C 
ENDBRANCH  14  15
ENDBRANCH  13  14
ENDBRANCH  12  13
ENDBRANCH   9  12
ENDBRANCH   8   9
ENDBRANCH   3   7
BRANCH   4  17
ATOM     17  C   UNL     1      33.582 -23.368 -18.114  0.00  0.00    +0.055 C 
BRANCH  17  18
ATOM     18  C   UNL     1      34.702 -22.422 -18.467  0.00  0.00    -0.026 C 
ATOM     19  C   UNL     1      34.643 -21.354 -19.278  0.00  0.00    -0.030 C 
BRANCH  19  20
ATOM     20  C   UNL     1      33.393 -20.918 -19.989  0.00  0.00    +0.026 C 
BRANCH  20  21
ATOM     21  C   UNL     1      33.637 -19.770 -20.973  0.00  0.00    +0.016 C 
BRANCH  21  22
ATOM     22  C   UNL     1      35.092 -19.676 -21.435  0.00  0.00    +0.110 C 
BRANCH  22  24
ATOM     23  O   UNL     1      35.358 -17.378 -20.676  0.00  0.00    -0.250 OA
ATOM     24  C   UNL     1      35.565 -18.242 -21.516  0.00  0.00    +0.314 C 
BRANCH  24  25
ATOM     25  O   UNL     1      36.267 -18.016 -22.656  0.00  0.00    -0.480 OA
ATOM     26  H   UNL     1      36.937 -18.614 -22.922  0.00  0.00    +0.295 HD
ENDBRANCH  24  25
ENDBRANCH  22  24
ENDBRANCH  21  22
ENDBRANCH  20  21
ENDBRANCH  19  20
ENDBRANCH  17  18
ENDBRANCH   4  17
TORSDOF 14
ENDMDL
MODEL 5
REMARK VINA RESULT:      -8.6      6.064     10.904
REMARK  Name = 5280881
REMARK  14 active torsions:
REMARK  status: ('A' for Active; 'I' for Inactive)
REMARK    1  A    between atoms: C_3  and  C_7
REMARK    2  A    between atoms: C_4  and  C_17
REMARK    3  A    between atoms: C_8  and  C_9
REMARK    4  A    between atoms: C_9  and  O_10
REMARK    5  A    between atoms: C_9  and  C_12
REMARK    6  A    between atoms: C_12  and  C_13
REMARK    7  A    between atoms: C_13  and  C_14
REMARK    8  A    between atoms: C_14  and  C_15
REMARK    9  A    between atoms: C_17  and  C_18
REMARK   10  A    between atoms: C_19  and  C_20
REMARK   11  A    between atoms: C_20  and  C_21
REMARK   12  A    between atoms: C_21  and  C_22
REMARK   13  A    between atoms: C_22  and  C_24
REMARK   14  A    between atoms: C_24  and  O_25
REMARK                            x       y       z     vdW  Elec       q    Type
REMARK                         _______ _______ _______ _____ _____    ______ ____
ROOT
ATOM      1  O   UNL     1      33.405 -13.843 -24.395  0.00  0.00    -0.287 OA
ATOM      2  C   UNL     1      34.445 -17.212 -24.821  0.00  0.00    +0.003 C 
ATOM      3  C   UNL     1      34.753 -16.815 -23.406  0.00  0.00    -0.001 C 
ATOM      4  C   UNL     1      34.415 -15.559 -23.088  0.00  0.00    +0.021 C 
ATOM      5  C   UNL     1      33.815 -15.975 -25.445  0.00  0.00    +0.042 C 
ATOM      6  C   UNL     1      33.829 -14.987 -24.317  0.00  0.00    +0.192 C 
ENDROOT
BRANCH   3   7
ATOM      7  C   UNL     1      35.364 -17.780 -22.536  0.00  0.00    -0.002 C 
ATOM      8  C   UNL     1      34.710 -18.829 -22.021  0.00  0.00    +0.003 C 
BRANCH   8   9
ATOM      9  C   UNL     1      35.350 -19.840 -21.109  0.00  0.00    +0.132 C 
BRANCH   9  10
ATOM     10  O   UNL     1      36.337 -19.178 -20.321  0.00  0.00    -0.380 OA
ATOM     11  H   UNL     1      36.124 -19.285 -19.380  0.00  0.00    +0.211 HD
ENDBRANCH   9  10
BRANCH   9  12
ATOM     12  C   UNL     1      34.309 -20.504 -20.198  0.00  0.00    +0.034 C 
BRANCH  12  13
ATOM     13  C   UNL     1      34.898 -21.684 -19.416  0.00  0.00    +0.003 C 
BRANCH  13  14
ATOM     14  C   UNL     1      33.813 -22.694 -19.037  0.00  0.00    +0.000 C 
BRANCH  14  15
ATOM     15  C   UNL     1      33.848 -23.013 -17.542  0.00  0.00    +0.000 C 
ATOM     16  C   UNL     1      32.447 -23.097 -16.958  0.00  0.00    +0.000 C 
ENDBRANCH  14  15
ENDBRANCH  13  14
ENDBRANCH  12  13
ENDBRANCH   9  12
ENDBRANCH   8   9
ENDBRANCH   3   7
BRANCH   4  17
ATOM     17  C   UNL     1      34.538 -14.776 -21.835  0.00  0.00    +0.055 C 
BRANCH  17  18
ATOM     18  C   UNL     1      33.498 -15.048 -20.780  0.00  0.00    -0.026 C 
ATOM     19  C   UNL     1      32.464 -14.266 -20.430  0.00  0.00    -0.030 C 
BRANCH  19  20
ATOM     20  C   UNL     1      32.175 -12.938 -21.070  0.00  0.00    +0.026 C 
BRANCH  20  21
ATOM     21  C   UNL     1      31.698 -11.884 -20.067  0.00  0.00    +0.016 C 
BRANCH  21  22
ATOM     22  C   UNL     1      31.341 -10.549 -20.724  0.00  0.00    +0.110 C 
BRANCH  22  24
ATOM     23  O   UNL     1      32.317  -8.320 -20.665  0.00  0.00    -0.250 OA
ATOM     24  C   UNL     1      32.121  -9.400 -20.127  0.00  0.00    +0.314 C 
BRANCH  24  25
ATOM     25  O   UNL     1      32.591  -9.711 -18.891  0.00  0.00    -0.480 OA
ATOM     26  H   UNL     1      32.783 -10.601 -18.671  0.00  0.00    +0.295 HD
ENDBRANCH  24  25
ENDBRANCH  22  24
ENDBRANCH  21  22
ENDBRANCH  20  21
ENDBRANCH  19  20
ENDBRANCH  17  18
ENDBRANCH   4  17
TORSDOF 14
ENDMDL
MODEL 6
REMARK VINA RESULT:      -8.5      8.281     11.145
REMARK  Name = 5280881
REMARK  14 active torsions:
REMARK  status: ('A' for Active; 'I' for Inactive)
REMARK    1  A    between atoms: C_3  and  C_7
REMARK    2  A    between atoms: C_4  and  C_17
REMARK    3  A    between atoms: C_8  and  C_9
REMARK    4  A    between atoms: C_9  and  O_10
REMARK    5  A    between atoms: C_9  and  C_12
REMARK    6  A    between atoms: C_12  and  C_13
REMARK    7  A    between atoms: C_13  and  C_14
REMARK    8  A    between atoms: C_14  and  C_15
REMARK    9  A    between atoms: C_17  and  C_18
REMARK   10  A    between atoms: C_19  and  C_20
REMARK   11  A    between atoms: C_20  and  C_21
REMARK   12  A    between atoms: C_21  and  C_22
REMARK   13  A    between atoms: C_22  and  C_24
REMARK   14  A    between atoms: C_24  and  O_25
REMARK                            x       y       z     vdW  Elec       q    Type
REMARK                         _______ _______ _______ _____ _____    ______ ____
ROOT
ATOM      1  O   UNL     1      35.461 -18.532 -20.621  0.00  0.00    -0.287 OA
ATOM      2  C   UNL     1      34.842 -17.927 -24.066  0.00  0.00    +0.003 C 
ATOM      3  C   UNL     1      34.589 -16.646 -23.326  0.00  0.00    -0.001 C 
ATOM      4  C   UNL     1      34.782 -16.713 -22.003  0.00  0.00    +0.021 C 
ATOM      5  C   UNL     1      35.256 -18.923 -22.992  0.00  0.00    +0.042 C 
ATOM      6  C   UNL     1      35.197 -18.105 -21.737  0.00  0.00    +0.192 C 
ENDROOT
BRANCH   3   7
ATOM      7  C   UNL     1      34.175 -15.490 -24.070  0.00  0.00    -0.002 C 
ATOM      8  C   UNL     1      33.741 -15.542 -25.336  0.00  0.00    +0.003 C 
BRANCH   8   9
ATOM      9  C   UNL     1      33.307 -14.331 -26.116  0.00  0.00    +0.132 C 
BRANCH   9  10
ATOM     10  O   UNL     1      31.961 -14.528 -26.546  0.00  0.00    -0.380 OA
ATOM     11  H   UNL     1      31.356 -14.334 -25.813  0.00  0.00    +0.211 HD
ENDBRANCH   9  10
BRANCH   9  12
ATOM     12  C   UNL     1      33.405 -13.058 -25.264  0.00  0.00    +0.034 C 
BRANCH  12  13
ATOM     13  C   UNL     1      33.924 -11.864 -26.072  0.00  0.00    +0.003 C 
BRANCH  13  14
ATOM     14  C   UNL     1      34.702 -10.890 -25.184  0.00  0.00    +0.000 C 
BRANCH  14  15
ATOM     15  C   UNL     1      33.819 -10.323 -24.073  0.00  0.00    +0.000 C 
ATOM     16  C   UNL     1      34.221  -8.903 -23.711  0.00  0.00    +0.000 C 
ENDBRANCH  14  15
ENDBRANCH  13  14
ENDBRANCH  12  13
ENDBRANCH   9  12
ENDBRANCH   8   9
ENDBRANCH   3   7
BRANCH   4  17
ATOM     17  C   UNL     1      34.650 -15.710 -20.919  0.00  0.00    +0.055 C 
BRANCH  17  18
ATOM     18  C   UNL     1      33.256 -15.485 -20.392  0.00  0.00    -0.026 C 
ATOM     19  C   UNL     1      32.417 -14.484 -20.704  0.00  0.00    -0.030 C 
BRANCH  19  20
ATOM     20  C   UNL     1      32.757 -13.386 -21.672  0.00  0.00    +0.026 C 
BRANCH  20  21
ATOM     21  C   UNL     1      31.783 -12.207 -21.602  0.00  0.00    +0.016 C 
BRANCH  21  22
ATOM     22  C   UNL     1      31.575 -11.685 -20.179  0.00  0.00    +0.110 C 
BRANCH  22  24
ATOM     23  O   UNL     1      32.127  -9.586 -19.076  0.00  0.00    -0.250 OA
ATOM     24  C   UNL     1      31.804 -10.193 -20.087  0.00  0.00    +0.314 C 
BRANCH  24  25
ATOM     25  O   UNL     1      31.608  -9.588 -21.287  0.00  0.00    -0.480 OA
ATOM     26  H   UNL     1      31.755 -10.062 -22.082  0.00  0.00    +0.295 HD
ENDBRANCH  24  25
ENDBRANCH  22  24
ENDBRANCH  21  22
ENDBRANCH  20  21
ENDBRANCH  19  20
ENDBRANCH  17  18
ENDBRANCH   4  17
TORSDOF 14
ENDMDL
MODEL 7
REMARK VINA RESULT:      -8.5      5.393     10.029
REMARK  Name = 5280881
REMARK  14 active torsions:
REMARK  status: ('A' for Active; 'I' for Inactive)
REMARK    1  A    between atoms: C_3  and  C_7
REMARK    2  A    between atoms: C_4  and  C_17
REMARK    3  A    between atoms: C_8  and  C_9
REMARK    4  A    between atoms: C_9  and  O_10
REMARK    5  A    between atoms: C_9  and  C_12
REMARK    6  A    between atoms: C_12  and  C_13
REMARK    7  A    between atoms: C_13  and  C_14
REMARK    8  A    between atoms: C_14  and  C_15
REMARK    9  A    between atoms: C_17  and  C_18
REMARK   10  A    between atoms: C_19  and  C_20
REMARK   11  A    between atoms: C_20  and  C_21
REMARK   12  A    between atoms: C_21  and  C_22
REMARK   13  A    between atoms: C_22  and  C_24
REMARK   14  A    between atoms: C_24  and  O_25
REMARK                            x       y       z     vdW  Elec       q    Type
REMARK                         _______ _______ _______ _____ _____    ______ ____
ROOT
ATOM      1  O   UNL     1      34.727 -15.196 -24.042  0.00  0.00    -0.287 OA
ATOM      2  C   UNL     1      34.754 -18.723 -23.630  0.00  0.00    +0.003 C 
ATOM      3  C   UNL     1      34.702 -18.105 -22.263  0.00  0.00    -0.001 C 
ATOM      4  C   UNL     1      34.686 -16.766 -22.251  0.00  0.00    +0.021 C 
ATOM      5  C   UNL     1      34.771 -17.544 -24.592  0.00  0.00    +0.042 C 
ATOM      6  C   UNL     1      34.728 -16.361 -23.671  0.00  0.00    +0.192 C 
ENDROOT
BRANCH   3   7
ATOM      7  C   UNL     1      34.675 -18.968 -21.116  0.00  0.00    -0.002 C 
ATOM      8  C   UNL     1      33.857 -20.023 -21.004  0.00  0.00    +0.003 C 
BRANCH   8   9
ATOM      9  C   UNL     1      33.829 -20.928 -19.802  0.00  0.00    +0.132 C 
BRANCH   9  10
ATOM     10  O   UNL     1      32.736 -21.834 -19.944  0.00  0.00    -0.380 OA
ATOM     11  H   UNL     1      33.078 -22.730 -20.097  0.00  0.00    +0.211 HD
ENDBRANCH   9  10
BRANCH   9  12
ATOM     12  C   UNL     1      35.143 -21.707 -19.663  0.00  0.00    +0.034 C 
BRANCH  12  13
ATOM     13  C   UNL     1      35.474 -22.020 -18.199  0.00  0.00    +0.003 C 
BRANCH  13  14
ATOM     14  C   UNL     1      36.909 -21.616 -17.857  0.00  0.00    +0.000 C 
BRANCH  14  15
ATOM     15  C   UNL     1      37.211 -21.839 -16.374  0.00  0.00    +0.000 C 
ATOM     16  C   UNL     1      36.453 -23.037 -15.826  0.00  0.00    +0.000 C 
ENDBRANCH  14  15
ENDBRANCH  13  14
ENDBRANCH  12  13
ENDBRANCH   9  12
ENDBRANCH   8   9
ENDBRANCH   3   7
BRANCH   4  17
ATOM     17  C   UNL     1      34.639 -15.775 -21.150  0.00  0.00    +0.055 C 
BRANCH  17  18
ATOM     18  C   UNL     1      33.291 -15.560 -20.511  0.00  0.00    -0.026 C 
ATOM     19  C   UNL     1      32.361 -14.653 -20.851  0.00  0.00    -0.030 C 
BRANCH  19  20
ATOM     20  C   UNL     1      32.531 -13.670 -21.974  0.00  0.00    +0.026 C 
BRANCH  20  21
ATOM     21  C   UNL     1      31.806 -12.345 -21.722  0.00  0.00    +0.016 C 
BRANCH  21  22
ATOM     22  C   UNL     1      31.707 -11.990 -20.237  0.00  0.00    +0.110 C 
BRANCH  22  24
ATOM     23  O   UNL     1      31.596  -9.638 -20.859  0.00  0.00    -0.250 OA
ATOM     24  C   UNL     1      31.783 -10.497 -20.009  0.00  0.00    +0.314 C 
BRANCH  24  25
ATOM     25  O   UNL     1      32.086 -10.209 -18.716  0.00  0.00    -0.480 OA
ATOM     26  H   UNL     1      31.725 -10.725 -18.023  0.00  0.00    +0.295 HD
ENDBRANCH  24  25
ENDBRANCH  22  24
ENDBRANCH  21  22
ENDBRANCH  20  21
ENDBRANCH  19  20
ENDBRANCH  17  18
ENDBRANCH   4  17
TORSDOF 14
ENDMDL
MODEL 8
REMARK VINA RESULT:      -8.5      5.273     10.295
REMARK  Name = 5280881
REMARK  14 active torsions:
REMARK  status: ('A' for Active; 'I' for Inactive)
REMARK    1  A    between atoms: C_3  and  C_7
REMARK    2  A    between atoms: C_4  and  C_17
REMARK    3  A    between atoms: C_8  and  C_9
REMARK    4  A    between atoms: C_9  and  O_10
REMARK    5  A    between atoms: C_9  and  C_12
REMARK    6  A    between atoms: C_12  and  C_13
REMARK    7  A    between atoms: C_13  and  C_14
REMARK    8  A    between atoms: C_14  and  C_15
REMARK    9  A    between atoms: C_17  and  C_18
REMARK   10  A    between atoms: C_19  and  C_20
REMARK   11  A    between atoms: C_20  and  C_21
REMARK   12  A    between atoms: C_21  and  C_22
REMARK   13  A    between atoms: C_22  and  C_24
REMARK   14  A    between atoms: C_24  and  O_25
REMARK                            x       y       z     vdW  Elec       q    Type
REMARK                         _______ _______ _______ _____ _____    ______ ____
ROOT
ATOM      1  O   UNL     1      35.010 -16.110 -19.934  0.00  0.00    -0.287 OA
ATOM      2  C   UNL     1      32.564 -14.261 -21.726  0.00  0.00    +0.003 C 
ATOM      3  C   UNL     1      33.370 -15.038 -22.726  0.00  0.00    -0.001 C 
ATOM      4  C   UNL     1      34.343 -15.792 -22.199  0.00  0.00    +0.021 C 
ATOM      5  C   UNL     1      33.165 -14.621 -20.375  0.00  0.00    +0.042 C 
ATOM      6  C   UNL     1      34.264 -15.573 -20.740  0.00  0.00    +0.192 C 
ENDROOT
BRANCH   3   7
ATOM      7  C   UNL     1      33.047 -14.914 -24.118  0.00  0.00    -0.002 C 
ATOM      8  C   UNL     1      33.737 -14.146 -24.972  0.00  0.00    +0.003 C 
BRANCH   8   9
ATOM      9  C   UNL     1      33.398 -14.017 -26.432  0.00  0.00    +0.132 C 
BRANCH   9  10
ATOM     10  O   UNL     1      32.069 -14.497 -26.633  0.00  0.00    -0.380 OA
ATOM     11  H   UNL     1      31.441 -13.896 -26.202  0.00  0.00    +0.211 HD
ENDBRANCH   9  10
BRANCH   9  12
ATOM     12  C   UNL     1      33.505 -12.559 -26.900  0.00  0.00    +0.034 C 
BRANCH  12  13
ATOM     13  C   UNL     1      33.786 -11.601 -25.736  0.00  0.00    +0.003 C 
BRANCH  13  14
ATOM     14  C   UNL     1      35.043 -10.768 -25.995  0.00  0.00    +0.000 C 
BRANCH  14  15
ATOM     15  C   UNL     1      35.302  -9.783 -24.854  0.00  0.00    +0.000 C 
ATOM     16  C   UNL     1      34.117  -9.707 -23.904  0.00  0.00    +0.000 C 
ENDBRANCH  14  15
ENDBRANCH  13  14
ENDBRANCH  12  13
ENDBRANCH   9  12
ENDBRANCH   8   9
ENDBRANCH   3   7
BRANCH   4  17
ATOM     17  C   UNL     1      35.351 -16.695 -22.806  0.00  0.00    +0.055 C 
BRANCH  17  18
ATOM     18  C   UNL     1      34.862 -18.067 -23.193  0.00  0.00    -0.026 C 
ATOM     19  C   UNL     1      34.918 -19.190 -22.459  0.00  0.00    -0.030 C 
BRANCH  19  20
ATOM     20  C   UNL     1      35.502 -19.251 -21.076  0.00  0.00    +0.026 C 
BRANCH  20  21
ATOM     21  C   UNL     1      35.232 -20.585 -20.373  0.00  0.00    +0.016 C 
BRANCH  21  22
ATOM     22  C   UNL     1      33.753 -20.803 -20.051  0.00  0.00    +0.110 C 
BRANCH  22  24
ATOM     23  O   UNL     1      32.543 -22.245 -18.506  0.00  0.00    -0.250 OA
ATOM     24  C   UNL     1      33.540 -22.019 -19.178  0.00  0.00    +0.314 C 
BRANCH  24  25
ATOM     25  O   UNL     1      34.608 -22.857 -19.227  0.00  0.00    -0.480 OA
ATOM     26  H   UNL     1      34.589 -23.669 -18.761  0.00  0.00    +0.295 HD
ENDBRANCH  24  25
ENDBRANCH  22  24
ENDBRANCH  21  22
ENDBRANCH  20  21
ENDBRANCH  19  20
ENDBRANCH  17  18
ENDBRANCH   4  17
TORSDOF 14
ENDMDL
MODEL 9
REMARK VINA RESULT:      -8.4      5.050     10.355
REMARK  Name = 5280881
REMARK  14 active torsions:
REMARK  status: ('A' for Active; 'I' for Inactive)
REMARK    1  A    between atoms: C_3  and  C_7
REMARK    2  A    between atoms: C_4  and  C_17
REMARK    3  A    between atoms: C_8  and  C_9
REMARK    4  A    between atoms: C_9  and  O_10
REMARK    5  A    between atoms: C_9  and  C_12
REMARK    6  A    between atoms: C_12  and  C_13
REMARK    7  A    between atoms: C_13  and  C_14
REMARK    8  A    between atoms: C_14  and  C_15
REMARK    9  A    between atoms: C_17  and  C_18
REMARK   10  A    between atoms: C_19  and  C_20
REMARK   11  A    between atoms: C_20  and  C_21
REMARK   12  A    between atoms: C_21  and  C_22
REMARK   13  A    between atoms: C_22  and  C_24
REMARK   14  A    between atoms: C_24  and  O_25
REMARK                            x       y       z     vdW  Elec       q    Type
REMARK                         _______ _______ _______ _____ _____    ______ ____
ROOT
ATOM      1  O   UNL     1      34.496 -15.674 -24.416  0.00  0.00    -0.287 OA
ATOM      2  C   UNL     1      34.760 -19.176 -23.883  0.00  0.00    +0.003 C 
ATOM      3  C   UNL     1      34.694 -18.514 -22.538  0.00  0.00    -0.001 C 
ATOM      4  C   UNL     1      34.592 -17.179 -22.572  0.00  0.00    +0.021 C 
ATOM      5  C   UNL     1      34.682 -18.033 -24.885  0.00  0.00    +0.042 C 
ATOM      6  C   UNL     1      34.580 -16.823 -24.005  0.00  0.00    +0.192 C 
ENDROOT
BRANCH   3   7
ATOM      7  C   UNL     1      34.744 -19.335 -21.362  0.00  0.00    -0.002 C 
ATOM      8  C   UNL     1      33.742 -20.136 -20.975  0.00  0.00    +0.003 C 
BRANCH   8   9
ATOM      9  C   UNL     1      33.795 -20.997 -19.743  0.00  0.00    +0.132 C 
BRANCH   9  10
ATOM     10  O   UNL     1      32.757 -21.972 -19.827  0.00  0.00    -0.380 OA
ATOM     11  H   UNL     1      31.906 -21.527 -19.962  0.00  0.00    +0.211 HD
ENDBRANCH   9  10
BRANCH   9  12
ATOM     12  C   UNL     1      35.157 -21.690 -19.608  0.00  0.00    +0.034 C 
BRANCH  12  13
ATOM     13  C   UNL     1      35.478 -22.049 -18.153  0.00  0.00    +0.003 C 
BRANCH  13  14
ATOM     14  C   UNL     1      36.925 -21.696 -17.801  0.00  0.00    +0.000 C 
BRANCH  14  15
ATOM     15  C   UNL     1      37.156 -21.740 -16.290  0.00  0.00    +0.000 C 
ATOM     16  C   UNL     1      37.401 -23.159 -15.805  0.00  0.00    +0.000 C 
ENDBRANCH  14  15
ENDBRANCH  13  14
ENDBRANCH  12  13
ENDBRANCH   9  12
ENDBRANCH   8   9
ENDBRANCH   3   7
BRANCH   4  17
ATOM     17  C   UNL     1      34.501 -16.154 -21.505  0.00  0.00    +0.055 C 
BRANCH  17  18
ATOM     18  C   UNL     1      33.175 -16.053 -20.795  0.00  0.00    -0.026 C 
ATOM     19  C   UNL     1      32.429 -14.953 -20.611  0.00  0.00    -0.030 C 
BRANCH  19  20
ATOM     20  C   UNL     1      32.821 -13.591 -21.110  0.00  0.00    +0.026 C 
BRANCH  20  21
ATOM     21  C   UNL     1      32.534 -13.397 -22.602  0.00  0.00    +0.016 C 
BRANCH  21  22
ATOM     22  C   UNL     1      32.702 -11.948 -23.061  0.00  0.00    +0.110 C 
BRANCH  22  24
ATOM     23  O   UNL     1      33.666 -12.520 -25.223  0.00  0.00    -0.250 OA
ATOM     24  C   UNL     1      33.675 -11.830 -24.213  0.00  0.00    +0.314 C 
BRANCH  24  25
ATOM     25  O   UNL     1      34.582 -10.843 -23.996  0.00  0.00    -0.480 OA
ATOM     26  H   UNL     1      34.536 -10.327 -23.215  0.00  0.00    +0.295 HD
ENDBRANCH  24  25
ENDBRANCH  22  24
ENDBRANCH  21  22
ENDBRANCH  20  21
ENDBRANCH  19  20
ENDBRANCH  17  18
ENDBRANCH   4  17
TORSDOF 14
ENDMDL
