MODEL 1
REMARK VINA RESULT:      -8.4      0.000      0.000
REMARK  Name = 9882189
REMARK  4 active torsions:
REMARK  status: ('A' for Active; 'I' for Inactive)
REMARK    1  A    between atoms: C_2  and  C_18
REMARK    2  A    between atoms: C_3  and  C_6
REMARK    3  A    between atoms: C_3  and  C_12
REMARK    4  A    between atoms: C_18  and  N_19
REMARK                            x       y       z     vdW  Elec       q    Type
REMARK                         _______ _______ _______ _____ _____    ______ ____
ROOT
ATOM      1  O   UNL     1      33.100  -7.286 -21.998  0.00  0.00    -0.350 OA
ATOM      2  C   UNL     1      31.185  -7.716 -23.289  0.00  0.00    +0.015 C 
ATOM      3  C   UNL     1      32.376  -8.418 -22.562  0.00  0.00    +0.128 C 
ATOM      4  C   UNL     1      30.851  -6.598 -22.313  0.00  0.00    +0.033 C 
ATOM      5  C   UNL     1      32.217  -6.168 -21.827  0.00  0.00    +0.143 C 
ENDROOT
BRANCH   3   6
ATOM      6  C   UNL     1      33.277  -9.217 -23.511  0.00  0.00    +0.006 C 
ATOM      7  C   UNL     1      32.868 -10.467 -23.974  0.00  0.00    -0.002 C 
ATOM      8  C   UNL     1      34.507  -8.694 -23.910  0.00  0.00    -0.002 C 
ATOM      9  C   UNL     1      33.688 -11.194 -24.837  0.00  0.00    -0.000 C 
ATOM     10  C   UNL     1      35.328  -9.421 -24.772  0.00  0.00    -0.000 C 
ATOM     11  C   UNL     1      34.919 -10.671 -25.236  0.00  0.00    -0.000 C 
ENDBRANCH   3   6
BRANCH   3  12
ATOM     12  C   UNL     1      31.990  -9.317 -21.369  0.00  0.00    +0.006 C 
ATOM     13  C   UNL     1      32.445  -9.010 -20.085  0.00  0.00    -0.002 C 
ATOM     14  C   UNL     1      31.185 -10.440 -21.570  0.00  0.00    -0.002 C 
ATOM     15  C   UNL     1      32.097  -9.822 -19.007  0.00  0.00    -0.000 C 
ATOM     16  C   UNL     1      30.837 -11.252 -20.491  0.00  0.00    -0.000 C 
ATOM     17  C   UNL     1      31.292 -10.944 -19.209  0.00  0.00    -0.000 C 
ENDBRANCH   3  12
BRANCH   2  18
ATOM     18  C   UNL     1      31.541  -7.101 -24.655  0.00  0.00    -0.074 C 
BRANCH  18  19
ATOM     19  N   UNL     1      32.004  -5.728 -24.506  0.00  0.00    +0.384 N 
ATOM     20  C   UNL     1      30.959  -4.783 -24.905  0.00  0.00    -0.101 C 
ATOM     21  C   UNL     1      33.217  -5.504 -25.296  0.00  0.00    -0.101 C 
ATOM     22  H   UNL     1      32.224  -5.574 -23.523  0.00  0.00    -0.080 HD
ENDBRANCH  18  19
ENDBRANCH   2  18
TORSDOF 4
ENDMDL
MODEL 2
REMARK VINA RESULT:      -8.3      1.616      5.044
REMARK  Name = 9882189
REMARK  4 active torsions:
REMARK  status: ('A' for Active; 'I' for Inactive)
REMARK    1  A    between atoms: C_2  and  C_18
REMARK    2  A    between atoms: C_3  and  C_6
REMARK    3  A    between atoms: C_3  and  C_12
REMARK    4  A    between atoms: C_18  and  N_19
REMARK                            x       y       z     vdW  Elec       q    Type
REMARK                         _______ _______ _______ _____ _____    ______ ____
ROOT
ATOM      1  O   UNL     1      34.239  -7.664 -22.183  0.00  0.00    -0.350 OA
ATOM      2  C   UNL     1      33.505  -8.928 -24.021  0.00  0.00    +0.015 C 
ATOM      3  C   UNL     1      32.998  -8.171 -22.754  0.00  0.00    +0.128 C 
ATOM      4  C   UNL     1      34.618  -8.007 -24.500  0.00  0.00    +0.033 C 
ATOM      5  C   UNL     1      35.241  -7.546 -23.202  0.00  0.00    +0.143 C 
ENDROOT
BRANCH   3   6
ATOM      6  C   UNL     1      32.275  -9.081 -21.754  0.00  0.00    +0.006 C 
ATOM      7  C   UNL     1      31.412 -10.076 -22.213  0.00  0.00    -0.002 C 
ATOM      8  C   UNL     1      32.479  -8.913 -20.385  0.00  0.00    -0.002 C 
ATOM      9  C   UNL     1      30.755 -10.904 -21.304  0.00  0.00    -0.000 C 
ATOM     10  C   UNL     1      31.821  -9.741 -19.474  0.00  0.00    -0.000 C 
ATOM     11  C   UNL     1      30.959 -10.736 -19.933  0.00  0.00    -0.000 C 
ENDBRANCH   3   6
BRANCH   3  12
ATOM     12  C   UNL     1      32.115  -6.934 -23.027  0.00  0.00    +0.006 C 
ATOM     13  C   UNL     1      31.682  -6.657 -24.325  0.00  0.00    -0.002 C 
ATOM     14  C   UNL     1      31.750  -6.089 -21.977  0.00  0.00    -0.002 C 
ATOM     15  C   UNL     1      30.885  -5.540 -24.572  0.00  0.00    -0.000 C 
ATOM     16  C   UNL     1      30.953  -4.972 -22.225  0.00  0.00    -0.000 C 
ATOM     17  C   UNL     1      30.520  -4.697 -23.522  0.00  0.00    -0.000 C 
ENDBRANCH   3  12
BRANCH   2  18
ATOM     18  C   UNL     1      34.093 -10.324 -23.741  0.00  0.00    -0.074 C 
BRANCH  18  19
ATOM     19  N   UNL     1      33.597 -11.302 -24.699  0.00  0.00    +0.384 N 
ATOM     20  C   UNL     1      33.499 -12.627 -24.083  0.00  0.00    -0.101 C 
ATOM     21  C   UNL     1      34.465 -11.356 -25.878  0.00  0.00    -0.101 C 
ATOM     22  H   UNL     1      32.666 -11.012 -24.995  0.00  0.00    -0.080 HD
ENDBRANCH  18  19
ENDBRANCH   2  18
TORSDOF 4
ENDMDL
MODEL 3
REMARK VINA RESULT:      -7.8      4.586      6.976
REMARK  Name = 9882189
REMARK  4 active torsions:
REMARK  status: ('A' for Active; 'I' for Inactive)
REMARK    1  A    between atoms: C_2  and  C_18
REMARK    2  A    between atoms: C_3  and  C_6
REMARK    3  A    between atoms: C_3  and  C_12
REMARK    4  A    between atoms: C_18  and  N_19
REMARK                            x       y       z     vdW  Elec       q    Type
REMARK                         _______ _______ _______ _____ _____    ______ ____
ROOT
ATOM      1  O   UNL     1      31.980 -15.011 -22.147  0.00  0.00    -0.350 OA
ATOM      2  C   UNL     1      34.162 -14.440 -21.492  0.00  0.00    +0.015 C 
ATOM      3  C   UNL     1      32.890 -13.875 -22.200  0.00  0.00    +0.128 C 
ATOM      4  C   UNL     1      33.544 -15.278 -20.383  0.00  0.00    +0.033 C 
ATOM      5  C   UNL     1      32.335 -15.881 -21.063  0.00  0.00    +0.143 C 
ENDROOT
BRANCH   3   6
ATOM      6  C   UNL     1      33.143 -13.453 -23.652  0.00  0.00    +0.006 C 
ATOM      7  C   UNL     1      33.766 -12.235 -23.927  0.00  0.00    -0.002 C 
ATOM      8  C   UNL     1      32.749 -14.285 -24.699  0.00  0.00    -0.002 C 
ATOM      9  C   UNL     1      33.996 -11.851 -25.247  0.00  0.00    -0.000 C 
ATOM     10  C   UNL     1      32.978 -13.901 -26.021  0.00  0.00    -0.000 C 
ATOM     11  C   UNL     1      33.601 -12.684 -26.295  0.00  0.00    -0.000 C 
ENDBRANCH   3   6
BRANCH   3  12
ATOM     12  C   UNL     1      32.177 -12.720 -21.464  0.00  0.00    +0.006 C 
ATOM     13  C   UNL     1      31.390 -11.815 -22.178  0.00  0.00    -0.002 C 
ATOM     14  C   UNL     1      32.320 -12.577 -20.082  0.00  0.00    -0.002 C 
ATOM     15  C   UNL     1      30.746 -10.772 -21.514  0.00  0.00    -0.000 C 
ATOM     16  C   UNL     1      31.676 -11.534 -19.418  0.00  0.00    -0.000 C 
ATOM     17  C   UNL     1      30.889 -10.631 -20.133  0.00  0.00    -0.000 C 
ENDBRANCH   3  12
BRANCH   2  18
ATOM     18  C   UNL     1      35.039 -15.345 -22.378  0.00  0.00    -0.074 C 
BRANCH  18  19
ATOM     19  N   UNL     1      34.581 -16.727 -22.328  0.00  0.00    +0.384 N 
ATOM     20  C   UNL     1      35.479 -17.540 -21.504  0.00  0.00    -0.101 C 
ATOM     21  C   UNL     1      34.486 -17.288 -23.677  0.00  0.00    -0.101 C 
ATOM     22  H   UNL     1      33.654 -16.738 -21.905  0.00  0.00    -0.080 HD
ENDBRANCH  18  19
ENDBRANCH   2  18
TORSDOF 4
ENDMDL
MODEL 4
REMARK VINA RESULT:      -7.6      2.059      5.450
REMARK  Name = 9882189
REMARK  4 active torsions:
REMARK  status: ('A' for Active; 'I' for Inactive)
REMARK    1  A    between atoms: C_2  and  C_18
REMARK    2  A    between atoms: C_3  and  C_6
REMARK    3  A    between atoms: C_3  and  C_12
REMARK    4  A    between atoms: C_18  and  N_19
REMARK                            x       y       z     vdW  Elec       q    Type
REMARK                         _______ _______ _______ _____ _____    ______ ____
ROOT
ATOM      1  O   UNL     1      34.418  -8.891 -22.934  0.00  0.00    -0.350 OA
ATOM      2  C   UNL     1      33.129 -10.445 -24.134  0.00  0.00    +0.015 C 
ATOM      3  C   UNL     1      33.020  -9.244 -23.142  0.00  0.00    +0.128 C 
ATOM      4  C   UNL     1      34.273  -9.996 -25.029  0.00  0.00    +0.033 C 
ATOM      5  C   UNL     1      35.209  -9.321 -24.051  0.00  0.00    +0.143 C 
ENDROOT
BRANCH   3   6
ATOM      6  C   UNL     1      32.354  -9.617 -21.812  0.00  0.00    +0.006 C 
ATOM      7  C   UNL     1      31.517 -10.730 -21.738  0.00  0.00    -0.002 C 
ATOM      8  C   UNL     1      32.584  -8.841 -20.676  0.00  0.00    -0.002 C 
ATOM      9  C   UNL     1      30.911 -11.069 -20.528  0.00  0.00    -0.000 C 
ATOM     10  C   UNL     1      31.977  -9.179 -19.465  0.00  0.00    -0.000 C 
ATOM     11  C   UNL     1      31.141 -10.293 -19.392  0.00  0.00    -0.000 C 
ENDBRANCH   3   6
BRANCH   3  12
ATOM     12  C   UNL     1      32.336  -7.979 -23.702  0.00  0.00    +0.006 C 
ATOM     13  C   UNL     1      33.092  -6.838 -23.975  0.00  0.00    -0.002 C 
ATOM     14  C   UNL     1      30.960  -7.972 -23.936  0.00  0.00    -0.002 C 
ATOM     15  C   UNL     1      32.476  -5.694 -24.481  0.00  0.00    -0.000 C 
ATOM     16  C   UNL     1      30.343  -6.828 -24.442  0.00  0.00    -0.000 C 
ATOM     17  C   UNL     1      31.100  -5.689 -24.715  0.00  0.00    -0.000 C 
ENDBRANCH   3  12
BRANCH   2  18
ATOM     18  C   UNL     1      33.502 -11.787 -23.477  0.00  0.00    -0.074 C 
BRANCH  18  19
ATOM     19  N   UNL     1      32.732 -12.882 -24.052  0.00  0.00    +0.384 N 
ATOM     20  C   UNL     1      32.574 -13.969 -23.083  0.00  0.00    -0.101 C 
ATOM     21  C   UNL     1      33.375 -13.381 -25.270  0.00  0.00    -0.101 C 
ATOM     22  H   UNL     1      31.808 -12.527 -24.295  0.00  0.00    -0.080 HD
ENDBRANCH  18  19
ENDBRANCH   2  18
TORSDOF 4
ENDMDL
MODEL 5
REMARK VINA RESULT:      -7.5     15.026     17.696
REMARK  Name = 9882189
REMARK  4 active torsions:
REMARK  status: ('A' for Active; 'I' for Inactive)
REMARK    1  A    between atoms: C_2  and  C_18
REMARK    2  A    between atoms: C_3  and  C_6
REMARK    3  A    between atoms: C_3  and  C_12
REMARK    4  A    between atoms: C_18  and  N_19
REMARK                            x       y       z     vdW  Elec       q    Type
REMARK                         _______ _______ _______ _____ _____    ______ ____
ROOT
ATOM      1  O   UNL     1      35.871 -22.933 -13.752  0.00  0.00    -0.350 OA
ATOM      2  C   UNL     1      34.054 -24.230 -14.482  0.00  0.00    +0.015 C 
ATOM      3  C   UNL     1      35.507 -23.801 -14.863  0.00  0.00    +0.128 C 
ATOM      4  C   UNL     1      34.173 -24.397 -12.975  0.00  0.00    +0.033 C 
ATOM      5  C   UNL     1      35.094 -23.261 -12.591  0.00  0.00    +0.143 C 
ENDROOT
BRANCH   3   6
ATOM      6  C   UNL     1      35.584 -23.040 -16.191  0.00  0.00    +0.006 C 
ATOM      7  C   UNL     1      34.546 -23.145 -17.118  0.00  0.00    -0.002 C 
ATOM      8  C   UNL     1      36.693 -22.243 -16.475  0.00  0.00    -0.002 C 
ATOM      9  C   UNL     1      34.617 -22.452 -18.326  0.00  0.00    -0.000 C 
ATOM     10  C   UNL     1      36.765 -21.550 -17.684  0.00  0.00    -0.000 C 
ATOM     11  C   UNL     1      35.727 -21.655 -18.610  0.00  0.00    -0.000 C 
ENDBRANCH   3   6
BRANCH   3  12
ATOM     12  C   UNL     1      36.552 -24.938 -14.880  0.00  0.00    +0.006 C 
ATOM     13  C   UNL     1      37.851 -24.700 -14.428  0.00  0.00    -0.002 C 
ATOM     14  C   UNL     1      36.200 -26.205 -15.349  0.00  0.00    -0.002 C 
ATOM     15  C   UNL     1      38.795 -25.726 -14.443  0.00  0.00    -0.000 C 
ATOM     16  C   UNL     1      37.145 -27.231 -15.364  0.00  0.00    -0.000 C 
ATOM     17  C   UNL     1      38.442 -26.992 -14.911  0.00  0.00    -0.000 C 
ENDBRANCH   3  12
BRANCH   2  18
ATOM     18  C   UNL     1      32.974 -23.175 -14.788  0.00  0.00    -0.074 C 
BRANCH  18  19
ATOM     19  N   UNL     1      31.673 -23.800 -14.982  0.00  0.00    +0.384 N 
ATOM     20  C   UNL     1      31.017 -23.270 -16.179  0.00  0.00    -0.101 C 
ATOM     21  C   UNL     1      30.822 -23.595 -13.808  0.00  0.00    -0.101 C 
ATOM     22  H   UNL     1      31.818 -24.801 -15.107  0.00  0.00    -0.080 HD
ENDBRANCH  18  19
ENDBRANCH   2  18
TORSDOF 4
ENDMDL
MODEL 6
REMARK VINA RESULT:      -7.5      3.728      6.014
REMARK  Name = 9882189
REMARK  4 active torsions:
REMARK  status: ('A' for Active; 'I' for Inactive)
REMARK    1  A    between atoms: C_2  and  C_18
REMARK    2  A    between atoms: C_3  and  C_6
REMARK    3  A    between atoms: C_3  and  C_12
REMARK    4  A    between atoms: C_18  and  N_19
REMARK                            x       y       z     vdW  Elec       q    Type
REMARK                         _______ _______ _______ _____ _____    ______ ____
ROOT
ATOM      1  O   UNL     1      31.924 -13.782 -24.016  0.00  0.00    -0.350 OA
ATOM      2  C   UNL     1      33.968 -12.644 -23.816  0.00  0.00    +0.015 C 
ATOM      3  C   UNL     1      32.865 -13.371 -22.984  0.00  0.00    +0.128 C 
ATOM      4  C   UNL     1      34.041 -13.523 -25.056  0.00  0.00    +0.033 C 
ATOM      5  C   UNL     1      32.591 -13.891 -25.281  0.00  0.00    +0.143 C 
ENDROOT
BRANCH   3   6
ATOM      6  C   UNL     1      32.180 -12.458 -21.961  0.00  0.00    +0.006 C 
ATOM      7  C   UNL     1      31.308 -11.457 -22.391  0.00  0.00    -0.002 C 
ATOM      8  C   UNL     1      32.428 -12.626 -20.598  0.00  0.00    -0.002 C 
ATOM      9  C   UNL     1      30.685 -10.627 -21.460  0.00  0.00    -0.000 C 
ATOM     10  C   UNL     1      31.806 -11.796 -19.666  0.00  0.00    -0.000 C 
ATOM     11  C   UNL     1      30.934 -10.795 -20.097  0.00  0.00    -0.000 C 
ENDBRANCH   3   6
BRANCH   3  12
ATOM     12  C   UNL     1      33.314 -14.665 -22.272  0.00  0.00    +0.006 C 
ATOM     13  C   UNL     1      32.426 -15.351 -21.441  0.00  0.00    -0.002 C 
ATOM     14  C   UNL     1      34.609 -15.153 -22.458  0.00  0.00    -0.002 C 
ATOM     15  C   UNL     1      32.831 -16.520 -20.799  0.00  0.00    -0.000 C 
ATOM     16  C   UNL     1      35.014 -16.322 -21.815  0.00  0.00    -0.000 C 
ATOM     17  C   UNL     1      34.125 -17.006 -20.985  0.00  0.00    -0.000 C 
ENDBRANCH   3  12
BRANCH   2  18
ATOM     18  C   UNL     1      33.609 -11.207 -24.238  0.00  0.00    -0.074 C 
BRANCH  18  19
ATOM     19  N   UNL     1      34.793 -10.358 -24.262  0.00  0.00    +0.384 N 
ATOM     20  C   UNL     1      34.464  -8.999 -23.825  0.00  0.00    -0.101 C 
ATOM     21  C   UNL     1      35.381 -10.329 -25.603  0.00  0.00    -0.101 C 
ATOM     22  H   UNL     1      35.477 -10.750 -23.616  0.00  0.00    -0.080 HD
ENDBRANCH  18  19
ENDBRANCH   2  18
TORSDOF 4
ENDMDL
MODEL 7
REMARK VINA RESULT:      -7.3      4.221      6.804
REMARK  Name = 9882189
REMARK  4 active torsions:
REMARK  status: ('A' for Active; 'I' for Inactive)
REMARK    1  A    between atoms: C_2  and  C_18
REMARK    2  A    between atoms: C_3  and  C_6
REMARK    3  A    between atoms: C_3  and  C_12
REMARK    4  A    between atoms: C_18  and  N_19
REMARK                            x       y       z     vdW  Elec       q    Type
REMARK                         _______ _______ _______ _____ _____    ______ ____
ROOT
ATOM      1  O   UNL     1      32.205 -14.160 -25.321  0.00  0.00    -0.350 OA
ATOM      2  C   UNL     1      34.200 -12.940 -25.105  0.00  0.00    +0.015 C 
ATOM      3  C   UNL     1      33.334 -14.035 -24.407  0.00  0.00    +0.128 C 
ATOM      4  C   UNL     1      34.033 -13.309 -26.571  0.00  0.00    +0.033 C 
ATOM      5  C   UNL     1      32.585 -13.737 -26.638  0.00  0.00    +0.143 C 
ENDROOT
BRANCH   3   6
ATOM      6  C   UNL     1      32.854 -13.629 -23.009  0.00  0.00    +0.006 C 
ATOM      7  C   UNL     1      33.137 -14.440 -21.911  0.00  0.00    -0.002 C 
ATOM      8  C   UNL     1      32.133 -12.447 -22.835  0.00  0.00    -0.002 C 
ATOM      9  C   UNL     1      32.700 -14.070 -20.639  0.00  0.00    -0.000 C 
ATOM     10  C   UNL     1      31.696 -12.077 -21.563  0.00  0.00    -0.000 C 
ATOM     11  C   UNL     1      31.979 -12.889 -20.465  0.00  0.00    -0.000 C 
ENDBRANCH   3   6
BRANCH   3  12
ATOM     12  C   UNL     1      33.975 -15.437 -24.324  0.00  0.00    +0.006 C 
ATOM     13  C   UNL     1      34.888 -15.730 -23.310  0.00  0.00    -0.002 C 
ATOM     14  C   UNL     1      33.644 -16.416 -25.265  0.00  0.00    -0.002 C 
ATOM     15  C   UNL     1      35.468 -16.996 -23.235  0.00  0.00    -0.000 C 
ATOM     16  C   UNL     1      34.223 -17.681 -25.189  0.00  0.00    -0.000 C 
ATOM     17  C   UNL     1      35.135 -17.972 -24.175  0.00  0.00    -0.000 C 
ENDBRANCH   3  12
BRANCH   2  18
ATOM     18  C   UNL     1      33.704 -11.498 -24.889  0.00  0.00    -0.074 C 
BRANCH  18  19
ATOM     19  N   UNL     1      34.813 -10.604 -24.584  0.00  0.00    +0.384 N 
ATOM     20  C   UNL     1      34.333  -9.391 -23.917  0.00  0.00    -0.101 C 
ATOM     21  C   UNL     1      35.545 -10.254 -25.804  0.00  0.00    -0.101 C 
ATOM     22  H   UNL     1      35.449 -11.091 -23.953  0.00  0.00    -0.080 HD
ENDBRANCH  18  19
ENDBRANCH   2  18
TORSDOF 4
ENDMDL
MODEL 8
REMARK VINA RESULT:      -7.1     14.398     17.502
REMARK  Name = 9882189
REMARK  4 active torsions:
REMARK  status: ('A' for Active; 'I' for Inactive)
REMARK    1  A    between atoms: C_2  and  C_18
REMARK    2  A    between atoms: C_3  and  C_6
REMARK    3  A    between atoms: C_3  and  C_12
REMARK    4  A    between atoms: C_18  and  N_19
REMARK                            x       y       z     vdW  Elec       q    Type
REMARK                         _______ _______ _______ _____ _____    ______ ____
ROOT
ATOM      1  O   UNL     1      35.710 -22.187 -14.974  0.00  0.00    -0.350 OA
ATOM      2  C   UNL     1      35.825 -24.438 -15.635  0.00  0.00    +0.015 C 
ATOM      3  C   UNL     1      35.036 -23.112 -15.875  0.00  0.00    +0.128 C 
ATOM      4  C   UNL     1      37.248 -23.922 -15.484  0.00  0.00    +0.033 C 
ATOM      5  C   UNL     1      37.049 -22.635 -14.715  0.00  0.00    +0.143 C 
ENDROOT
BRANCH   3   6
ATOM      6  C   UNL     1      33.548 -23.222 -15.522  0.00  0.00    +0.006 C 
ATOM      7  C   UNL     1      32.623 -23.587 -16.500  0.00  0.00    -0.002 C 
ATOM      8  C   UNL     1      33.118 -22.954 -14.222  0.00  0.00    -0.002 C 
ATOM      9  C   UNL     1      31.270 -23.686 -16.179  0.00  0.00    -0.000 C 
ATOM     10  C   UNL     1      31.764 -23.052 -13.900  0.00  0.00    -0.000 C 
ATOM     11  C   UNL     1      30.840 -23.418 -14.879  0.00  0.00    -0.000 C 
ENDBRANCH   3   6
BRANCH   3  12
ATOM     12  C   UNL     1      35.168 -22.507 -17.288  0.00  0.00    +0.006 C 
ATOM     13  C   UNL     1      36.350 -21.869 -17.669  0.00  0.00    -0.002 C 
ATOM     14  C   UNL     1      34.105 -22.595 -18.190  0.00  0.00    -0.002 C 
ATOM     15  C   UNL     1      36.470 -21.321 -18.945  0.00  0.00    -0.000 C 
ATOM     16  C   UNL     1      34.225 -22.047 -19.467  0.00  0.00    -0.000 C 
ATOM     17  C   UNL     1      35.408 -21.410 -19.845  0.00  0.00    -0.000 C 
ENDBRANCH   3  12
BRANCH   2  18
ATOM     18  C   UNL     1      35.427 -25.198 -14.355  0.00  0.00    -0.074 C 
BRANCH  18  19
ATOM     19  N   UNL     1      36.600 -25.516 -13.551  0.00  0.00    +0.384 N 
ATOM     20  C   UNL     1      36.986 -26.917 -13.730  0.00  0.00    -0.101 C 
ATOM     21  C   UNL     1      36.345 -25.239 -12.135  0.00  0.00    -0.101 C 
ATOM     22  H   UNL     1      37.369 -24.924 -13.864  0.00  0.00    -0.080 HD
ENDBRANCH  18  19
ENDBRANCH   2  18
TORSDOF 4
ENDMDL
MODEL 9
REMARK VINA RESULT:      -7.1     15.253     18.078
REMARK  Name = 9882189
REMARK  4 active torsions:
REMARK  status: ('A' for Active; 'I' for Inactive)
REMARK    1  A    between atoms: C_2  and  C_18
REMARK    2  A    between atoms: C_3  and  C_6
REMARK    3  A    between atoms: C_3  and  C_12
REMARK    4  A    between atoms: C_18  and  N_19
REMARK                            x       y       z     vdW  Elec       q    Type
REMARK                         _______ _______ _______ _____ _____    ______ ____
ROOT
ATOM      1  O   UNL     1      34.277 -24.652 -15.717  0.00  0.00    -0.350 OA
ATOM      2  C   UNL     1      34.943 -23.183 -14.010  0.00  0.00    +0.015 C 
ATOM      3  C   UNL     1      35.442 -23.874 -15.318  0.00  0.00    +0.128 C 
ATOM      4  C   UNL     1      33.500 -22.861 -14.369  0.00  0.00    +0.033 C 
ATOM      5  C   UNL     1      33.083 -24.074 -15.171  0.00  0.00    +0.143 C 
ENDROOT
BRANCH   3   6
ATOM      6  C   UNL     1      36.652 -24.789 -15.095  0.00  0.00    +0.006 C 
ATOM      7  C   UNL     1      36.482 -26.173 -15.052  0.00  0.00    -0.002 C 
ATOM      8  C   UNL     1      37.923 -24.238 -14.933  0.00  0.00    -0.002 C 
ATOM      9  C   UNL     1      37.583 -27.005 -14.848  0.00  0.00    -0.000 C 
ATOM     10  C   UNL     1      39.024 -25.069 -14.729  0.00  0.00    -0.000 C 
ATOM     11  C   UNL     1      38.854 -26.453 -14.686  0.00  0.00    -0.000 C 
ENDBRANCH   3   6
BRANCH   3  12
ATOM     12  C   UNL     1      35.748 -22.925 -16.496  0.00  0.00    +0.006 C 
ATOM     13  C   UNL     1      36.846 -22.065 -16.436  0.00  0.00    -0.002 C 
ATOM     14  C   UNL     1      34.927 -22.924 -17.626  0.00  0.00    -0.002 C 
ATOM     15  C   UNL     1      37.122 -21.207 -17.499  0.00  0.00    -0.000 C 
ATOM     16  C   UNL     1      35.203 -22.066 -18.689  0.00  0.00    -0.000 C 
ATOM     17  C   UNL     1      36.301 -21.208 -18.627  0.00  0.00    -0.000 C 
ENDBRANCH   3  12
BRANCH   2  18
ATOM     18  C   UNL     1      34.961 -24.085 -12.762  0.00  0.00    -0.074 C 
BRANCH  18  19
ATOM     19  N   UNL     1      35.595 -23.410 -11.638  0.00  0.00    +0.384 N 
ATOM     20  C   UNL     1      36.934 -22.942 -12.003  0.00  0.00    -0.101 C 
ATOM     21  C   UNL     1      35.670 -24.300 -10.477  0.00  0.00    -0.101 C 
ATOM     22  H   UNL     1      35.024 -22.602 -11.391  0.00  0.00    -0.080 HD
ENDBRANCH  18  19
ENDBRANCH   2  18
TORSDOF 4
ENDMDL
