MODEL 1
REMARK VINA RESULT:      -5.9      0.000      0.000
REMARK  Name = 4633094
REMARK  5 active torsions:
REMARK  status: ('A' for Active; 'I' for Inactive)
REMARK    1  A    between atoms: N_2  and  O_4
REMARK    2  A    between atoms: N_2  and  C_8
REMARK    3  A    between atoms: C_3  and  O_6
REMARK    4  A    between atoms: C_8  and  C_10
REMARK    5  A    between atoms: C_10  and  O_11
REMARK                            x       y       z     vdW  Elec       q    Type
REMARK                         _______ _______ _______ _____ _____    ______ ____
ROOT
ATOM      1  O   UNL     1      38.074 -24.571 -11.507  0.00  0.00    -0.224 OA
ATOM      2  N   UNL     1      38.370 -25.855 -13.402  0.00  0.00    -0.126 N 
ATOM      3  C   UNL     1      37.764 -25.518 -12.224  0.00  0.00    +0.425 C 
ENDROOT
BRANCH   2   4
ATOM      4  O   UNL     1      37.980 -26.946 -14.188  0.00  0.00    -0.289 OA
ATOM      5  H   UNL     1      37.928 -26.673 -15.117  0.00  0.00    +0.242 HD
ENDBRANCH   2   4
BRANCH   3   6
ATOM      6  O   UNL     1      36.736 -26.351 -11.898  0.00  0.00    -0.465 OA
ATOM      7  H   UNL     1      35.856 -26.027 -11.882  0.00  0.00    +0.297 HD
ENDBRANCH   3   6
BRANCH   2   8
ATOM      8  C   UNL     1      39.481 -25.120 -13.966  0.00  0.00    +0.236 C 
BRANCH   8  10
ATOM      9  O   UNL     1      41.249 -26.746 -14.108  0.00  0.00    -0.248 OA
ATOM     10  C   UNL     1      40.465 -26.006 -14.686  0.00  0.00    +0.337 C 
BRANCH  10  11
ATOM     11  O   UNL     1      40.401 -25.901 -16.035  0.00  0.00    -0.479 OA
ATOM     12  H   UNL     1      39.575 -25.757 -16.454  0.00  0.00    +0.295 HD
ENDBRANCH  10  11
ENDBRANCH   8  10
ENDBRANCH   2   8
TORSDOF 5
ENDMDL
MODEL 2
REMARK VINA RESULT:      -5.8      1.133      3.766
REMARK  Name = 4633094
REMARK  5 active torsions:
REMARK  status: ('A' for Active; 'I' for Inactive)
REMARK    1  A    between atoms: N_2  and  O_4
REMARK    2  A    between atoms: N_2  and  C_8
REMARK    3  A    between atoms: C_3  and  O_6
REMARK    4  A    between atoms: C_8  and  C_10
REMARK    5  A    between atoms: C_10  and  O_11
REMARK                            x       y       z     vdW  Elec       q    Type
REMARK                         _______ _______ _______ _____ _____    ______ ____
ROOT
ATOM      1  O   UNL     1      40.992 -26.412 -13.957  0.00  0.00    -0.224 OA
ATOM      2  N   UNL     1      39.005 -25.343 -14.439  0.00  0.00    -0.126 N 
ATOM      3  C   UNL     1      40.197 -25.932 -14.758  0.00  0.00    +0.425 C 
ENDROOT
BRANCH   2   4
ATOM      4  O   UNL     1      38.128 -24.807 -15.389  0.00  0.00    -0.289 OA
ATOM      5  H   UNL     1      37.418 -25.443 -15.569  0.00  0.00    +0.242 HD
ENDBRANCH   2   4
BRANCH   3   6
ATOM      6  O   UNL     1      40.439 -25.948 -16.099  0.00  0.00    -0.465 OA
ATOM      7  H   UNL     1      39.846 -26.387 -16.677  0.00  0.00    +0.297 HD
ENDBRANCH   3   6
BRANCH   2   8
ATOM      8  C   UNL     1      38.519 -25.211 -13.083  0.00  0.00    +0.236 C 
BRANCH   8  10
ATOM      9  O   UNL     1      36.864 -26.236 -11.666  0.00  0.00    -0.248 OA
ATOM     10  C   UNL     1      37.377 -26.144 -12.775  0.00  0.00    +0.337 C 
BRANCH  10  11
ATOM     11  O   UNL     1      36.973 -26.876 -13.840  0.00  0.00    -0.479 OA
ATOM     12  H   UNL     1      37.496 -26.899 -14.618  0.00  0.00    +0.295 HD
ENDBRANCH  10  11
ENDBRANCH   8  10
ENDBRANCH   2   8
TORSDOF 5
ENDMDL
MODEL 3
REMARK VINA RESULT:      -5.7      1.037      3.678
REMARK  Name = 4633094
REMARK  5 active torsions:
REMARK  status: ('A' for Active; 'I' for Inactive)
REMARK    1  A    between atoms: N_2  and  O_4
REMARK    2  A    between atoms: N_2  and  C_8
REMARK    3  A    between atoms: C_3  and  O_6
REMARK    4  A    between atoms: C_8  and  C_10
REMARK    5  A    between atoms: C_10  and  O_11
REMARK                            x       y       z     vdW  Elec       q    Type
REMARK                         _______ _______ _______ _____ _____    ______ ____
ROOT
ATOM      1  O   UNL     1      40.780 -24.606 -13.979  0.00  0.00    -0.224 OA
ATOM      2  N   UNL     1      38.909 -25.938 -14.199  0.00  0.00    -0.126 N 
ATOM      3  C   UNL     1      40.244 -25.663 -14.298  0.00  0.00    +0.425 C 
ENDROOT
BRANCH   2   4
ATOM      4  O   UNL     1      38.341 -27.161 -14.576  0.00  0.00    -0.289 OA
ATOM      5  H   UNL     1      37.420 -27.021 -14.846  0.00  0.00    +0.242 HD
ENDBRANCH   2   4
BRANCH   3   6
ATOM      6  O   UNL     1      40.966 -26.705 -14.797  0.00  0.00    -0.465 OA
ATOM      7  H   UNL     1      40.619 -27.223 -15.497  0.00  0.00    +0.297 HD
ENDBRANCH   3   6
BRANCH   2   8
ATOM      8  C   UNL     1      37.935 -24.996 -13.691  0.00  0.00    +0.236 C 
BRANCH   8  10
ATOM      9  O   UNL     1      37.827 -24.526 -11.333  0.00  0.00    -0.248 OA
ATOM     10  C   UNL     1      37.542 -25.270 -12.262  0.00  0.00    +0.337 C 
BRANCH  10  11
ATOM     11  O   UNL     1      36.847 -26.421 -12.104  0.00  0.00    -0.479 OA
ATOM     12  H   UNL     1      37.286 -27.198 -11.817  0.00  0.00    +0.295 HD
ENDBRANCH  10  11
ENDBRANCH   8  10
ENDBRANCH   2   8
TORSDOF 5
ENDMDL
MODEL 4
REMARK VINA RESULT:      -5.6      2.168      2.389
REMARK  Name = 4633094
REMARK  5 active torsions:
REMARK  status: ('A' for Active; 'I' for Inactive)
REMARK    1  A    between atoms: N_2  and  O_4
REMARK    2  A    between atoms: N_2  and  C_8
REMARK    3  A    between atoms: C_3  and  O_6
REMARK    4  A    between atoms: C_8  and  C_10
REMARK    5  A    between atoms: C_10  and  O_11
REMARK                            x       y       z     vdW  Elec       q    Type
REMARK                         _______ _______ _______ _____ _____    ______ ____
ROOT
ATOM      1  O   UNL     1      37.627 -23.256 -14.310  0.00  0.00    -0.224 OA
ATOM      2  N   UNL     1      37.798 -25.454 -14.993  0.00  0.00    -0.126 N 
ATOM      3  C   UNL     1      37.227 -24.212 -14.968  0.00  0.00    +0.425 C 
ENDROOT
BRANCH   2   4
ATOM      4  O   UNL     1      37.306 -26.516 -15.761  0.00  0.00    -0.289 OA
ATOM      5  H   UNL     1      37.717 -26.498 -16.639  0.00  0.00    +0.242 HD
ENDBRANCH   2   4
BRANCH   3   6
ATOM      6  O   UNL     1      36.132 -24.114 -15.773  0.00  0.00    -0.465 OA
ATOM      7  H   UNL     1      35.287 -24.353 -15.446  0.00  0.00    +0.297 HD
ENDBRANCH   3   6
BRANCH   2   8
ATOM      8  C   UNL     1      38.975 -25.806 -14.229  0.00  0.00    +0.236 C 
BRANCH   8  10
ATOM      9  O   UNL     1      41.107 -24.703 -14.403  0.00  0.00    -0.248 OA
ATOM     10  C   UNL     1      40.259 -25.420 -14.918  0.00  0.00    +0.337 C 
BRANCH  10  11
ATOM     11  O   UNL     1      40.384 -25.938 -16.162  0.00  0.00    -0.479 OA
ATOM     12  H   UNL     1      40.562 -26.852 -16.273  0.00  0.00    +0.295 HD
ENDBRANCH  10  11
ENDBRANCH   8  10
ENDBRANCH   2   8
TORSDOF 5
ENDMDL
MODEL 5
REMARK VINA RESULT:      -5.5      1.924      2.350
REMARK  Name = 4633094
REMARK  5 active torsions:
REMARK  status: ('A' for Active; 'I' for Inactive)
REMARK    1  A    between atoms: N_2  and  O_4
REMARK    2  A    between atoms: N_2  and  C_8
REMARK    3  A    between atoms: C_3  and  O_6
REMARK    4  A    between atoms: C_8  and  C_10
REMARK    5  A    between atoms: C_10  and  O_11
REMARK                            x       y       z     vdW  Elec       q    Type
REMARK                         _______ _______ _______ _____ _____    ______ ____
ROOT
ATOM      1  O   UNL     1      38.542 -23.130 -11.682  0.00  0.00    -0.224 OA
ATOM      2  N   UNL     1      37.506 -24.973 -12.605  0.00  0.00    -0.126 N 
ATOM      3  C   UNL     1      37.681 -24.004 -11.657  0.00  0.00    +0.425 C 
ENDROOT
BRANCH   2   4
ATOM      4  O   UNL     1      36.508 -25.953 -12.534  0.00  0.00    -0.289 OA
ATOM      5  H   UNL     1      36.877 -26.810 -12.797  0.00  0.00    +0.242 HD
ENDBRANCH   2   4
BRANCH   3   6
ATOM      6  O   UNL     1      36.779 -24.087 -10.639  0.00  0.00    -0.465 OA
ATOM      7  H   UNL     1      37.028 -24.473  -9.822  0.00  0.00    +0.297 HD
ENDBRANCH   3   6
BRANCH   2   8
ATOM      8  C   UNL     1      38.332 -25.093 -13.786  0.00  0.00    +0.236 C 
BRANCH   8  10
ATOM      9  O   UNL     1      38.299 -27.313 -14.716  0.00  0.00    -0.248 OA
ATOM     10  C   UNL     1      37.859 -26.170 -14.727  0.00  0.00    +0.337 C 
BRANCH  10  11
ATOM     11  O   UNL     1      36.902 -25.754 -15.590  0.00  0.00    -0.479 OA
ATOM     12  H   UNL     1      37.052 -25.802 -16.514  0.00  0.00    +0.295 HD
ENDBRANCH  10  11
ENDBRANCH   8  10
ENDBRANCH   2   8
TORSDOF 5
ENDMDL
MODEL 6
REMARK VINA RESULT:      -5.4      1.864      3.768
REMARK  Name = 4633094
REMARK  5 active torsions:
REMARK  status: ('A' for Active; 'I' for Inactive)
REMARK    1  A    between atoms: N_2  and  O_4
REMARK    2  A    between atoms: N_2  and  C_8
REMARK    3  A    between atoms: C_3  and  O_6
REMARK    4  A    between atoms: C_8  and  C_10
REMARK    5  A    between atoms: C_10  and  O_11
REMARK                            x       y       z     vdW  Elec       q    Type
REMARK                         _______ _______ _______ _____ _____    ______ ____
ROOT
ATOM      1  O   UNL     1      35.705 -25.469 -15.485  0.00  0.00    -0.224 OA
ATOM      2  N   UNL     1      37.743 -26.071 -14.587  0.00  0.00    -0.126 N 
ATOM      3  C   UNL     1      36.676 -26.217 -15.428  0.00  0.00    +0.425 C 
ENDROOT
BRANCH   2   4
ATOM      4  O   UNL     1      38.831 -26.952 -14.557  0.00  0.00    -0.289 OA
ATOM      5  H   UNL     1      39.269 -26.955 -15.422  0.00  0.00    +0.242 HD
ENDBRANCH   2   4
BRANCH   3   6
ATOM      6  O   UNL     1      36.784 -27.307 -16.238  0.00  0.00    -0.465 OA
ATOM      7  H   UNL     1      37.334 -28.025 -15.989  0.00  0.00    +0.297 HD
ENDBRANCH   3   6
BRANCH   2   8
ATOM      8  C   UNL     1      37.867 -24.988 -13.636  0.00  0.00    +0.236 C 
BRANCH   8  10
ATOM      9  O   UNL     1      37.047 -26.490 -11.943  0.00  0.00    -0.248 OA
ATOM     10  C   UNL     1      37.542 -25.406 -12.225  0.00  0.00    +0.337 C 
BRANCH  10  11
ATOM     11  O   UNL     1      37.846 -24.467 -11.298  0.00  0.00    -0.479 OA
ATOM     12  H   UNL     1      38.035 -23.588 -11.566  0.00  0.00    +0.295 HD
ENDBRANCH  10  11
ENDBRANCH   8  10
ENDBRANCH   2   8
TORSDOF 5
ENDMDL
MODEL 7
REMARK VINA RESULT:      -5.4      2.298      2.952
REMARK  Name = 4633094
REMARK  5 active torsions:
REMARK  status: ('A' for Active; 'I' for Inactive)
REMARK    1  A    between atoms: N_2  and  O_4
REMARK    2  A    between atoms: N_2  and  C_8
REMARK    3  A    between atoms: C_3  and  O_6
REMARK    4  A    between atoms: C_8  and  C_10
REMARK    5  A    between atoms: C_10  and  O_11
REMARK                            x       y       z     vdW  Elec       q    Type
REMARK                         _______ _______ _______ _____ _____    ______ ____
ROOT
ATOM      1  O   UNL     1      35.192 -23.530 -12.193  0.00  0.00    -0.224 OA
ATOM      2  N   UNL     1      36.433 -25.455 -12.469  0.00  0.00    -0.126 N 
ATOM      3  C   UNL     1      35.625 -24.599 -11.775  0.00  0.00    +0.425 C 
ENDROOT
BRANCH   2   4
ATOM      4  O   UNL     1      36.904 -26.667 -11.949  0.00  0.00    -0.289 OA
ATOM      5  H   UNL     1      37.828 -26.564 -11.673  0.00  0.00    +0.242 HD
ENDBRANCH   2   4
BRANCH   3   6
ATOM      6  O   UNL     1      35.318 -25.052 -10.527  0.00  0.00    -0.465 OA
ATOM      7  H   UNL     1      34.821 -24.514  -9.941  0.00  0.00    +0.297 HD
ENDBRANCH   3   6
BRANCH   2   8
ATOM      8  C   UNL     1      36.892 -25.202 -13.817  0.00  0.00    +0.236 C 
BRANCH   8  10
ATOM      9  O   UNL     1      38.378 -26.879 -14.697  0.00  0.00    -0.248 OA
ATOM     10  C   UNL     1      37.234 -26.465 -14.567  0.00  0.00    +0.337 C 
BRANCH  10  11
ATOM     11  O   UNL     1      36.154 -27.095 -15.086  0.00  0.00    -0.479 OA
ATOM     12  H   UNL     1      35.302 -26.712 -15.001  0.00  0.00    +0.295 HD
ENDBRANCH  10  11
ENDBRANCH   8  10
ENDBRANCH   2   8
TORSDOF 5
ENDMDL
MODEL 8
REMARK VINA RESULT:      -5.2      2.987      4.517
REMARK  Name = 4633094
REMARK  5 active torsions:
REMARK  status: ('A' for Active; 'I' for Inactive)
REMARK    1  A    between atoms: N_2  and  O_4
REMARK    2  A    between atoms: N_2  and  C_8
REMARK    3  A    between atoms: C_3  and  O_6
REMARK    4  A    between atoms: C_8  and  C_10
REMARK    5  A    between atoms: C_10  and  O_11
REMARK                            x       y       z     vdW  Elec       q    Type
REMARK                         _______ _______ _______ _____ _____    ______ ____
ROOT
ATOM      1  O   UNL     1      36.060 -24.510 -15.580  0.00  0.00    -0.224 OA
ATOM      2  N   UNL     1      36.638 -25.618 -13.641  0.00  0.00    -0.126 N 
ATOM      3  C   UNL     1      36.248 -25.545 -14.949  0.00  0.00    +0.425 C 
ENDROOT
BRANCH   2   4
ATOM      4  O   UNL     1      36.841 -26.825 -12.961  0.00  0.00    -0.289 OA
ATOM      5  H   UNL     1      36.747 -27.565 -13.580  0.00  0.00    +0.242 HD
ENDBRANCH   2   4
BRANCH   3   6
ATOM      6  O   UNL     1      36.084 -26.769 -15.524  0.00  0.00    -0.465 OA
ATOM      7  H   UNL     1      36.732 -27.101 -16.115  0.00  0.00    +0.297 HD
ENDBRANCH   3   6
BRANCH   2   8
ATOM      8  C   UNL     1      36.885 -24.456 -12.816  0.00  0.00    +0.236 C 
BRANCH   8  10
ATOM      9  O   UNL     1      36.517 -24.030 -10.475  0.00  0.00    -0.248 OA
ATOM     10  C   UNL     1      36.088 -24.464 -11.537  0.00  0.00    +0.337 C 
BRANCH  10  11
ATOM     11  O   UNL     1      34.852 -25.000 -11.672  0.00  0.00    -0.479 OA
ATOM     12  H   UNL     1      34.163 -24.496 -12.059  0.00  0.00    +0.295 HD
ENDBRANCH  10  11
ENDBRANCH   8  10
ENDBRANCH   2   8
TORSDOF 5
ENDMDL
MODEL 9
REMARK VINA RESULT:      -5.2      1.974      4.559
REMARK  Name = 4633094
REMARK  5 active torsions:
REMARK  status: ('A' for Active; 'I' for Inactive)
REMARK    1  A    between atoms: N_2  and  O_4
REMARK    2  A    between atoms: N_2  and  C_8
REMARK    3  A    between atoms: C_3  and  O_6
REMARK    4  A    between atoms: C_8  and  C_10
REMARK    5  A    between atoms: C_10  and  O_11
REMARK                            x       y       z     vdW  Elec       q    Type
REMARK                         _______ _______ _______ _____ _____    ______ ____
ROOT
ATOM      1  O   UNL     1      38.992 -24.527 -14.156  0.00  0.00    -0.224 OA
ATOM      2  N   UNL     1      37.534 -25.353 -12.570  0.00  0.00    -0.126 N 
ATOM      3  C   UNL     1      38.362 -25.452 -13.653  0.00  0.00    +0.425 C 
ENDROOT
BRANCH   2   4
ATOM      4  O   UNL     1      36.834 -26.439 -12.029  0.00  0.00    -0.289 OA
ATOM      5  H   UNL     1      36.777 -27.147 -12.689  0.00  0.00    +0.242 HD
ENDBRANCH   2   4
BRANCH   3   6
ATOM      6  O   UNL     1      38.440 -26.719 -14.148  0.00  0.00    -0.465 OA
ATOM      7  H   UNL     1      38.183 -26.894 -15.032  0.00  0.00    +0.297 HD
ENDBRANCH   3   6
BRANCH   2   8
ATOM      8  C   UNL     1      37.290 -24.115 -11.862  0.00  0.00    +0.236 C 
BRANCH   8  10
ATOM      9  O   UNL     1      34.892 -23.976 -11.705  0.00  0.00    -0.248 OA
ATOM     10  C   UNL     1      35.969 -24.104 -11.137  0.00  0.00    +0.337 C 
BRANCH  10  11
ATOM     11  O   UNL     1      36.087 -24.245  -9.795  0.00  0.00    -0.479 OA
ATOM     12  H   UNL     1      35.461 -23.843  -9.225  0.00  0.00    +0.295 HD
ENDBRANCH  10  11
ENDBRANCH   8  10
ENDBRANCH   2   8
TORSDOF 5
ENDMDL
