MODEL 1
REMARK VINA RESULT:      -8.2      0.000      0.000
REMARK  Name = 1051
REMARK  7 active torsions:
REMARK  status: ('A' for Active; 'I' for Inactive)
REMARK    1  A    between atoms: C_2  and  C_12
REMARK    2  A    between atoms: C_3  and  C_11
REMARK    3  A    between atoms: C_4  and  O_8
REMARK    4  A    between atoms: C_12  and  O_13
REMARK    5  A    between atoms: O_13  and  P_14
REMARK    6  A    between atoms: P_14  and  O_16
REMARK    7  A    between atoms: P_14  and  O_18
REMARK                            x       y       z     vdW  Elec       q    Type
REMARK                         _______ _______ _______ _____ _____    ______ ____
ROOT
ATOM      1  N   UNL     1      35.480 -24.855 -15.565  0.00  0.00    -0.245 NA
ATOM      2  C   UNL     1      36.859 -25.288 -13.627  0.00  0.00    +0.033 C 
ATOM      3  C   UNL     1      35.917 -24.671 -12.810  0.00  0.00    +0.077 C 
ATOM      4  C   UNL     1      34.758 -24.146 -13.370  0.00  0.00    +0.150 C 
ATOM      5  C   UNL     1      34.588 -24.263 -14.739  0.00  0.00    +0.093 C 
ATOM      6  C   UNL     1      36.595 -25.355 -14.986  0.00  0.00    +0.097 C 
ATOM      7  C   UNL     1      33.361 -23.715 -15.393  0.00  0.00    +0.055 C 
ENDROOT
BRANCH   4   8
ATOM      8  O   UNL     1      33.819 -23.536 -12.598  0.00  0.00    -0.504 OA
ATOM      9  H   UNL     1      33.724 -22.604 -12.626  0.00  0.00    +0.292 HD
ENDBRANCH   4   8
BRANCH   3  11
ATOM     10  O   UNL     1      35.370 -25.052 -10.541  0.00  0.00    -0.283 OA
ATOM     11  C   UNL     1      36.142 -24.574 -11.373  0.00  0.00    +0.237 C 
ENDBRANCH   3  11
BRANCH   2  12
ATOM     12  C   UNL     1      38.119 -25.870 -13.086  0.00  0.00    +0.182 C 
BRANCH  12  13
ATOM     13  O   UNL     1      38.860 -26.464 -14.145  0.00  0.00    -0.268 OA
BRANCH  13  14
ATOM     14  P   UNL     1      40.322 -25.866 -14.487  0.00  0.00    +0.473 P 
ATOM     15  O   UNL     1      40.617 -24.523 -13.886  0.00  0.00    -0.227 OA
BRANCH  14  16
ATOM     16  O   UNL     1      40.397 -25.932 -16.102  0.00  0.00    -0.303 OA
ATOM     17  H   UNL     1      41.325 -25.954 -16.381  0.00  0.00    +0.222 HD
ENDBRANCH  14  16
BRANCH  14  18
ATOM     18  O   UNL     1      41.313 -27.056 -14.020  0.00  0.00    -0.303 OA
ATOM     19  H   UNL     1      41.024 -27.892 -14.419  0.00  0.00    +0.222 HD
ENDBRANCH  14  18
ENDBRANCH  13  14
ENDBRANCH  12  13
ENDBRANCH   2  12
TORSDOF 7
ENDMDL
MODEL 2
REMARK VINA RESULT:      -7.1     14.332     16.143
REMARK  Name = 1051
REMARK  7 active torsions:
REMARK  status: ('A' for Active; 'I' for Inactive)
REMARK    1  A    between atoms: C_2  and  C_12
REMARK    2  A    between atoms: C_3  and  C_11
REMARK    3  A    between atoms: C_4  and  O_8
REMARK    4  A    between atoms: C_12  and  O_13
REMARK    5  A    between atoms: O_13  and  P_14
REMARK    6  A    between atoms: P_14  and  O_16
REMARK    7  A    between atoms: P_14  and  O_18
REMARK                            x       y       z     vdW  Elec       q    Type
REMARK                         _______ _______ _______ _____ _____    ______ ____
ROOT
ATOM      1  N   UNL     1      34.886 -16.247 -22.311  0.00  0.00    -0.245 NA
ATOM      2  C   UNL     1      33.618 -14.606 -23.553  0.00  0.00    +0.033 C 
ATOM      3  C   UNL     1      33.677 -15.408 -24.688  0.00  0.00    +0.077 C 
ATOM      4  C   UNL     1      34.340 -16.628 -24.635  0.00  0.00    +0.150 C 
ATOM      5  C   UNL     1      34.922 -16.999 -23.434  0.00  0.00    +0.093 C 
ATOM      6  C   UNL     1      34.232 -15.067 -22.399  0.00  0.00    +0.097 C 
ATOM      7  C   UNL     1      35.648 -18.300 -23.322  0.00  0.00    +0.055 C 
ENDROOT
BRANCH   4   8
ATOM      8  O   UNL     1      34.417 -17.434 -25.727  0.00  0.00    -0.504 OA
ATOM      9  H   UNL     1      33.792 -18.122 -25.847  0.00  0.00    +0.292 HD
ENDBRANCH   4   8
BRANCH   3  11
ATOM     10  O   UNL     1      33.649 -14.919 -27.002  0.00  0.00    -0.283 OA
ATOM     11  C   UNL     1      33.047 -14.973 -25.929  0.00  0.00    +0.237 C 
ENDBRANCH   3  11
BRANCH   2  12
ATOM     12  C   UNL     1      32.922 -13.288 -23.548  0.00  0.00    +0.182 C 
BRANCH  12  13
ATOM     13  O   UNL     1      33.875 -12.249 -23.361  0.00  0.00    -0.268 OA
BRANCH  13  14
ATOM     14  P   UNL     1      33.967 -11.084 -24.477  0.00  0.00    +0.473 P 
ATOM     15  O   UNL     1      33.872 -11.555 -25.899  0.00  0.00    -0.227 OA
BRANCH  14  16
ATOM     16  O   UNL     1      35.328 -10.296 -24.100  0.00  0.00    -0.303 OA
ATOM     17  H   UNL     1      35.523 -10.421 -23.158  0.00  0.00    +0.222 HD
ENDBRANCH  14  16
BRANCH  14  18
ATOM     18  O   UNL     1      32.803 -10.058 -24.019  0.00  0.00    -0.303 OA
ATOM     19  H   UNL     1      31.956 -10.341 -24.398  0.00  0.00    +0.222 HD
ENDBRANCH  14  18
ENDBRANCH  13  14
ENDBRANCH  12  13
ENDBRANCH   2  12
TORSDOF 7
ENDMDL
MODEL 3
REMARK VINA RESULT:      -7.1      4.836      7.689
REMARK  Name = 1051
REMARK  7 active torsions:
REMARK  status: ('A' for Active; 'I' for Inactive)
REMARK    1  A    between atoms: C_2  and  C_12
REMARK    2  A    between atoms: C_3  and  C_11
REMARK    3  A    between atoms: C_4  and  O_8
REMARK    4  A    between atoms: C_12  and  O_13
REMARK    5  A    between atoms: O_13  and  P_14
REMARK    6  A    between atoms: P_14  and  O_16
REMARK    7  A    between atoms: P_14  and  O_18
REMARK                            x       y       z     vdW  Elec       q    Type
REMARK                         _______ _______ _______ _____ _____    ______ ____
ROOT
ATOM      1  N   UNL     1      34.642 -23.931 -16.299  0.00  0.00    -0.245 NA
ATOM      2  C   UNL     1      32.367 -23.284 -15.799  0.00  0.00    +0.033 C 
ATOM      3  C   UNL     1      32.527 -23.711 -14.485  0.00  0.00    +0.077 C 
ATOM      4  C   UNL     1      33.742 -24.247 -14.078  0.00  0.00    +0.150 C 
ATOM      5  C   UNL     1      34.760 -24.334 -15.014  0.00  0.00    +0.093 C 
ATOM      6  C   UNL     1      33.446 -23.414 -16.659  0.00  0.00    +0.097 C 
ATOM      7  C   UNL     1      36.086 -24.904 -14.630  0.00  0.00    +0.055 C 
ENDROOT
BRANCH   4   8
ATOM      8  O   UNL     1      33.929 -24.674 -12.801  0.00  0.00    -0.504 OA
ATOM      9  H   UNL     1      34.358 -24.119 -12.179  0.00  0.00    +0.292 HD
ENDBRANCH   4   8
BRANCH   3  11
ATOM     10  O   UNL     1      30.852 -24.575 -13.056  0.00  0.00    -0.283 OA
ATOM     11  C   UNL     1      31.425 -23.596 -13.537  0.00  0.00    +0.237 C 
ENDBRANCH   3  11
BRANCH   2  12
ATOM     12  C   UNL     1      31.089 -22.700 -16.295  0.00  0.00    +0.182 C 
BRANCH  12  13
ATOM     13  O   UNL     1      30.166 -23.746 -16.572  0.00  0.00    -0.268 OA
BRANCH  13  14
ATOM     14  P   UNL     1      28.617 -23.531 -16.165  0.00  0.00    +0.473 P 
ATOM     15  O   UNL     1      28.238 -22.118 -15.832  0.00  0.00    -0.227 OA
BRANCH  14  16
ATOM     16  O   UNL     1      28.377 -24.607 -14.981  0.00  0.00    -0.303 OA
ATOM     17  H   UNL     1      28.237 -25.486 -15.367  0.00  0.00    +0.222 HD
ENDBRANCH  14  16
BRANCH  14  18
ATOM     18  O   UNL     1      27.825 -24.174 -17.419  0.00  0.00    -0.303 OA
ATOM     19  H   UNL     1      26.890 -23.914 -17.378  0.00  0.00    +0.222 HD
ENDBRANCH  14  18
ENDBRANCH  13  14
ENDBRANCH  12  13
ENDBRANCH   2  12
TORSDOF 7
ENDMDL
MODEL 4
REMARK VINA RESULT:      -7.0      3.985      5.217
REMARK  Name = 1051
REMARK  7 active torsions:
REMARK  status: ('A' for Active; 'I' for Inactive)
REMARK    1  A    between atoms: C_2  and  C_12
REMARK    2  A    between atoms: C_3  and  C_11
REMARK    3  A    between atoms: C_4  and  O_8
REMARK    4  A    between atoms: C_12  and  O_13
REMARK    5  A    between atoms: O_13  and  P_14
REMARK    6  A    between atoms: P_14  and  O_16
REMARK    7  A    between atoms: P_14  and  O_18
REMARK                            x       y       z     vdW  Elec       q    Type
REMARK                         _______ _______ _______ _____ _____    ______ ____
ROOT
ATOM      1  N   UNL     1      36.561 -21.534 -18.428  0.00  0.00    -0.245 NA
ATOM      2  C   UNL     1      35.273 -22.778 -16.805  0.00  0.00    +0.033 C 
ATOM      3  C   UNL     1      34.162 -22.733 -17.640  0.00  0.00    +0.077 C 
ATOM      4  C   UNL     1      34.250 -22.089 -18.869  0.00  0.00    +0.150 C 
ATOM      5  C   UNL     1      35.461 -21.511 -19.214  0.00  0.00    +0.093 C 
ATOM      6  C   UNL     1      36.439 -22.170 -17.242  0.00  0.00    +0.097 C 
ATOM      7  C   UNL     1      35.610 -20.805 -20.522  0.00  0.00    +0.055 C 
ENDROOT
BRANCH   4   8
ATOM      8  O   UNL     1      33.182 -22.026 -19.707  0.00  0.00    -0.504 OA
ATOM      9  H   UNL     1      32.951 -21.212 -20.111  0.00  0.00    +0.292 HD
ENDBRANCH   4   8
BRANCH   3  11
ATOM     10  O   UNL     1      31.826 -22.773 -17.271  0.00  0.00    -0.283 OA
ATOM     11  C   UNL     1      32.909 -23.358 -17.232  0.00  0.00    +0.237 C 
ENDBRANCH   3  11
BRANCH   2  12
ATOM     12  C   UNL     1      35.241 -23.454 -15.477  0.00  0.00    +0.182 C 
BRANCH  12  13
ATOM     13  O   UNL     1      35.800 -24.757 -15.595  0.00  0.00    -0.268 OA
BRANCH  13  14
ATOM     14  P   UNL     1      37.095 -25.119 -14.699  0.00  0.00    +0.473 P 
ATOM     15  O   UNL     1      37.982 -23.956 -14.364  0.00  0.00    -0.227 OA
BRANCH  14  16
ATOM     16  O   UNL     1      37.807 -26.318 -15.519  0.00  0.00    -0.303 OA
ATOM     17  H   UNL     1      37.204 -27.076 -15.571  0.00  0.00    +0.222 HD
ENDBRANCH  14  16
BRANCH  14  18
ATOM     18  O   UNL     1      36.448 -25.874 -13.424  0.00  0.00    -0.303 OA
ATOM     19  H   UNL     1      36.711 -26.808 -13.434  0.00  0.00    +0.222 HD
ENDBRANCH  14  18
ENDBRANCH  13  14
ENDBRANCH  12  13
ENDBRANCH   2  12
TORSDOF 7
ENDMDL
MODEL 5
REMARK VINA RESULT:      -7.0      3.493      5.111
REMARK  Name = 1051
REMARK  7 active torsions:
REMARK  status: ('A' for Active; 'I' for Inactive)
REMARK    1  A    between atoms: C_2  and  C_12
REMARK    2  A    between atoms: C_3  and  C_11
REMARK    3  A    between atoms: C_4  and  O_8
REMARK    4  A    between atoms: C_12  and  O_13
REMARK    5  A    between atoms: O_13  and  P_14
REMARK    6  A    between atoms: P_14  and  O_16
REMARK    7  A    between atoms: P_14  and  O_18
REMARK                            x       y       z     vdW  Elec       q    Type
REMARK                         _______ _______ _______ _____ _____    ______ ____
ROOT
ATOM      1  N   UNL     1      30.931 -24.369 -13.947  0.00  0.00    -0.245 NA
ATOM      2  C   UNL     1      33.320 -24.084 -14.179  0.00  0.00    +0.033 C 
ATOM      3  C   UNL     1      33.137 -23.504 -15.430  0.00  0.00    +0.077 C 
ATOM      4  C   UNL     1      31.853 -23.356 -15.940  0.00  0.00    +0.150 C 
ATOM      5  C   UNL     1      30.793 -23.800 -15.166  0.00  0.00    +0.093 C 
ATOM      6  C   UNL     1      32.195 -24.495 -13.483  0.00  0.00    +0.097 C 
ATOM      7  C   UNL     1      29.391 -23.667 -15.666  0.00  0.00    +0.055 C 
ENDROOT
BRANCH   4   8
ATOM      8  O   UNL     1      31.641 -22.795 -17.159  0.00  0.00    -0.504 OA
ATOM      9  H   UNL     1      30.847 -22.972 -17.625  0.00  0.00    +0.292 HD
ENDBRANCH   4   8
BRANCH   3  11
ATOM     10  O   UNL     1      34.521 -23.449 -17.347  0.00  0.00    -0.283 OA
ATOM     11  C   UNL     1      34.287 -23.052 -16.206  0.00  0.00    +0.237 C 
ENDBRANCH   3  11
BRANCH   2  12
ATOM     12  C   UNL     1      34.672 -24.268 -13.580  0.00  0.00    +0.182 C 
BRANCH  12  13
ATOM     13  O   UNL     1      34.606 -24.031 -12.179  0.00  0.00    -0.268 OA
BRANCH  13  14
ATOM     14  P   UNL     1      35.912 -24.354 -11.284  0.00  0.00    +0.473 P 
ATOM     15  O   UNL     1      36.989 -23.310 -11.332  0.00  0.00    -0.227 OA
BRANCH  14  16
ATOM     16  O   UNL     1      36.358 -25.830 -11.773  0.00  0.00    -0.303 OA
ATOM     17  H   UNL     1      37.292 -25.815 -12.034  0.00  0.00    +0.222 HD
ENDBRANCH  14  16
BRANCH  14  18
ATOM     18  O   UNL     1      35.284 -24.621  -9.818  0.00  0.00    -0.303 OA
ATOM     19  H   UNL     1      34.384 -24.970  -9.911  0.00  0.00    +0.222 HD
ENDBRANCH  14  18
ENDBRANCH  13  14
ENDBRANCH  12  13
ENDBRANCH   2  12
TORSDOF 7
ENDMDL
MODEL 6
REMARK VINA RESULT:      -7.0      2.280      3.378
REMARK  Name = 1051
REMARK  7 active torsions:
REMARK  status: ('A' for Active; 'I' for Inactive)
REMARK    1  A    between atoms: C_2  and  C_12
REMARK    2  A    between atoms: C_3  and  C_11
REMARK    3  A    between atoms: C_4  and  O_8
REMARK    4  A    between atoms: C_12  and  O_13
REMARK    5  A    between atoms: O_13  and  P_14
REMARK    6  A    between atoms: P_14  and  O_16
REMARK    7  A    between atoms: P_14  and  O_18
REMARK                            x       y       z     vdW  Elec       q    Type
REMARK                         _______ _______ _______ _____ _____    ______ ____
ROOT
ATOM      1  N   UNL     1      35.451 -22.654 -17.328  0.00  0.00    -0.245 NA
ATOM      2  C   UNL     1      35.620 -23.566 -15.096  0.00  0.00    +0.033 C 
ATOM      3  C   UNL     1      34.243 -23.764 -15.064  0.00  0.00    +0.077 C 
ATOM      4  C   UNL     1      33.471 -23.407 -16.164  0.00  0.00    +0.150 C 
ATOM      5  C   UNL     1      34.116 -22.862 -17.261  0.00  0.00    +0.093 C 
ATOM      6  C   UNL     1      36.170 -23.014 -16.242  0.00  0.00    +0.097 C 
ATOM      7  C   UNL     1      33.334 -22.460 -18.468  0.00  0.00    +0.055 C 
ENDROOT
BRANCH   4   8
ATOM      8  O   UNL     1      32.123 -23.587 -16.163  0.00  0.00    -0.504 OA
ATOM      9  H   UNL     1      31.552 -22.844 -16.181  0.00  0.00    +0.292 HD
ENDBRANCH   4   8
BRANCH   3  11
ATOM     10  O   UNL     1      32.708 -23.780 -13.265  0.00  0.00    -0.283 OA
ATOM     11  C   UNL     1      33.611 -24.343 -13.885  0.00  0.00    +0.237 C 
ENDBRANCH   3  11
BRANCH   2  12
ATOM     12  C   UNL     1      36.500 -23.929 -13.950  0.00  0.00    +0.182 C 
BRANCH  12  13
ATOM     13  O   UNL     1      37.551 -24.772 -14.407  0.00  0.00    -0.268 OA
BRANCH  13  14
ATOM     14  P   UNL     1      37.259 -26.356 -14.541  0.00  0.00    +0.473 P 
ATOM     15  O   UNL     1      36.326 -26.739 -15.651  0.00  0.00    -0.227 OA
BRANCH  14  16
ATOM     16  O   UNL     1      36.781 -26.786 -13.057  0.00  0.00    -0.303 OA
ATOM     17  H   UNL     1      35.929 -26.368 -12.858  0.00  0.00    +0.222 HD
ENDBRANCH  14  16
BRANCH  14  18
ATOM     18  O   UNL     1      38.745 -26.985 -14.650  0.00  0.00    -0.303 OA
ATOM     19  H   UNL     1      39.266 -26.718 -13.876  0.00  0.00    +0.222 HD
ENDBRANCH  14  18
ENDBRANCH  13  14
ENDBRANCH  12  13
ENDBRANCH   2  12
TORSDOF 7
ENDMDL
MODEL 7
REMARK VINA RESULT:      -7.0      2.665      4.134
REMARK  Name = 1051
REMARK  7 active torsions:
REMARK  status: ('A' for Active; 'I' for Inactive)
REMARK    1  A    between atoms: C_2  and  C_12
REMARK    2  A    between atoms: C_3  and  C_11
REMARK    3  A    between atoms: C_4  and  O_8
REMARK    4  A    between atoms: C_12  and  O_13
REMARK    5  A    between atoms: O_13  and  P_14
REMARK    6  A    between atoms: P_14  and  O_16
REMARK    7  A    between atoms: P_14  and  O_18
REMARK                            x       y       z     vdW  Elec       q    Type
REMARK                         _______ _______ _______ _____ _____    ______ ____
ROOT
ATOM      1  N   UNL     1      33.187 -24.136 -13.141  0.00  0.00    -0.245 NA
ATOM      2  C   UNL     1      34.826 -23.908 -14.902  0.00  0.00    +0.033 C 
ATOM      3  C   UNL     1      33.834 -23.486 -15.781  0.00  0.00    +0.077 C 
ATOM      4  C   UNL     1      32.519 -23.390 -15.341  0.00  0.00    +0.150 C 
ATOM      5  C   UNL     1      32.250 -23.722 -14.023  0.00  0.00    +0.093 C 
ATOM      6  C   UNL     1      34.454 -24.217 -13.604  0.00  0.00    +0.097 C 
ATOM      7  C   UNL     1      30.854 -23.637 -13.499  0.00  0.00    +0.055 C 
ENDROOT
BRANCH   4   8
ATOM      8  O   UNL     1      31.527 -22.982 -16.176  0.00  0.00    -0.504 OA
ATOM      9  H   UNL     1      30.702 -23.427 -16.174  0.00  0.00    +0.292 HD
ENDBRANCH   4   8
BRANCH   3  11
ATOM     10  O   UNL     1      33.683 -23.729 -18.129  0.00  0.00    -0.283 OA
ATOM     11  C   UNL     1      34.169 -23.147 -17.159  0.00  0.00    +0.237 C 
ENDBRANCH   3  11
BRANCH   2  12
ATOM     12  C   UNL     1      36.253 -24.031 -15.315  0.00  0.00    +0.182 C 
BRANCH  12  13
ATOM     13  O   UNL     1      36.950 -24.842 -14.377  0.00  0.00    -0.268 OA
BRANCH  13  14
ATOM     14  P   UNL     1      37.136 -26.412 -14.711  0.00  0.00    +0.473 P 
ATOM     15  O   UNL     1      36.415 -26.892 -15.936  0.00  0.00    -0.227 OA
BRANCH  14  16
ATOM     16  O   UNL     1      36.724 -27.150 -13.332  0.00  0.00    -0.303 OA
ATOM     17  H   UNL     1      35.912 -26.751 -12.982  0.00  0.00    +0.222 HD
ENDBRANCH  14  16
BRANCH  14  18
ATOM     18  O   UNL     1      38.744 -26.579 -14.756  0.00  0.00    -0.303 OA
ATOM     19  H   UNL     1      38.970 -27.408 -15.206  0.00  0.00    +0.222 HD
ENDBRANCH  14  18
ENDBRANCH  13  14
ENDBRANCH  12  13
ENDBRANCH   2  12
TORSDOF 7
ENDMDL
MODEL 8
REMARK VINA RESULT:      -7.0      3.108      4.560
REMARK  Name = 1051
REMARK  7 active torsions:
REMARK  status: ('A' for Active; 'I' for Inactive)
REMARK    1  A    between atoms: C_2  and  C_12
REMARK    2  A    between atoms: C_3  and  C_11
REMARK    3  A    between atoms: C_4  and  O_8
REMARK    4  A    between atoms: C_12  and  O_13
REMARK    5  A    between atoms: O_13  and  P_14
REMARK    6  A    between atoms: P_14  and  O_16
REMARK    7  A    between atoms: P_14  and  O_18
REMARK                            x       y       z     vdW  Elec       q    Type
REMARK                         _______ _______ _______ _____ _____    ______ ____
ROOT
ATOM      1  N   UNL     1      35.217 -23.251 -16.739  0.00  0.00    -0.245 NA
ATOM      2  C   UNL     1      34.095 -23.785 -14.665  0.00  0.00    +0.033 C 
ATOM      3  C   UNL     1      32.864 -23.508 -15.252  0.00  0.00    +0.077 C 
ATOM      4  C   UNL     1      32.810 -23.102 -16.580  0.00  0.00    +0.150 C 
ATOM      5  C   UNL     1      34.003 -22.991 -17.274  0.00  0.00    +0.093 C 
ATOM      6  C   UNL     1      35.232 -23.643 -15.445  0.00  0.00    +0.097 C 
ATOM      7  C   UNL     1      34.002 -22.559 -18.704  0.00  0.00    +0.055 C 
ENDROOT
BRANCH   4   8
ATOM      8  O   UNL     1      31.623 -22.823 -17.181  0.00  0.00    -0.504 OA
ATOM      9  H   UNL     1      30.913 -22.477 -16.677  0.00  0.00    +0.292 HD
ENDBRANCH   4   8
BRANCH   3  11
ATOM     10  O   UNL     1      30.821 -22.726 -14.353  0.00  0.00    -0.283 OA
ATOM     11  C   UNL     1      31.635 -23.641 -14.478  0.00  0.00    +0.237 C 
ENDBRANCH   3  11
BRANCH   2  12
ATOM     12  C   UNL     1      34.217 -24.223 -13.247  0.00  0.00    +0.182 C 
BRANCH  12  13
ATOM     13  O   UNL     1      35.423 -23.709 -12.694  0.00  0.00    -0.268 OA
BRANCH  13  14
ATOM     14  P   UNL     1      36.293 -24.666 -11.727  0.00  0.00    +0.473 P 
ATOM     15  O   UNL     1      37.576 -24.070 -11.227  0.00  0.00    -0.227 OA
BRANCH  14  16
ATOM     16  O   UNL     1      36.452 -26.032 -12.580  0.00  0.00    -0.303 OA
ATOM     17  H   UNL     1      37.373 -26.128 -12.867  0.00  0.00    +0.222 HD
ENDBRANCH  14  16
BRANCH  14  18
ATOM     18  O   UNL     1      35.233 -25.070 -10.574  0.00  0.00    -0.303 OA
ATOM     19  H   UNL     1      35.345 -26.006 -10.345  0.00  0.00    +0.222 HD
ENDBRANCH  14  18
ENDBRANCH  13  14
ENDBRANCH  12  13
ENDBRANCH   2  12
TORSDOF 7
ENDMDL
MODEL 9
REMARK VINA RESULT:      -6.9     11.457     12.922
REMARK  Name = 1051
REMARK  7 active torsions:
REMARK  status: ('A' for Active; 'I' for Inactive)
REMARK    1  A    between atoms: C_2  and  C_12
REMARK    2  A    between atoms: C_3  and  C_11
REMARK    3  A    between atoms: C_4  and  O_8
REMARK    4  A    between atoms: C_12  and  O_13
REMARK    5  A    between atoms: O_13  and  P_14
REMARK    6  A    between atoms: P_14  and  O_16
REMARK    7  A    between atoms: P_14  and  O_18
REMARK                            x       y       z     vdW  Elec       q    Type
REMARK                         _______ _______ _______ _____ _____    ______ ____
ROOT
ATOM      1  N   UNL     1      33.979 -16.549 -25.955  0.00  0.00    -0.245 NA
ATOM      2  C   UNL     1      34.973 -17.171 -23.841  0.00  0.00    +0.033 C 
ATOM      3  C   UNL     1      34.472 -16.014 -23.255  0.00  0.00    +0.077 C 
ATOM      4  C   UNL     1      33.725 -15.124 -24.018  0.00  0.00    +0.150 C 
ATOM      5  C   UNL     1      33.508 -15.434 -25.351  0.00  0.00    +0.093 C 
ATOM      6  C   UNL     1      34.700 -17.391 -25.182  0.00  0.00    +0.097 C 
ATOM      7  C   UNL     1      32.713 -14.512 -26.216  0.00  0.00    +0.055 C 
ENDROOT
BRANCH   4   8
ATOM      8  O   UNL     1      33.223 -13.983 -23.476  0.00  0.00    -0.504 OA
ATOM      9  H   UNL     1      33.779 -13.418 -22.976  0.00  0.00    +0.292 HD
ENDBRANCH   4   8
BRANCH   3  11
ATOM     10  O   UNL     1      33.892 -15.925 -20.965  0.00  0.00    -0.283 OA
ATOM     11  C   UNL     1      34.728 -15.732 -21.848  0.00  0.00    +0.237 C 
ENDBRANCH   3  11
BRANCH   2  12
ATOM     12  C   UNL     1      35.780 -18.163 -23.075  0.00  0.00    +0.182 C 
BRANCH  12  13
ATOM     13  O   UNL     1      34.946 -19.243 -22.672  0.00  0.00    -0.268 OA
BRANCH  13  14
ATOM     14  P   UNL     1      34.757 -19.516 -21.091  0.00  0.00    +0.473 P 
ATOM     15  O   UNL     1      34.946 -20.943 -20.665  0.00  0.00    -0.227 OA
BRANCH  14  16
ATOM     16  O   UNL     1      33.305 -18.884 -20.762  0.00  0.00    -0.303 OA
ATOM     17  H   UNL     1      32.632 -19.318 -21.308  0.00  0.00    +0.222 HD
ENDBRANCH  14  16
BRANCH  14  18
ATOM     18  O   UNL     1      35.783 -18.461 -20.421  0.00  0.00    -0.303 OA
ATOM     19  H   UNL     1      35.444 -18.188 -19.554  0.00  0.00    +0.222 HD
ENDBRANCH  14  18
ENDBRANCH  13  14
ENDBRANCH  12  13
ENDBRANCH   2  12
TORSDOF 7
ENDMDL
