MODEL 1
REMARK VINA RESULT:      -9.0      0.000      0.000
REMARK  Name = 11840992
REMARK  6 active torsions:
REMARK  status: ('A' for Active; 'I' for Inactive)
REMARK    1  A    between atoms: N_1  and  N_3
REMARK    2  A    between atoms: N_1  and  C_14
REMARK    3  A    between atoms: N_3  and  C_8
REMARK    4  A    between atoms: N_6  and  C_9
REMARK    5  A    between atoms: N_7  and  C_10
REMARK    6  A    between atoms: C_13  and  C_22
REMARK                            x       y       z     vdW  Elec       q    Type
REMARK                         _______ _______ _______ _____ _____    ______ ____
ROOT
ATOM      1  N   UNL     1      34.785 -18.820 -20.794  0.00  0.00    -0.261 N 
ATOM      2  H   UNL     1      34.287 -18.370 -20.073  0.00  0.00    +0.168 HD
ENDROOT
BRANCH   1   4
ATOM      3  C   UNL     1      34.545 -16.937 -22.328  0.00  0.00    +0.086 C 
ATOM      4  C   UNL     1      34.738 -18.301 -22.106  0.00  0.00    +0.063 C 
ATOM      5  C   UNL     1      34.500 -16.442 -23.631  0.00  0.00    +0.005 C 
ATOM      6  C   UNL     1      34.885 -19.169 -23.188  0.00  0.00    +0.016 C 
ATOM      7  C   UNL     1      34.647 -17.310 -24.713  0.00  0.00    +0.000 C 
ATOM      8  C   UNL     1      34.840 -18.673 -24.491  0.00  0.00    +0.001 C 
BRANCH   3  12
ATOM      9  F   UNL     1      33.118 -15.943 -20.685  0.00  0.00    -0.166 F 
ATOM     10  F   UNL     1      35.185 -16.275 -20.121  0.00  0.00    -0.166 F 
ATOM     11  F   UNL     1      34.687 -14.700 -21.534  0.00  0.00    -0.166 F 
ATOM     12  C   UNL     1      34.386 -15.984 -21.188  0.00  0.00    +0.420 C 
ENDBRANCH   3  12
ENDBRANCH   1   4
BRANCH   1  13
ATOM     13  N   UNL     1      35.504 -19.921 -20.521  0.00  0.00    -0.120 NA
BRANCH  13  16
ATOM     14  N   UNL     1      33.162 -22.215 -19.075  0.00  0.00    -0.133 NA
ATOM     15  N   UNL     1      34.248 -22.586 -18.499  0.00  0.00    -0.133 NA
ATOM     16  C   UNL     1      34.830 -20.823 -19.894  0.00  0.00    +0.207 C 
ATOM     17  C   UNL     1      33.408 -21.157 -19.935  0.00  0.00    +0.168 C 
ATOM     18  C   UNL     1      35.309 -21.808 -18.927  0.00  0.00    +0.168 C 
BRANCH  17  19
ATOM     19  N   UNL     1      32.521 -20.569 -20.654  0.00  0.00    -0.249 NA
ATOM     20  H   UNL     1      32.772 -19.799 -21.215  0.00  0.00    +0.171 HD
ENDBRANCH  17  19
BRANCH  18  21
ATOM     21  N   UNL     1      36.527 -21.927 -18.537  0.00  0.00    -0.249 NA
ATOM     22  H   UNL     1      36.737 -22.448 -17.728  0.00  0.00    +0.171 HD
ENDBRANCH  18  21
ENDBRANCH  13  16
ENDBRANCH   1  13
TORSDOF 6
ENDMDL
MODEL 2
REMARK VINA RESULT:      -8.9      0.722      1.935
REMARK  Name = 11840992
REMARK  6 active torsions:
REMARK  status: ('A' for Active; 'I' for Inactive)
REMARK    1  A    between atoms: N_1  and  N_3
REMARK    2  A    between atoms: N_1  and  C_14
REMARK    3  A    between atoms: N_3  and  C_8
REMARK    4  A    between atoms: N_6  and  C_9
REMARK    5  A    between atoms: N_7  and  C_10
REMARK    6  A    between atoms: C_13  and  C_22
REMARK                            x       y       z     vdW  Elec       q    Type
REMARK                         _______ _______ _______ _____ _____    ______ ____
ROOT
ATOM      1  N   UNL     1      34.298 -18.752 -21.037  0.00  0.00    -0.261 N 
ATOM      2  H   UNL     1      34.455 -18.242 -20.209  0.00  0.00    +0.168 HD
ENDROOT
BRANCH   1   4
ATOM      3  C   UNL     1      34.509 -16.735 -22.395  0.00  0.00    +0.086 C 
ATOM      4  C   UNL     1      34.482 -18.125 -22.289  0.00  0.00    +0.063 C 
ATOM      5  C   UNL     1      34.690 -16.133 -23.640  0.00  0.00    +0.005 C 
ATOM      6  C   UNL     1      34.635 -18.914 -23.429  0.00  0.00    +0.016 C 
ATOM      7  C   UNL     1      34.843 -16.922 -24.780  0.00  0.00    +0.000 C 
ATOM      8  C   UNL     1      34.816 -18.312 -24.675  0.00  0.00    +0.001 C 
BRANCH   3  12
ATOM      9  F   UNL     1      34.643 -14.553 -21.423  0.00  0.00    -0.166 F 
ATOM     10  F   UNL     1      33.081 -15.865 -20.685  0.00  0.00    -0.166 F 
ATOM     11  F   UNL     1      35.156 -16.246 -20.159  0.00  0.00    -0.166 F 
ATOM     12  C   UNL     1      34.349 -15.865 -21.190  0.00  0.00    +0.420 C 
ENDBRANCH   3  12
ENDBRANCH   1   4
BRANCH   1  13
ATOM     13  N   UNL     1      33.914 -20.036 -20.967  0.00  0.00    -0.120 NA
BRANCH  13  16
ATOM     14  N   UNL     1      36.320 -21.622 -18.837  0.00  0.00    -0.133 NA
ATOM     15  N   UNL     1      35.265 -22.294 -18.549  0.00  0.00    -0.133 NA
ATOM     16  C   UNL     1      34.616 -20.731 -20.139  0.00  0.00    +0.207 C 
ATOM     17  C   UNL     1      36.033 -20.655 -19.788  0.00  0.00    +0.168 C 
ATOM     18  C   UNL     1      34.186 -21.832 -19.281  0.00  0.00    +0.168 C 
BRANCH  17  19
ATOM     19  N   UNL     1      36.883 -19.826 -20.277  0.00  0.00    -0.249 NA
ATOM     20  H   UNL     1      37.538 -20.129 -20.947  0.00  0.00    +0.171 HD
ENDBRANCH  17  19
BRANCH  18  21
ATOM     21  N   UNL     1      32.990 -22.297 -19.222  0.00  0.00    -0.249 NA
ATOM     22  H   UNL     1      32.233 -21.752 -19.541  0.00  0.00    +0.171 HD
ENDBRANCH  18  21
ENDBRANCH  13  16
ENDBRANCH   1  13
TORSDOF 6
ENDMDL
MODEL 3
REMARK VINA RESULT:      -8.8      2.049      2.772
REMARK  Name = 11840992
REMARK  6 active torsions:
REMARK  status: ('A' for Active; 'I' for Inactive)
REMARK    1  A    between atoms: N_1  and  N_3
REMARK    2  A    between atoms: N_1  and  C_14
REMARK    3  A    between atoms: N_3  and  C_8
REMARK    4  A    between atoms: N_6  and  C_9
REMARK    5  A    between atoms: N_7  and  C_10
REMARK    6  A    between atoms: C_13  and  C_22
REMARK                            x       y       z     vdW  Elec       q    Type
REMARK                         _______ _______ _______ _____ _____    ______ ____
ROOT
ATOM      1  N   UNL     1      34.911 -18.965 -21.658  0.00  0.00    -0.261 N 
ATOM      2  H   UNL     1      34.652 -19.612 -22.354  0.00  0.00    +0.168 HD
ENDROOT
BRANCH   1   4
ATOM      3  C   UNL     1      34.730 -17.082 -23.201  0.00  0.00    +0.086 C 
ATOM      4  C   UNL     1      34.761 -17.581 -21.899  0.00  0.00    +0.063 C 
ATOM      5  C   UNL     1      34.584 -15.712 -23.420  0.00  0.00    +0.005 C 
ATOM      6  C   UNL     1      34.647 -16.710 -20.816  0.00  0.00    +0.016 C 
ATOM      7  C   UNL     1      34.470 -14.841 -22.337  0.00  0.00    +0.000 C 
ATOM      8  C   UNL     1      34.500 -15.340 -21.035  0.00  0.00    +0.001 C 
BRANCH   3  12
ATOM      9  F   UNL     1      35.870 -18.893 -24.272  0.00  0.00    -0.166 F 
ATOM     10  F   UNL     1      33.732 -18.743 -24.603  0.00  0.00    -0.166 F 
ATOM     11  F   UNL     1      35.077 -17.316 -25.542  0.00  0.00    -0.166 F 
ATOM     12  C   UNL     1      34.850 -17.992 -24.380  0.00  0.00    +0.420 C 
ENDBRANCH   3  12
ENDBRANCH   1   4
BRANCH   1  13
ATOM     13  N   UNL     1      35.401 -19.404 -20.488  0.00  0.00    -0.120 NA
BRANCH  13  16
ATOM     14  N   UNL     1      33.268 -22.122 -19.538  0.00  0.00    -0.133 NA
ATOM     15  N   UNL     1      34.390 -22.517 -19.053  0.00  0.00    -0.133 NA
ATOM     16  C   UNL     1      34.810 -20.466 -20.058  0.00  0.00    +0.207 C 
ATOM     17  C   UNL     1      33.417 -20.895 -20.163  0.00  0.00    +0.168 C 
ATOM     18  C   UNL     1      35.380 -21.587 -19.315  0.00  0.00    +0.168 C 
BRANCH  17  19
ATOM     19  N   UNL     1      32.474 -20.243 -20.744  0.00  0.00    -0.249 NA
ATOM     20  H   UNL     1      31.622 -20.087 -20.275  0.00  0.00    +0.171 HD
ENDBRANCH  17  19
BRANCH  18  21
ATOM     21  N   UNL     1      36.611 -21.688 -18.961  0.00  0.00    -0.249 NA
ATOM     22  H   UNL     1      37.045 -22.572 -18.934  0.00  0.00    +0.171 HD
ENDBRANCH  18  21
ENDBRANCH  13  16
ENDBRANCH   1  13
TORSDOF 6
ENDMDL
MODEL 4
REMARK VINA RESULT:      -8.8      6.284      8.221
REMARK  Name = 11840992
REMARK  6 active torsions:
REMARK  status: ('A' for Active; 'I' for Inactive)
REMARK    1  A    between atoms: N_1  and  N_3
REMARK    2  A    between atoms: N_1  and  C_14
REMARK    3  A    between atoms: N_3  and  C_8
REMARK    4  A    between atoms: N_6  and  C_9
REMARK    5  A    between atoms: N_7  and  C_10
REMARK    6  A    between atoms: C_13  and  C_22
REMARK                            x       y       z     vdW  Elec       q    Type
REMARK                         _______ _______ _______ _____ _____    ______ ____
ROOT
ATOM      1  N   UNL     1      36.339 -22.819 -14.958  0.00  0.00    -0.261 N 
ATOM      2  H   UNL     1      35.654 -22.784 -14.251  0.00  0.00    +0.168 HD
ENDROOT
BRANCH   1   4
ATOM      3  C   UNL     1      34.713 -22.839 -16.778  0.00  0.00    +0.086 C 
ATOM      4  C   UNL     1      35.983 -22.527 -16.293  0.00  0.00    +0.063 C 
ATOM      5  C   UNL     1      34.380 -22.544 -18.100  0.00  0.00    +0.005 C 
ATOM      6  C   UNL     1      36.920 -21.921 -17.131  0.00  0.00    +0.016 C 
ATOM      7  C   UNL     1      35.316 -21.939 -18.937  0.00  0.00    +0.000 C 
ATOM      8  C   UNL     1      36.586 -21.627 -18.453  0.00  0.00    +0.001 C 
BRANCH   3  12
ATOM      9  F   UNL     1      34.121 -24.646 -15.327  0.00  0.00    -0.166 F 
ATOM     10  F   UNL     1      33.286 -22.699 -14.864  0.00  0.00    -0.166 F 
ATOM     11  F   UNL     1      32.552 -23.813 -16.581  0.00  0.00    -0.166 F 
ATOM     12  C   UNL     1      33.690 -23.486 -15.903  0.00  0.00    +0.420 C 
ENDBRANCH   3  12
ENDBRANCH   1   4
BRANCH   1  13
ATOM     13  N   UNL     1      37.604 -23.143 -14.645  0.00  0.00    -0.120 NA
BRANCH  13  16
ATOM     14  N   UNL     1      38.009 -25.721 -12.189  0.00  0.00    -0.133 NA
ATOM     15  N   UNL     1      37.637 -26.414 -13.204  0.00  0.00    -0.133 NA
ATOM     16  C   UNL     1      37.690 -24.204 -13.918  0.00  0.00    +0.207 C 
ATOM     17  C   UNL     1      38.072 -24.377 -12.518  0.00  0.00    +0.168 C 
ATOM     18  C   UNL     1      37.420 -25.590 -14.295  0.00  0.00    +0.168 C 
BRANCH  17  19
ATOM     19  N   UNL     1      38.412 -23.435 -11.713  0.00  0.00    -0.249 NA
ATOM     20  H   UNL     1      38.342 -22.495 -11.997  0.00  0.00    +0.171 HD
ENDBRANCH  17  19
BRANCH  18  21
ATOM     21  N   UNL     1      37.042 -25.977 -15.459  0.00  0.00    -0.249 NA
ATOM     22  H   UNL     1      36.872 -26.933 -15.630  0.00  0.00    +0.171 HD
ENDBRANCH  18  21
ENDBRANCH  13  16
ENDBRANCH   1  13
TORSDOF 6
ENDMDL
MODEL 5
REMARK VINA RESULT:      -8.8      7.781      9.433
REMARK  Name = 11840992
REMARK  6 active torsions:
REMARK  status: ('A' for Active; 'I' for Inactive)
REMARK    1  A    between atoms: N_1  and  N_3
REMARK    2  A    between atoms: N_1  and  C_14
REMARK    3  A    between atoms: N_3  and  C_8
REMARK    4  A    between atoms: N_6  and  C_9
REMARK    5  A    between atoms: N_7  and  C_10
REMARK    6  A    between atoms: C_13  and  C_22
REMARK                            x       y       z     vdW  Elec       q    Type
REMARK                         _______ _______ _______ _____ _____    ______ ____
ROOT
ATOM      1  N   UNL     1      34.066 -23.929 -13.594  0.00  0.00    -0.261 N 
ATOM      2  H   UNL     1      33.589 -23.639 -12.783  0.00  0.00    +0.168 HD
ENDROOT
BRANCH   1   4
ATOM      3  C   UNL     1      32.163 -23.571 -15.080  0.00  0.00    +0.086 C 
ATOM      4  C   UNL     1      33.541 -23.609 -14.866  0.00  0.00    +0.063 C 
ATOM      5  C   UNL     1      31.662 -23.255 -16.344  0.00  0.00    +0.005 C 
ATOM      6  C   UNL     1      34.417 -23.333 -15.915  0.00  0.00    +0.016 C 
ATOM      7  C   UNL     1      32.539 -22.979 -17.392  0.00  0.00    +0.000 C 
ATOM      8  C   UNL     1      33.916 -23.018 -17.178  0.00  0.00    +0.001 C 
BRANCH   3  12
ATOM      9  F   UNL     1      31.315 -25.124 -13.470  0.00  0.00    -0.166 F 
ATOM     10  F   UNL     1      31.341 -23.032 -12.900  0.00  0.00    -0.166 F 
ATOM     11  F   UNL     1      29.900 -23.738 -14.367  0.00  0.00    -0.166 F 
ATOM     12  C   UNL     1      31.201 -23.861 -13.975  0.00  0.00    +0.420 C 
ENDBRANCH   3  12
ENDBRANCH   1   4
BRANCH   1  13
ATOM     13  N   UNL     1      35.209 -24.623 -13.484  0.00  0.00    -0.120 NA
BRANCH  13  16
ATOM     14  N   UNL     1      37.875 -22.835 -11.891  0.00  0.00    -0.133 NA
ATOM     15  N   UNL     1      37.253 -23.299 -10.868  0.00  0.00    -0.133 NA
ATOM     16  C   UNL     1      36.080 -24.048 -12.728  0.00  0.00    +0.207 C 
ATOM     17  C   UNL     1      37.246 -23.231 -13.060  0.00  0.00    +0.168 C 
ATOM     18  C   UNL     1      36.158 -24.043 -11.269  0.00  0.00    +0.168 C 
BRANCH  17  19
ATOM     19  N   UNL     1      37.631 -22.923 -14.246  0.00  0.00    -0.249 NA
ATOM     20  H   UNL     1      38.483 -23.275 -14.594  0.00  0.00    +0.171 HD
ENDBRANCH  17  19
BRANCH  18  21
ATOM     21  N   UNL     1      35.334 -24.641 -10.485  0.00  0.00    -0.249 NA
ATOM     22  H   UNL     1      34.925 -24.151  -9.734  0.00  0.00    +0.171 HD
ENDBRANCH  18  21
ENDBRANCH  13  16
ENDBRANCH   1  13
TORSDOF 6
ENDMDL
MODEL 6
REMARK VINA RESULT:      -8.8      7.785      9.451
REMARK  Name = 11840992
REMARK  6 active torsions:
REMARK  status: ('A' for Active; 'I' for Inactive)
REMARK    1  A    between atoms: N_1  and  N_3
REMARK    2  A    between atoms: N_1  and  C_14
REMARK    3  A    between atoms: N_3  and  C_8
REMARK    4  A    between atoms: N_6  and  C_9
REMARK    5  A    between atoms: N_7  and  C_10
REMARK    6  A    between atoms: C_13  and  C_22
REMARK                            x       y       z     vdW  Elec       q    Type
REMARK                         _______ _______ _______ _____ _____    ______ ____
ROOT
ATOM      1  N   UNL     1      34.104 -23.962 -13.604  0.00  0.00    -0.261 N 
ATOM      2  H   UNL     1      33.606 -23.698 -12.797  0.00  0.00    +0.168 HD
ENDROOT
BRANCH   1   4
ATOM      3  C   UNL     1      32.216 -23.583 -15.105  0.00  0.00    +0.086 C 
ATOM      4  C   UNL     1      33.592 -23.639 -14.880  0.00  0.00    +0.063 C 
ATOM      5  C   UNL     1      31.728 -23.263 -16.372  0.00  0.00    +0.005 C 
ATOM      6  C   UNL     1      34.479 -23.376 -15.924  0.00  0.00    +0.016 C 
ATOM      7  C   UNL     1      32.616 -23.000 -17.415  0.00  0.00    +0.000 C 
ATOM      8  C   UNL     1      33.991 -23.056 -17.191  0.00  0.00    +0.001 C 
BRANCH   3  12
ATOM      9  F   UNL     1      31.367 -25.107 -13.468  0.00  0.00    -0.166 F 
ATOM     10  F   UNL     1      31.357 -23.001 -12.950  0.00  0.00    -0.166 F 
ATOM     11  F   UNL     1      29.946 -23.763 -14.418  0.00  0.00    -0.166 F 
ATOM     12  C   UNL     1      31.243 -23.859 -14.005  0.00  0.00    +0.420 C 
ENDBRANCH   3  12
ENDBRANCH   1   4
BRANCH   1  13
ATOM     13  N   UNL     1      35.264 -24.627 -13.484  0.00  0.00    -0.120 NA
BRANCH  13  16
ATOM     14  N   UNL     1      37.210 -23.317 -10.775  0.00  0.00    -0.133 NA
ATOM     15  N   UNL     1      37.853 -22.845 -11.781  0.00  0.00    -0.133 NA
ATOM     16  C   UNL     1      36.085 -24.067 -12.663  0.00  0.00    +0.207 C 
ATOM     17  C   UNL     1      36.126 -24.068 -11.202  0.00  0.00    +0.168 C 
ATOM     18  C   UNL     1      37.253 -23.242 -12.963  0.00  0.00    +0.168 C 
BRANCH  17  19
ATOM     19  N   UNL     1      35.295 -24.669 -10.429  0.00  0.00    -0.249 NA
ATOM     20  H   UNL     1      35.626 -25.216  -9.680  0.00  0.00    +0.171 HD
ENDBRANCH  17  19
BRANCH  18  21
ATOM     21  N   UNL     1      37.654 -22.934 -14.144  0.00  0.00    -0.249 NA
ATOM     22  H   UNL     1      37.656 -23.614 -14.857  0.00  0.00    +0.171 HD
ENDBRANCH  18  21
ENDBRANCH  13  16
ENDBRANCH   1  13
TORSDOF 6
ENDMDL
MODEL 7
REMARK VINA RESULT:      -8.7      4.911      7.232
REMARK  Name = 11840992
REMARK  6 active torsions:
REMARK  status: ('A' for Active; 'I' for Inactive)
REMARK    1  A    between atoms: N_1  and  N_3
REMARK    2  A    between atoms: N_1  and  C_14
REMARK    3  A    between atoms: N_3  and  C_8
REMARK    4  A    between atoms: N_6  and  C_9
REMARK    5  A    between atoms: N_7  and  C_10
REMARK    6  A    between atoms: C_13  and  C_22
REMARK                            x       y       z     vdW  Elec       q    Type
REMARK                         _______ _______ _______ _____ _____    ______ ____
ROOT
ATOM      1  N   UNL     1      32.400 -13.458 -23.312  0.00  0.00    -0.261 N 
ATOM      2  H   UNL     1      31.665 -13.917 -23.778  0.00  0.00    +0.168 HD
ENDROOT
BRANCH   1   4
ATOM      3  C   UNL     1      32.245 -13.093 -20.904  0.00  0.00    +0.086 C 
ATOM      4  C   UNL     1      32.116 -12.621 -22.210  0.00  0.00    +0.063 C 
ATOM      5  C   UNL     1      31.958 -12.254 -19.827  0.00  0.00    +0.005 C 
ATOM      6  C   UNL     1      31.700 -11.310 -22.439  0.00  0.00    +0.016 C 
ATOM      7  C   UNL     1      31.542 -10.943 -20.057  0.00  0.00    +0.000 C 
ATOM      8  C   UNL     1      31.413 -10.471 -21.362  0.00  0.00    +0.001 C 
BRANCH   3  12
ATOM      9  F   UNL     1      32.363 -14.933 -19.379  0.00  0.00    -0.166 F 
ATOM     10  F   UNL     1      32.154 -15.412 -21.484  0.00  0.00    -0.166 F 
ATOM     11  F   UNL     1      34.042 -14.642 -20.730  0.00  0.00    -0.166 F 
ATOM     12  C   UNL     1      32.690 -14.493 -20.629  0.00  0.00    +0.420 C 
ENDBRANCH   3  12
ENDBRANCH   1   4
BRANCH   1  13
ATOM     13  N   UNL     1      33.665 -13.631 -23.728  0.00  0.00    -0.120 NA
BRANCH  13  16
ATOM     14  N   UNL     1      34.478 -16.748 -25.299  0.00  0.00    -0.133 NA
ATOM     15  N   UNL     1      33.640 -16.265 -26.144  0.00  0.00    -0.133 NA
ATOM     16  C   UNL     1      33.821 -14.690 -24.446  0.00  0.00    +0.207 C 
ATOM     17  C   UNL     1      34.655 -15.873 -24.239  0.00  0.00    +0.168 C 
ATOM     18  C   UNL     1      33.188 -15.028 -25.719  0.00  0.00    +0.168 C 
BRANCH  17  19
ATOM     19  N   UNL     1      35.430 -16.076 -23.236  0.00  0.00    -0.249 NA
ATOM     20  H   UNL     1      35.377 -16.923 -22.736  0.00  0.00    +0.171 HD
ENDBRANCH  17  19
BRANCH  18  21
ATOM     21  N   UNL     1      32.345 -14.287 -26.342  0.00  0.00    -0.249 NA
ATOM     22  H   UNL     1      31.853 -13.584 -25.857  0.00  0.00    +0.171 HD
ENDBRANCH  18  21
ENDBRANCH  13  16
ENDBRANCH   1  13
TORSDOF 6
ENDMDL
MODEL 8
REMARK VINA RESULT:      -8.7      6.662      8.581
REMARK  Name = 11840992
REMARK  6 active torsions:
REMARK  status: ('A' for Active; 'I' for Inactive)
REMARK    1  A    between atoms: N_1  and  N_3
REMARK    2  A    between atoms: N_1  and  C_14
REMARK    3  A    between atoms: N_3  and  C_8
REMARK    4  A    between atoms: N_6  and  C_9
REMARK    5  A    between atoms: N_7  and  C_10
REMARK    6  A    between atoms: C_13  and  C_22
REMARK                            x       y       z     vdW  Elec       q    Type
REMARK                         _______ _______ _______ _____ _____    ______ ____
ROOT
ATOM      1  N   UNL     1      37.162 -22.797 -14.893  0.00  0.00    -0.261 N 
ATOM      2  H   UNL     1      37.054 -22.164 -14.147  0.00  0.00    +0.168 HD
ENDROOT
BRANCH   1   4
ATOM      3  C   UNL     1      35.199 -23.026 -16.325  0.00  0.00    +0.086 C 
ATOM      4  C   UNL     1      36.497 -22.560 -16.116  0.00  0.00    +0.063 C 
ATOM      5  C   UNL     1      34.558 -22.784 -17.540  0.00  0.00    +0.005 C 
ATOM      6  C   UNL     1      37.154 -21.853 -17.123  0.00  0.00    +0.016 C 
ATOM      7  C   UNL     1      35.215 -22.077 -18.546  0.00  0.00    +0.000 C 
ATOM      8  C   UNL     1      36.512 -21.611 -18.338  0.00  0.00    +0.001 C 
BRANCH   3  12
ATOM      9  F   UNL     1      33.123 -23.851 -15.468  0.00  0.00    -0.166 F 
ATOM     10  F   UNL     1      34.879 -25.083 -15.147  0.00  0.00    -0.166 F 
ATOM     11  F   UNL     1      34.630 -23.237 -14.025  0.00  0.00    -0.166 F 
ATOM     12  C   UNL     1      34.471 -23.785 -15.264  0.00  0.00    +0.420 C 
ENDBRANCH   3  12
ENDBRANCH   1   4
BRANCH   1  13
ATOM     13  N   UNL     1      37.943 -23.879 -14.741  0.00  0.00    -0.120 NA
BRANCH  13  16
ATOM     14  N   UNL     1      37.429 -26.016 -11.910  0.00  0.00    -0.133 NA
ATOM     15  N   UNL     1      37.555 -24.876 -11.331  0.00  0.00    -0.133 NA
ATOM     16  C   UNL     1      37.776 -24.469 -13.606  0.00  0.00    +0.207 C 
ATOM     17  C   UNL     1      37.546 -25.875 -13.283  0.00  0.00    +0.168 C 
ATOM     18  C   UNL     1      37.767 -23.881 -12.269  0.00  0.00    +0.168 C 
BRANCH  17  19
ATOM     19  N   UNL     1      37.467 -26.836 -14.132  0.00  0.00    -0.249 NA
ATOM     20  H   UNL     1      36.839 -26.774 -14.888  0.00  0.00    +0.171 HD
ENDBRANCH  17  19
BRANCH  18  21
ATOM     21  N   UNL     1      37.930 -22.634 -12.010  0.00  0.00    -0.249 NA
ATOM     22  H   UNL     1      37.605 -21.953 -12.643  0.00  0.00    +0.171 HD
ENDBRANCH  18  21
ENDBRANCH  13  16
ENDBRANCH   1  13
TORSDOF 6
ENDMDL
MODEL 9
REMARK VINA RESULT:      -8.7      4.916      7.021
REMARK  Name = 11840992
REMARK  6 active torsions:
REMARK  status: ('A' for Active; 'I' for Inactive)
REMARK    1  A    between atoms: N_1  and  N_3
REMARK    2  A    between atoms: N_1  and  C_14
REMARK    3  A    between atoms: N_3  and  C_8
REMARK    4  A    between atoms: N_6  and  C_9
REMARK    5  A    between atoms: N_7  and  C_10
REMARK    6  A    between atoms: C_13  and  C_22
REMARK                            x       y       z     vdW  Elec       q    Type
REMARK                         _______ _______ _______ _____ _____    ______ ____
ROOT
ATOM      1  N   UNL     1      32.404 -13.477 -23.297  0.00  0.00    -0.261 N 
ATOM      2  H   UNL     1      31.666 -13.920 -23.776  0.00  0.00    +0.168 HD
ENDROOT
BRANCH   1   4
ATOM      3  C   UNL     1      32.236 -13.108 -20.891  0.00  0.00    +0.086 C 
ATOM      4  C   UNL     1      32.120 -12.637 -22.199  0.00  0.00    +0.063 C 
ATOM      5  C   UNL     1      31.950 -12.265 -19.817  0.00  0.00    +0.005 C 
ATOM      6  C   UNL     1      31.718 -11.322 -22.432  0.00  0.00    +0.016 C 
ATOM      7  C   UNL     1      31.548 -10.950 -20.051  0.00  0.00    +0.000 C 
ATOM      8  C   UNL     1      31.432 -10.479 -21.358  0.00  0.00    +0.001 C 
BRANCH   3  12
ATOM      9  F   UNL     1      32.117 -15.429 -21.458  0.00  0.00    -0.166 F 
ATOM     10  F   UNL     1      34.015 -14.696 -20.708  0.00  0.00    -0.166 F 
ATOM     11  F   UNL     1      32.329 -14.922 -19.355  0.00  0.00    -0.166 F 
ATOM     12  C   UNL     1      32.666 -14.511 -20.611  0.00  0.00    +0.420 C 
ENDBRANCH   3  12
ENDBRANCH   1   4
BRANCH   1  13
ATOM     13  N   UNL     1      33.671 -13.678 -23.693  0.00  0.00    -0.120 NA
BRANCH  13  16
ATOM     14  N   UNL     1      33.651 -16.275 -26.162  0.00  0.00    -0.133 NA
ATOM     15  N   UNL     1      34.497 -16.751 -25.321  0.00  0.00    -0.133 NA
ATOM     16  C   UNL     1      33.807 -14.710 -24.454  0.00  0.00    +0.207 C 
ATOM     17  C   UNL     1      33.177 -15.047 -25.729  0.00  0.00    +0.168 C 
ATOM     18  C   UNL     1      34.658 -15.880 -24.258  0.00  0.00    +0.168 C 
BRANCH  17  19
ATOM     19  N   UNL     1      32.320 -14.324 -26.356  0.00  0.00    -0.249 NA
ATOM     20  H   UNL     1      32.399 -13.343 -26.341  0.00  0.00    +0.171 HD
ENDBRANCH  17  19
BRANCH  18  21
ATOM     21  N   UNL     1      35.434 -16.067 -23.251  0.00  0.00    -0.249 NA
ATOM     22  H   UNL     1      35.934 -15.310 -22.867  0.00  0.00    +0.171 HD
ENDBRANCH  18  21
ENDBRANCH  13  16
ENDBRANCH   1  13
TORSDOF 6
ENDMDL
