MODEL 1
REMARK VINA RESULT:      -7.4      0.000      0.000
REMARK  Name = 54708743
REMARK  3 active torsions:
REMARK  status: ('A' for Active; 'I' for Inactive)
REMARK    1  A    between atoms: C_2  and  C_9
REMARK    2  A    between atoms: C_10  and  C_12
REMARK    3  A    between atoms: C_12  and  O_13
REMARK                            x       y       z     vdW  Elec       q    Type
REMARK                         _______ _______ _______ _____ _____    ______ ____
ROOT
ATOM      1  O   UNL     1      33.760 -22.173 -18.651  0.00  0.00    -0.287 OA
ATOM      2  C   UNL     1      34.869 -19.402 -21.420  0.00  0.00    +0.003 C 
ATOM      3  C   UNL     1      33.517 -19.669 -21.202  0.00  0.00    +0.003 C 
ATOM      4  C   UNL     1      35.840 -20.085 -20.689  0.00  0.00    +0.003 C 
ATOM      5  C   UNL     1      33.137 -20.617 -20.253  0.00  0.00    +0.042 C 
ATOM      6  C   UNL     1      35.461 -21.035 -19.740  0.00  0.00    +0.042 C 
ATOM      7  C   UNL     1      34.109 -21.301 -19.523  0.00  0.00    +0.196 C 
ENDROOT
BRANCH   2   9
ATOM      8  F   UNL     1      35.505 -16.226 -23.254  0.00  0.00    -0.197 F 
ATOM      9  C   UNL     1      35.266 -18.414 -22.410  0.00  0.00    +0.036 C 
ATOM     10  C   UNL     1      35.131 -17.079 -22.278  0.00  0.00    +0.215 C 
BRANCH  10  12
ATOM     11  O   UNL     1      35.150 -16.237 -20.038  0.00  0.00    -0.243 OA
ATOM     12  C   UNL     1      34.545 -16.455 -21.077  0.00  0.00    +0.366 C 
BRANCH  12  13
ATOM     13  O   UNL     1      33.240 -16.148 -21.270  0.00  0.00    -0.476 OA
ATOM     14  H   UNL     1      32.979 -15.666 -22.030  0.00  0.00    +0.295 HD
ENDBRANCH  12  13
ENDBRANCH  10  12
ENDBRANCH   2   9
TORSDOF 3
ENDMDL
MODEL 2
REMARK VINA RESULT:      -7.3      0.040      1.341
REMARK  Name = 54708743
REMARK  3 active torsions:
REMARK  status: ('A' for Active; 'I' for Inactive)
REMARK    1  A    between atoms: C_2  and  C_9
REMARK    2  A    between atoms: C_10  and  C_12
REMARK    3  A    between atoms: C_12  and  O_13
REMARK                            x       y       z     vdW  Elec       q    Type
REMARK                         _______ _______ _______ _____ _____    ______ ____
ROOT
ATOM      1  O   UNL     1      33.750 -22.168 -18.666  0.00  0.00    -0.287 OA
ATOM      2  C   UNL     1      34.830 -19.392 -21.439  0.00  0.00    +0.003 C 
ATOM      3  C   UNL     1      35.809 -20.082 -20.724  0.00  0.00    +0.003 C 
ATOM      4  C   UNL     1      33.481 -19.653 -21.203  0.00  0.00    +0.003 C 
ATOM      5  C   UNL     1      35.440 -21.033 -19.775  0.00  0.00    +0.042 C 
ATOM      6  C   UNL     1      33.110 -20.605 -20.252  0.00  0.00    +0.042 C 
ATOM      7  C   UNL     1      34.089 -21.294 -19.538  0.00  0.00    +0.196 C 
ENDROOT
BRANCH   2   9
ATOM      8  F   UNL     1      35.452 -16.206 -23.261  0.00  0.00    -0.197 F 
ATOM      9  C   UNL     1      35.215 -18.398 -22.429  0.00  0.00    +0.036 C 
ATOM     10  C   UNL     1      35.092 -17.064 -22.284  0.00  0.00    +0.215 C 
BRANCH  10  12
ATOM     11  O   UNL     1      35.166 -16.220 -20.046  0.00  0.00    -0.243 OA
ATOM     12  C   UNL     1      34.535 -16.445 -21.068  0.00  0.00    +0.366 C 
BRANCH  12  13
ATOM     13  O   UNL     1      33.220 -16.152 -21.223  0.00  0.00    -0.476 OA
ATOM     14  H   UNL     1      32.836 -16.160 -22.077  0.00  0.00    +0.295 HD
ENDBRANCH  12  13
ENDBRANCH  10  12
ENDBRANCH   2   9
TORSDOF 3
ENDMDL
MODEL 3
REMARK VINA RESULT:      -7.1      2.662      4.921
REMARK  Name = 54708743
REMARK  3 active torsions:
REMARK  status: ('A' for Active; 'I' for Inactive)
REMARK    1  A    between atoms: C_2  and  C_9
REMARK    2  A    between atoms: C_10  and  C_12
REMARK    3  A    between atoms: C_12  and  O_13
REMARK                            x       y       z     vdW  Elec       q    Type
REMARK                         _______ _______ _______ _____ _____    ______ ____
ROOT
ATOM      1  O   UNL     1      34.224 -16.409 -25.881  0.00  0.00    -0.287 OA
ATOM      2  C   UNL     1      35.218 -18.699 -22.666  0.00  0.00    +0.003 C 
ATOM      3  C   UNL     1      34.789 -19.304 -23.847  0.00  0.00    +0.003 C 
ATOM      4  C   UNL     1      35.307 -17.310 -22.587  0.00  0.00    +0.003 C 
ATOM      5  C   UNL     1      34.448 -18.520 -24.949  0.00  0.00    +0.042 C 
ATOM      6  C   UNL     1      34.966 -16.525 -23.689  0.00  0.00    +0.042 C 
ATOM      7  C   UNL     1      34.536 -17.130 -24.869  0.00  0.00    +0.196 C 
ENDROOT
BRANCH   2   9
ATOM      8  F   UNL     1      35.113 -20.736 -19.552  0.00  0.00    -0.197 F 
ATOM      9  C   UNL     1      35.572 -19.516 -21.516  0.00  0.00    +0.036 C 
ATOM     10  C   UNL     1      34.703 -20.002 -20.607  0.00  0.00    +0.215 C 
BRANCH  10  12
ATOM     11  O   UNL     1      32.739 -18.643 -20.761  0.00  0.00    -0.243 OA
ATOM     12  C   UNL     1      33.253 -19.749 -20.680  0.00  0.00    +0.366 C 
BRANCH  12  13
ATOM     13  O   UNL     1      32.550 -20.907 -20.648  0.00  0.00    -0.476 OA
ATOM     14  H   UNL     1      32.983 -21.713 -20.445  0.00  0.00    +0.295 HD
ENDBRANCH  12  13
ENDBRANCH  10  12
ENDBRANCH   2   9
TORSDOF 3
ENDMDL
MODEL 4
REMARK VINA RESULT:      -6.9      1.993      2.186
REMARK  Name = 54708743
REMARK  3 active torsions:
REMARK  status: ('A' for Active; 'I' for Inactive)
REMARK    1  A    between atoms: C_2  and  C_9
REMARK    2  A    between atoms: C_10  and  C_12
REMARK    3  A    between atoms: C_12  and  O_13
REMARK                            x       y       z     vdW  Elec       q    Type
REMARK                         _______ _______ _______ _____ _____    ______ ____
ROOT
ATOM      1  O   UNL     1      33.172 -22.304 -19.360  0.00  0.00    -0.287 OA
ATOM      2  C   UNL     1      34.605 -18.899 -21.068  0.00  0.00    +0.003 C 
ATOM      3  C   UNL     1      33.230 -19.089 -20.938  0.00  0.00    +0.003 C 
ATOM      4  C   UNL     1      35.490 -19.877 -20.613  0.00  0.00    +0.003 C 
ATOM      5  C   UNL     1      32.738 -20.254 -20.353  0.00  0.00    +0.042 C 
ATOM      6  C   UNL     1      34.998 -21.044 -20.027  0.00  0.00    +0.042 C 
ATOM      7  C   UNL     1      33.623 -21.233 -19.898  0.00  0.00    +0.196 C 
ENDROOT
BRANCH   2   9
ATOM      8  F   UNL     1      35.723 -16.309 -23.497  0.00  0.00    -0.197 F 
ATOM      9  C   UNL     1      35.119 -17.684 -21.680  0.00  0.00    +0.036 C 
ATOM     10  C   UNL     1      35.214 -17.457 -23.006  0.00  0.00    +0.215 C 
BRANCH  10  12
ATOM     11  O   UNL     1      35.067 -19.639 -23.977  0.00  0.00    -0.243 OA
ATOM     12  C   UNL     1      34.795 -18.449 -24.013  0.00  0.00    +0.366 C 
BRANCH  12  13
ATOM     13  O   UNL     1      34.060 -17.872 -24.994  0.00  0.00    -0.476 OA
ATOM     14  H   UNL     1      33.245 -17.458 -24.788  0.00  0.00    +0.295 HD
ENDBRANCH  12  13
ENDBRANCH  10  12
ENDBRANCH   2   9
TORSDOF 3
ENDMDL
MODEL 5
REMARK VINA RESULT:      -6.5      6.507      9.193
REMARK  Name = 54708743
REMARK  3 active torsions:
REMARK  status: ('A' for Active; 'I' for Inactive)
REMARK    1  A    between atoms: C_2  and  C_9
REMARK    2  A    between atoms: C_10  and  C_12
REMARK    3  A    between atoms: C_12  and  O_13
REMARK                            x       y       z     vdW  Elec       q    Type
REMARK                         _______ _______ _______ _____ _____    ______ ____
ROOT
ATOM      1  O   UNL     1      35.946 -21.285 -18.648  0.00  0.00    -0.287 OA
ATOM      2  C   UNL     1      36.258 -23.473 -15.230  0.00  0.00    +0.003 C 
ATOM      3  C   UNL     1      37.358 -22.761 -15.706  0.00  0.00    +0.003 C 
ATOM      4  C   UNL     1      35.050 -23.436 -15.927  0.00  0.00    +0.003 C 
ATOM      5  C   UNL     1      37.252 -22.011 -16.875  0.00  0.00    +0.042 C 
ATOM      6  C   UNL     1      34.943 -22.686 -17.098  0.00  0.00    +0.042 C 
ATOM      7  C   UNL     1      36.044 -21.974 -17.573  0.00  0.00    +0.196 C 
ENDROOT
BRANCH   2   9
ATOM      8  F   UNL     1      36.812 -26.213 -12.772  0.00  0.00    -0.197 F 
ATOM      9  C   UNL     1      36.368 -24.257 -14.010  0.00  0.00    +0.036 C 
ATOM     10  C   UNL     1      36.755 -25.547 -13.944  0.00  0.00    +0.215 C 
BRANCH  10  12
ATOM     11  O   UNL     1      36.331 -26.941 -15.842  0.00  0.00    -0.243 OA
ATOM     12  C   UNL     1      37.121 -26.329 -15.138  0.00  0.00    +0.366 C 
BRANCH  12  13
ATOM     13  O   UNL     1      38.456 -26.286 -15.365  0.00  0.00    -0.476 OA
ATOM     14  H   UNL     1      38.963 -25.566 -15.044  0.00  0.00    +0.295 HD
ENDBRANCH  12  13
ENDBRANCH  10  12
ENDBRANCH   2   9
TORSDOF 3
ENDMDL
MODEL 6
REMARK VINA RESULT:      -6.5      2.648      4.986
REMARK  Name = 54708743
REMARK  3 active torsions:
REMARK  status: ('A' for Active; 'I' for Inactive)
REMARK    1  A    between atoms: C_2  and  C_9
REMARK    2  A    between atoms: C_10  and  C_12
REMARK    3  A    between atoms: C_12  and  O_13
REMARK                            x       y       z     vdW  Elec       q    Type
REMARK                         _______ _______ _______ _____ _____    ______ ____
ROOT
ATOM      1  O   UNL     1      35.314 -15.546 -23.646  0.00  0.00    -0.287 OA
ATOM      2  C   UNL     1      34.195 -18.824 -21.509  0.00  0.00    +0.003 C 
ATOM      3  C   UNL     1      34.718 -18.974 -22.793  0.00  0.00    +0.003 C 
ATOM      4  C   UNL     1      34.055 -17.551 -20.957  0.00  0.00    +0.003 C 
ATOM      5  C   UNL     1      35.101 -17.851 -23.525  0.00  0.00    +0.042 C 
ATOM      6  C   UNL     1      34.439 -16.427 -21.689  0.00  0.00    +0.042 C 
ATOM      7  C   UNL     1      34.961 -16.577 -22.973  0.00  0.00    +0.196 C 
ENDROOT
BRANCH   2   9
ATOM      8  F   UNL     1      34.179 -21.891 -19.398  0.00  0.00    -0.197 F 
ATOM      9  C   UNL     1      33.793 -19.995 -20.744  0.00  0.00    +0.036 C 
ATOM     10  C   UNL     1      34.628 -20.808 -20.067  0.00  0.00    +0.215 C 
BRANCH  10  12
ATOM     11  O   UNL     1      36.629 -19.513 -19.858  0.00  0.00    -0.243 OA
ATOM     12  C   UNL     1      36.086 -20.595 -20.026  0.00  0.00    +0.366 C 
BRANCH  12  13
ATOM     13  O   UNL     1      36.758 -21.759 -20.198  0.00  0.00    -0.476 OA
ATOM     14  H   UNL     1      37.196 -22.159 -19.473  0.00  0.00    +0.295 HD
ENDBRANCH  12  13
ENDBRANCH  10  12
ENDBRANCH   2   9
TORSDOF 3
ENDMDL
MODEL 7
REMARK VINA RESULT:      -6.5      1.812      2.651
REMARK  Name = 54708743
REMARK  3 active torsions:
REMARK  status: ('A' for Active; 'I' for Inactive)
REMARK    1  A    between atoms: C_2  and  C_9
REMARK    2  A    between atoms: C_10  and  C_12
REMARK    3  A    between atoms: C_12  and  O_13
REMARK                            x       y       z     vdW  Elec       q    Type
REMARK                         _______ _______ _______ _____ _____    ______ ____
ROOT
ATOM      1  O   UNL     1      36.195 -20.457 -19.490  0.00  0.00    -0.287 OA
ATOM      2  C   UNL     1      35.166 -18.473 -22.892  0.00  0.00    +0.003 C 
ATOM      3  C   UNL     1      36.442 -18.317 -22.352  0.00  0.00    +0.003 C 
ATOM      4  C   UNL     1      34.242 -19.309 -22.266  0.00  0.00    +0.003 C 
ATOM      5  C   UNL     1      36.796 -18.996 -21.187  0.00  0.00    +0.042 C 
ATOM      6  C   UNL     1      34.595 -19.989 -21.100  0.00  0.00    +0.042 C 
ATOM      7  C   UNL     1      35.871 -19.832 -20.560  0.00  0.00    +0.196 C 
ENDROOT
BRANCH   2   9
ATOM      8  F   UNL     1      34.013 -15.908 -25.330  0.00  0.00    -0.197 F 
ATOM      9  C   UNL     1      34.796 -17.763 -24.106  0.00  0.00    +0.036 C 
ATOM     10  C   UNL     1      34.358 -16.490 -24.163  0.00  0.00    +0.215 C 
BRANCH  10  12
ATOM     11  O   UNL     1      33.499 -15.931 -22.001  0.00  0.00    -0.243 OA
ATOM     12  C   UNL     1      34.199 -15.650 -22.962  0.00  0.00    +0.366 C 
BRANCH  12  13
ATOM     13  O   UNL     1      34.933 -14.515 -23.056  0.00  0.00    -0.476 OA
ATOM     14  H   UNL     1      35.063 -14.108 -23.889  0.00  0.00    +0.295 HD
ENDBRANCH  12  13
ENDBRANCH  10  12
ENDBRANCH   2   9
TORSDOF 3
ENDMDL
MODEL 8
REMARK VINA RESULT:      -6.5      2.707      5.280
REMARK  Name = 54708743
REMARK  3 active torsions:
REMARK  status: ('A' for Active; 'I' for Inactive)
REMARK    1  A    between atoms: C_2  and  C_9
REMARK    2  A    between atoms: C_10  and  C_12
REMARK    3  A    between atoms: C_12  and  O_13
REMARK                            x       y       z     vdW  Elec       q    Type
REMARK                         _______ _______ _______ _____ _____    ______ ____
ROOT
ATOM      1  O   UNL     1      32.315 -13.549 -23.417  0.00  0.00    -0.287 OA
ATOM      2  C   UNL     1      34.613 -16.375 -21.599  0.00  0.00    +0.003 C 
ATOM      3  C   UNL     1      33.492 -15.863 -20.947  0.00  0.00    +0.003 C 
ATOM      4  C   UNL     1      34.947 -15.919 -22.874  0.00  0.00    +0.003 C 
ATOM      5  C   UNL     1      32.704 -14.895 -21.569  0.00  0.00    +0.042 C 
ATOM      6  C   UNL     1      34.160 -14.950 -23.497  0.00  0.00    +0.042 C 
ATOM      7  C   UNL     1      33.039 -14.438 -22.845  0.00  0.00    +0.196 C 
ENDROOT
BRANCH   2   9
ATOM      8  F   UNL     1      36.128 -19.589 -20.489  0.00  0.00    -0.197 F 
ATOM      9  C   UNL     1      35.436 -17.384 -20.950  0.00  0.00    +0.036 C 
ATOM     10  C   UNL     1      35.341 -18.713 -21.148  0.00  0.00    +0.215 C 
BRANCH  10  12
ATOM     11  O   UNL     1      34.506 -19.402 -23.282  0.00  0.00    -0.243 OA
ATOM     12  C   UNL     1      34.360 -19.311 -22.072  0.00  0.00    +0.366 C 
BRANCH  12  13
ATOM     13  O   UNL     1      33.265 -19.754 -21.408  0.00  0.00    -0.476 OA
ATOM     14  H   UNL     1      32.417 -19.677 -21.798  0.00  0.00    +0.295 HD
ENDBRANCH  12  13
ENDBRANCH  10  12
ENDBRANCH   2   9
TORSDOF 3
ENDMDL
MODEL 9
REMARK VINA RESULT:      -6.4      6.939      8.489
REMARK  Name = 54708743
REMARK  3 active torsions:
REMARK  status: ('A' for Active; 'I' for Inactive)
REMARK    1  A    between atoms: C_2  and  C_9
REMARK    2  A    between atoms: C_10  and  C_12
REMARK    3  A    between atoms: C_12  and  O_13
REMARK                            x       y       z     vdW  Elec       q    Type
REMARK                         _______ _______ _______ _____ _____    ______ ____
ROOT
ATOM      1  O   UNL     1      30.635 -23.264 -16.335  0.00  0.00    -0.287 OA
ATOM      2  C   UNL     1      34.664 -23.216 -15.757  0.00  0.00    +0.003 C 
ATOM      3  C   UNL     1      34.144 -23.165 -17.050  0.00  0.00    +0.003 C 
ATOM      4  C   UNL     1      33.803 -23.284 -14.662  0.00  0.00    +0.003 C 
ATOM      5  C   UNL     1      32.764 -23.181 -17.249  0.00  0.00    +0.042 C 
ATOM      6  C   UNL     1      32.422 -23.300 -14.860  0.00  0.00    +0.042 C 
ATOM      7  C   UNL     1      31.903 -23.249 -16.153  0.00  0.00    +0.196 C 
ENDROOT
BRANCH   2   9
ATOM      8  F   UNL     1      38.182 -24.163 -14.995  0.00  0.00    -0.197 F 
ATOM      9  C   UNL     1      36.103 -23.201 -15.549  0.00  0.00    +0.036 C 
ATOM     10  C   UNL     1      36.851 -24.264 -15.191  0.00  0.00    +0.215 C 
BRANCH  10  12
ATOM     11  O   UNL     1      36.049 -26.423 -15.837  0.00  0.00    -0.243 OA
ATOM     12  C   UNL     1      36.274 -25.600 -14.962  0.00  0.00    +0.366 C 
BRANCH  12  13
ATOM     13  O   UNL     1      36.021 -25.808 -13.647  0.00  0.00    -0.476 OA
ATOM     14  H   UNL     1      35.256 -26.282 -13.386  0.00  0.00    +0.295 HD
ENDBRANCH  12  13
ENDBRANCH  10  12
ENDBRANCH   2   9
TORSDOF 3
ENDMDL
