MODEL 1
REMARK VINA RESULT:     -11.3      0.000      0.000
REMARK  Name = 59174488
REMARK  8 active torsions:
REMARK  status: ('A' for Active; 'I' for Inactive)
REMARK    1  A    between atoms: N_2  and  C_12
REMARK    2  A    between atoms: N_3  and  C_24
REMARK    3  A    between atoms: C_14  and  N_19
REMARK    4  A    between atoms: C_20  and  C_22
REMARK    5  A    between atoms: C_25  and  O_30
REMARK    6  A    between atoms: O_30  and  C_31
REMARK    7  A    between atoms: C_31  and  C_32
REMARK    8  A    between atoms: C_32  and  O_33
REMARK                            x       y       z     vdW  Elec       q    Type
REMARK                         _______ _______ _______ _____ _____    ______ ____
ROOT
ATOM      1  F   UNL     1      29.608 -22.768 -17.195  0.00  0.00    -0.198 F 
ATOM      2  N   UNL     1      32.293 -22.833 -17.836  0.00  0.00    -0.285 N 
ATOM      3  N   UNL     1      33.272 -23.727 -13.303  0.00  0.00    -0.247 N 
ATOM      4  N   UNL     1      32.807 -23.284 -15.556  0.00  0.00    -0.320 NA
ATOM      5  N   UNL     1      31.032 -23.459 -13.936  0.00  0.00    -0.167 NA
ATOM      6  C   UNL     1      31.873 -23.048 -16.501  0.00  0.00    +0.226 C 
ATOM      7  C   UNL     1      32.324 -23.477 -14.314  0.00  0.00    +0.150 C 
ATOM      8  C   UNL     1      30.518 -23.003 -16.243  0.00  0.00    +0.205 C 
ATOM      9  C   UNL     1      30.152 -23.217 -14.931  0.00  0.00    +0.145 C 
ATOM     10  H   UNL     1      31.638 -23.125 -18.510  0.00  0.00    +0.155 HD
ATOM     11  H   UNL     1      32.874 -23.862 -12.413  0.00  0.00    +0.165 HD
ENDROOT
BRANCH   2  12
ATOM     12  C   UNL     1      33.464 -22.284 -18.385  0.00  0.00    +0.051 C 
ATOM     13  C   UNL     1      33.388 -21.451 -19.501  0.00  0.00    +0.029 C 
ATOM     14  C   UNL     1      34.551 -20.907 -20.046  0.00  0.00    +0.052 C 
ATOM     15  C   UNL     1      34.703 -22.571 -17.812  0.00  0.00    +0.015 C 
ATOM     16  C   UNL     1      35.790 -21.194 -19.473  0.00  0.00    +0.015 C 
ATOM     17  C   UNL     1      35.866 -22.027 -18.355  0.00  0.00    +0.003 C 
BRANCH  14  19
ATOM     18  O   UNL     1      35.834 -18.244 -20.574  0.00  0.00    -0.270 OA
ATOM     19  N   UNL     1      34.475 -20.073 -21.162  0.00  0.00    -0.280 N 
ATOM     20  C   UNL     1      35.098 -18.833 -21.357  0.00  0.00    +0.250 C 
ATOM     21  H   UNL     1      33.914 -20.395 -21.903  0.00  0.00    +0.155 HD
BRANCH  20  22
ATOM     22  C   UNL     1      34.764 -18.253 -22.690  0.00  0.00    +0.058 C 
ATOM     23  C   UNL     1      34.876 -18.989 -23.800  0.00  0.00    +0.005 C 
ENDBRANCH  20  22
ENDBRANCH  14  19
ENDBRANCH   2  12
BRANCH   3  24
ATOM     24  C   UNL     1      34.679 -23.820 -13.314  0.00  0.00    +0.058 C 
ATOM     25  C   UNL     1      37.463 -24.002 -13.335  0.00  0.00    +0.139 C 
ATOM     26  C   UNL     1      35.414 -23.173 -14.309  0.00  0.00    +0.018 C 
ATOM     27  C   UNL     1      35.337 -24.558 -12.331  0.00  0.00    +0.018 C 
ATOM     28  C   UNL     1      36.805 -23.264 -14.319  0.00  0.00    +0.038 C 
ATOM     29  C   UNL     1      36.729 -24.650 -12.341  0.00  0.00    +0.038 C 
BRANCH  25  30
ATOM     30  O   UNL     1      38.821 -24.091 -13.345  0.00  0.00    -0.473 OA
BRANCH  30  31
ATOM     31  C   UNL     1      39.386 -25.396 -13.470  0.00  0.00    +0.237 C 
BRANCH  31  32
ATOM     32  C   UNL     1      39.049 -25.951 -14.840  0.00  0.00    +0.189 C 
BRANCH  32  33
ATOM     33  O   UNL     1      38.241 -27.111 -14.685  0.00  0.00    -0.347 OA
ATOM     34  C   UNL     1      36.954 -26.930 -15.258  0.00  0.00    +0.174 C 
ENDBRANCH  32  33
ENDBRANCH  31  32
ENDBRANCH  30  31
ENDBRANCH  25  30
ENDBRANCH   3  24
TORSDOF 8
ENDMDL
MODEL 2
REMARK VINA RESULT:     -11.2      3.527      6.040
REMARK  Name = 59174488
REMARK  8 active torsions:
REMARK  status: ('A' for Active; 'I' for Inactive)
REMARK    1  A    between atoms: N_2  and  C_12
REMARK    2  A    between atoms: N_3  and  C_24
REMARK    3  A    between atoms: C_14  and  N_19
REMARK    4  A    between atoms: C_20  and  C_22
REMARK    5  A    between atoms: C_25  and  O_30
REMARK    6  A    between atoms: O_30  and  C_31
REMARK    7  A    between atoms: C_31  and  C_32
REMARK    8  A    between atoms: C_32  and  O_33
REMARK                            x       y       z     vdW  Elec       q    Type
REMARK                         _______ _______ _______ _____ _____    ______ ____
ROOT
ATOM      1  F   UNL     1      38.898 -23.238 -16.024  0.00  0.00    -0.198 F 
ATOM      2  N   UNL     1      36.558 -22.167 -17.025  0.00  0.00    -0.285 N 
ATOM      3  N   UNL     1      34.136 -24.715 -13.869  0.00  0.00    -0.247 N 
ATOM      4  N   UNL     1      35.319 -23.443 -15.442  0.00  0.00    -0.320 NA
ATOM      5  N   UNL     1      36.473 -24.888 -13.898  0.00  0.00    -0.167 NA
ATOM      6  C   UNL     1      36.518 -23.096 -15.956  0.00  0.00    +0.226 C 
ATOM      7  C   UNL     1      35.370 -24.331 -14.431  0.00  0.00    +0.150 C 
ATOM      8  C   UNL     1      37.720 -23.596 -15.500  0.00  0.00    +0.205 C 
ATOM      9  C   UNL     1      37.636 -24.497 -14.459  0.00  0.00    +0.145 C 
ATOM     10  H   UNL     1      37.375 -21.621 -17.044  0.00  0.00    +0.155 HD
ATOM     11  H   UNL     1      34.222 -25.364 -13.133  0.00  0.00    +0.165 HD
ENDROOT
BRANCH   2  12
ATOM     12  C   UNL     1      35.656 -21.876 -18.062  0.00  0.00    +0.051 C 
ATOM     13  C   UNL     1      36.068 -21.106 -19.149  0.00  0.00    +0.029 C 
ATOM     14  C   UNL     1      35.172 -20.817 -20.178  0.00  0.00    +0.052 C 
ATOM     15  C   UNL     1      34.348 -22.359 -18.004  0.00  0.00    +0.015 C 
ATOM     16  C   UNL     1      33.864 -21.300 -20.121  0.00  0.00    +0.015 C 
ATOM     17  C   UNL     1      33.452 -22.071 -19.033  0.00  0.00    +0.003 C 
BRANCH  14  19
ATOM     18  O   UNL     1      35.216 -17.837 -20.546  0.00  0.00    -0.270 OA
ATOM     19  N   UNL     1      35.584 -20.047 -21.267  0.00  0.00    -0.280 N 
ATOM     20  C   UNL     1      35.583 -18.651 -21.386  0.00  0.00    +0.250 C 
ATOM     21  H   UNL     1      35.914 -20.546 -22.048  0.00  0.00    +0.155 HD
BRANCH  20  22
ATOM     22  C   UNL     1      36.101 -18.211 -22.714  0.00  0.00    +0.058 C 
ATOM     23  C   UNL     1      35.364 -18.368 -23.817  0.00  0.00    +0.005 C 
ENDBRANCH  20  22
ENDBRANCH  14  19
ENDBRANCH   2  12
BRANCH   3  24
ATOM     24  C   UNL     1      32.803 -24.354 -14.154  0.00  0.00    +0.058 C 
ATOM     25  C   UNL     1      30.166 -23.642 -14.720  0.00  0.00    +0.139 C 
ATOM     26  C   UNL     1      32.537 -23.228 -14.934  0.00  0.00    +0.018 C 
ATOM     27  C   UNL     1      31.751 -25.122 -13.657  0.00  0.00    +0.018 C 
ATOM     28  C   UNL     1      31.218 -22.872 -15.217  0.00  0.00    +0.038 C 
ATOM     29  C   UNL     1      30.432 -24.767 -13.939  0.00  0.00    +0.038 C 
BRANCH  25  30
ATOM     30  O   UNL     1      28.879 -23.294 -14.996  0.00  0.00    -0.473 OA
BRANCH  30  31
ATOM     31  C   UNL     1      28.647 -22.570 -16.204  0.00  0.00    +0.237 C 
BRANCH  31  32
ATOM     32  C   UNL     1      28.132 -23.525 -17.262  0.00  0.00    +0.189 C 
BRANCH  32  33
ATOM     33  O   UNL     1      27.103 -22.883 -18.006  0.00  0.00    -0.347 OA
ATOM     34  C   UNL     1      26.588 -21.754 -17.314  0.00  0.00    +0.174 C 
ENDBRANCH  32  33
ENDBRANCH  31  32
ENDBRANCH  30  31
ENDBRANCH  25  30
ENDBRANCH   3  24
TORSDOF 8
ENDMDL
MODEL 3
REMARK VINA RESULT:      -8.7      7.985     14.511
REMARK  Name = 59174488
REMARK  8 active torsions:
REMARK  status: ('A' for Active; 'I' for Inactive)
REMARK    1  A    between atoms: N_2  and  C_12
REMARK    2  A    between atoms: N_3  and  C_24
REMARK    3  A    between atoms: C_14  and  N_19
REMARK    4  A    between atoms: C_20  and  C_22
REMARK    5  A    between atoms: C_25  and  O_30
REMARK    6  A    between atoms: O_30  and  C_31
REMARK    7  A    between atoms: C_31  and  C_32
REMARK    8  A    between atoms: C_32  and  O_33
REMARK                            x       y       z     vdW  Elec       q    Type
REMARK                         _______ _______ _______ _____ _____    ______ ____
ROOT
ATOM      1  F   UNL     1      33.446 -15.678 -26.897  0.00  0.00    -0.198 F 
ATOM      2  N   UNL     1      33.099 -15.134 -24.212  0.00  0.00    -0.285 N 
ATOM      3  N   UNL     1      33.391 -10.522 -25.191  0.00  0.00    -0.247 N 
ATOM      4  N   UNL     1      33.244 -12.806 -24.685  0.00  0.00    -0.320 NA
ATOM      5  N   UNL     1      33.578 -12.058 -26.951  0.00  0.00    -0.167 NA
ATOM      6  C   UNL     1      33.262 -14.076 -25.140  0.00  0.00    +0.226 C 
ATOM      7  C   UNL     1      33.405 -11.861 -25.631  0.00  0.00    +0.150 C 
ATOM      8  C   UNL     1      33.431 -14.411 -26.467  0.00  0.00    +0.205 C 
ATOM      9  C   UNL     1      33.586 -13.352 -27.336  0.00  0.00    +0.145 C 
ATOM     10  H   UNL     1      32.668 -15.933 -24.593  0.00  0.00    +0.155 HD
ATOM     11  H   UNL     1      33.512  -9.867 -25.916  0.00  0.00    +0.165 HD
ENDROOT
BRANCH   2  12
ATOM     12  C   UNL     1      33.433 -15.264 -22.854  0.00  0.00    +0.051 C 
ATOM     13  C   UNL     1      34.292 -16.282 -22.441  0.00  0.00    +0.029 C 
ATOM     14  C   UNL     1      34.623 -16.411 -21.092  0.00  0.00    +0.052 C 
ATOM     15  C   UNL     1      32.907 -14.373 -21.919  0.00  0.00    +0.015 C 
ATOM     16  C   UNL     1      34.097 -15.520 -20.157  0.00  0.00    +0.015 C 
ATOM     17  C   UNL     1      33.238 -14.501 -20.570  0.00  0.00    +0.003 C 
BRANCH  14  19
ATOM     18  O   UNL     1      34.705 -19.314 -21.852  0.00  0.00    -0.270 OA
ATOM     19  N   UNL     1      35.483 -17.429 -20.679  0.00  0.00    -0.280 N 
ATOM     20  C   UNL     1      35.477 -18.775 -21.067  0.00  0.00    +0.250 C 
ATOM     21  H   UNL     1      36.179 -17.170 -20.033  0.00  0.00    +0.155 HD
BRANCH  20  22
ATOM     22  C   UNL     1      36.563 -19.547 -20.397  0.00  0.00    +0.058 C 
ATOM     23  C   UNL     1      36.347 -20.796 -19.971  0.00  0.00    +0.005 C 
ENDBRANCH  20  22
ENDBRANCH  14  19
ENDBRANCH   2  12
BRANCH   3  24
ATOM     24  C   UNL     1      33.238  -9.937 -23.918  0.00  0.00    +0.058 C 
ATOM     25  C   UNL     1      32.932  -8.775 -21.400  0.00  0.00    +0.139 C 
ATOM     26  C   UNL     1      34.014  -8.833 -23.559  0.00  0.00    +0.018 C 
ATOM     27  C   UNL     1      32.311 -10.458 -23.017  0.00  0.00    +0.018 C 
ATOM     28  C   UNL     1      33.861  -8.252 -22.301  0.00  0.00    +0.038 C 
ATOM     29  C   UNL     1      32.157  -9.878 -21.757  0.00  0.00    +0.038 C 
BRANCH  25  30
ATOM     30  O   UNL     1      32.784  -8.208 -20.171  0.00  0.00    -0.473 OA
BRANCH  30  31
ATOM     31  C   UNL     1      32.735  -6.782 -20.115  0.00  0.00    +0.237 C 
BRANCH  31  32
ATOM     32  C   UNL     1      31.504  -6.300 -20.855  0.00  0.00    +0.189 C 
BRANCH  32  33
ATOM     33  O   UNL     1      31.907  -5.450 -21.922  0.00  0.00    -0.347 OA
ATOM     34  C   UNL     1      31.189  -5.736 -23.114  0.00  0.00    +0.174 C 
ENDBRANCH  32  33
ENDBRANCH  31  32
ENDBRANCH  30  31
ENDBRANCH  25  30
ENDBRANCH   3  24
TORSDOF 8
ENDMDL
MODEL 4
REMARK VINA RESULT:      -8.6     10.540     15.306
REMARK  Name = 59174488
REMARK  8 active torsions:
REMARK  status: ('A' for Active; 'I' for Inactive)
REMARK    1  A    between atoms: N_2  and  C_12
REMARK    2  A    between atoms: N_3  and  C_24
REMARK    3  A    between atoms: C_14  and  N_19
REMARK    4  A    between atoms: C_20  and  C_22
REMARK    5  A    between atoms: C_25  and  O_30
REMARK    6  A    between atoms: O_30  and  C_31
REMARK    7  A    between atoms: C_31  and  C_32
REMARK    8  A    between atoms: C_32  and  O_33
REMARK                            x       y       z     vdW  Elec       q    Type
REMARK                         _______ _______ _______ _____ _____    ______ ____
ROOT
ATOM      1  F   UNL     1      33.238 -15.722 -26.702  0.00  0.00    -0.198 F 
ATOM      2  N   UNL     1      32.662 -14.700 -24.202  0.00  0.00    -0.285 N 
ATOM      3  N   UNL     1      34.134 -10.463 -25.683  0.00  0.00    -0.247 N 
ATOM      4  N   UNL     1      33.400 -12.557 -24.929  0.00  0.00    -0.320 NA
ATOM      5  N   UNL     1      34.203 -12.263 -27.182  0.00  0.00    -0.167 NA
ATOM      6  C   UNL     1      33.188 -13.859 -25.214  0.00  0.00    +0.226 C 
ATOM      7  C   UNL     1      33.902 -11.828 -25.944  0.00  0.00    +0.150 C 
ATOM      8  C   UNL     1      33.456 -14.428 -26.441  0.00  0.00    +0.205 C 
ATOM      9  C   UNL     1      33.967 -13.574 -27.397  0.00  0.00    +0.145 C 
ATOM     10  H   UNL     1      32.116 -15.442 -24.548  0.00  0.00    +0.155 HD
ATOM     11  H   UNL     1      34.500  -9.970 -26.453  0.00  0.00    +0.165 HD
ENDROOT
BRANCH   2  12
ATOM     12  C   UNL     1      32.769 -14.680 -22.802  0.00  0.00    +0.051 C 
ATOM     13  C   UNL     1      32.364 -13.552 -22.087  0.00  0.00    +0.029 C 
ATOM     14  C   UNL     1      32.471 -13.533 -20.697  0.00  0.00    +0.052 C 
ATOM     15  C   UNL     1      33.280 -15.788 -22.126  0.00  0.00    +0.015 C 
ATOM     16  C   UNL     1      32.981 -14.641 -20.021  0.00  0.00    +0.015 C 
ATOM     17  C   UNL     1      33.386 -15.769 -20.735  0.00  0.00    +0.003 C 
BRANCH  14  19
ATOM     18  O   UNL     1      30.401 -11.458 -21.349  0.00  0.00    -0.270 OA
ATOM     19  N   UNL     1      32.065 -12.405 -19.981  0.00  0.00    -0.280 N 
ATOM     20  C   UNL     1      31.088 -11.465 -20.334  0.00  0.00    +0.250 C 
ATOM     21  H   UNL     1      32.523 -12.251 -19.124  0.00  0.00    +0.155 HD
BRANCH  20  22
ATOM     22  C   UNL     1      30.949 -10.400 -19.298  0.00  0.00    +0.058 C 
ATOM     23  C   UNL     1      32.021  -9.733 -18.861  0.00  0.00    +0.005 C 
ENDBRANCH  20  22
ENDBRANCH  14  19
ENDBRANCH   2  12
BRANCH   3  24
ATOM     24  C   UNL     1      33.947  -9.664 -24.536  0.00  0.00    +0.058 C 
ATOM     25  C   UNL     1      33.578  -8.086 -22.265  0.00  0.00    +0.139 C 
ATOM     26  C   UNL     1      32.892  -9.933 -23.664  0.00  0.00    +0.018 C 
ATOM     27  C   UNL     1      34.816  -8.606 -24.273  0.00  0.00    +0.018 C 
ATOM     28  C   UNL     1      32.707  -9.145 -22.528  0.00  0.00    +0.038 C 
ATOM     29  C   UNL     1      34.632  -7.817 -23.138  0.00  0.00    +0.038 C 
BRANCH  25  30
ATOM     30  O   UNL     1      33.398  -7.317 -21.157  0.00  0.00    -0.473 OA
BRANCH  30  31
ATOM     31  C   UNL     1      32.075  -6.844 -20.902  0.00  0.00    +0.237 C 
BRANCH  31  32
ATOM     32  C   UNL     1      31.760  -5.716 -21.865  0.00  0.00    +0.189 C 
BRANCH  32  33
ATOM     33  O   UNL     1      30.768  -6.156 -22.786  0.00  0.00    -0.347 OA
ATOM     34  C   UNL     1      31.184  -5.965 -24.130  0.00  0.00    +0.174 C 
ENDBRANCH  32  33
ENDBRANCH  31  32
ENDBRANCH  30  31
ENDBRANCH  25  30
ENDBRANCH   3  24
TORSDOF 8
ENDMDL
