MODEL 1
REMARK VINA RESULT:      -7.2      0.000      0.000
REMARK  Name = 71375225
REMARK  12 active torsions:
REMARK  status: ('A' for Active; 'I' for Inactive)
REMARK    1  A    between atoms: C_1  and  C_2
REMARK    2  A    between atoms: C_1  and  C_11
REMARK    3  A    between atoms: C_2  and  C_5
REMARK    4  A    between atoms: C_3  and  C_6
REMARK    5  A    between atoms: C_6  and  C_7
REMARK    6  A    between atoms: C_7  and  C_8
REMARK    7  A    between atoms: C_8  and  C_10
REMARK    8  A    between atoms: C_11  and  C_12
REMARK    9  A    between atoms: C_13  and  C_15
REMARK   10  A    between atoms: C_13  and  C_16
REMARK   11  A    between atoms: C_16  and  C_17
REMARK   12  A    between atoms: C_17  and  C_19
REMARK                            x       y       z     vdW  Elec       q    Type
REMARK                         _______ _______ _______ _____ _____    ______ ____
ROOT
ATOM      1  C   UNL     1      34.371 -19.021 -23.223  0.00  0.00    +0.034 C 
ENDROOT
BRANCH   1   2
ATOM      2  C   UNL     1      34.965 -19.134 -21.843  0.00  0.00    +0.016 C 
ATOM      3  C   UNL     1      34.343 -19.541 -20.721  0.00  0.00    -0.027 C 
BRANCH   2   5
ATOM      4  O   UNL     1      37.136 -19.216 -20.842  0.00  0.00    -0.284 OA
ATOM      5  C   UNL     1      36.383 -18.711 -21.668  0.00  0.00    +0.230 C 
ENDBRANCH   2   5
BRANCH   3   6
ATOM      6  C   UNL     1      32.923 -20.024 -20.598  0.00  0.00    +0.026 C 
BRANCH   6   7
ATOM      7  C   UNL     1      32.813 -21.135 -19.547  0.00  0.00    +0.013 C 
BRANCH   7   8
ATOM      8  C   UNL     1      34.123 -21.897 -19.362  0.00  0.00    +0.073 C 
BRANCH   8  10
ATOM      9  O   UNL     1      33.787 -23.780 -17.860  0.00  0.00    -0.288 OA
ATOM     10  C   UNL     1      34.219 -22.647 -18.054  0.00  0.00    +0.207 C 
ENDBRANCH   8  10
ENDBRANCH   7   8
ENDBRANCH   6   7
ENDBRANCH   3   6
ENDBRANCH   1   2
BRANCH   1  11
ATOM     11  C   UNL     1      35.235 -18.214 -24.200  0.00  0.00    +0.031 C 
BRANCH  11  12
ATOM     12  C   UNL     1      34.433 -17.236 -25.015  0.00  0.00    -0.027 C 
ATOM     13  C   UNL     1      34.128 -15.968 -24.685  0.00  0.00    +0.016 C 
BRANCH  13  15
ATOM     14  O   UNL     1      32.664 -14.225 -25.422  0.00  0.00    -0.284 OA
ATOM     15  C   UNL     1      33.319 -15.224 -25.694  0.00  0.00    +0.230 C 
ENDBRANCH  13  15
BRANCH  13  16
ATOM     16  C   UNL     1      34.562 -15.223 -23.451  0.00  0.00    +0.038 C 
BRANCH  16  17
ATOM     17  C   UNL     1      33.611 -15.413 -22.270  0.00  0.00    +0.077 C 
BRANCH  17  19
ATOM     18  O   UNL     1      34.977 -15.766 -20.316  0.00  0.00    -0.288 OA
ATOM     19  C   UNL     1      34.258 -15.015 -20.969  0.00  0.00    +0.208 C 
ENDBRANCH  17  19
ENDBRANCH  16  17
ENDBRANCH  13  16
ENDBRANCH  11  12
ENDBRANCH   1  11
TORSDOF 12
ENDMDL
MODEL 2
REMARK VINA RESULT:      -7.1      1.741      6.639
REMARK  Name = 71375225
REMARK  12 active torsions:
REMARK  status: ('A' for Active; 'I' for Inactive)
REMARK    1  A    between atoms: C_1  and  C_2
REMARK    2  A    between atoms: C_1  and  C_11
REMARK    3  A    between atoms: C_2  and  C_5
REMARK    4  A    between atoms: C_3  and  C_6
REMARK    5  A    between atoms: C_6  and  C_7
REMARK    6  A    between atoms: C_7  and  C_8
REMARK    7  A    between atoms: C_8  and  C_10
REMARK    8  A    between atoms: C_11  and  C_12
REMARK    9  A    between atoms: C_13  and  C_15
REMARK   10  A    between atoms: C_13  and  C_16
REMARK   11  A    between atoms: C_16  and  C_17
REMARK   12  A    between atoms: C_17  and  C_19
REMARK                            x       y       z     vdW  Elec       q    Type
REMARK                         _______ _______ _______ _____ _____    ______ ____
ROOT
ATOM      1  C   UNL     1      34.991 -16.920 -24.849  0.00  0.00    +0.034 C 
ENDROOT
BRANCH   1   2
ATOM      2  C   UNL     1      34.028 -15.775 -24.661  0.00  0.00    +0.016 C 
ATOM      3  C   UNL     1      33.843 -15.044 -23.548  0.00  0.00    -0.027 C 
BRANCH   2   5
ATOM      4  O   UNL     1      33.570 -15.065 -26.898  0.00  0.00    -0.284 OA
ATOM      5  C   UNL     1      33.142 -15.428 -25.808  0.00  0.00    +0.230 C 
ENDBRANCH   2   5
BRANCH   3   6
ATOM      6  C   UNL     1      34.590 -15.169 -22.248  0.00  0.00    +0.026 C 
BRANCH   6   7
ATOM      7  C   UNL     1      33.696 -14.780 -21.063  0.00  0.00    +0.013 C 
BRANCH   7   8
ATOM      8  C   UNL     1      32.355 -14.201 -21.508  0.00  0.00    +0.073 C 
BRANCH   8  10
ATOM      9  O   UNL     1      31.197 -12.070 -21.339  0.00  0.00    -0.288 OA
ATOM     10  C   UNL     1      32.248 -12.703 -21.346  0.00  0.00    +0.207 C 
ENDBRANCH   8  10
ENDBRANCH   7   8
ENDBRANCH   6   7
ENDBRANCH   3   6
ENDBRANCH   1   2
BRANCH   1  11
ATOM     11  C   UNL     1      34.591 -18.190 -24.087  0.00  0.00    +0.031 C 
BRANCH  11  12
ATOM     12  C   UNL     1      35.577 -18.558 -23.012  0.00  0.00    -0.027 C 
ATOM     13  C   UNL     1      35.319 -18.729 -21.703  0.00  0.00    +0.016 C 
BRANCH  13  15
ATOM     14  O   UNL     1      36.458 -19.976 -20.009  0.00  0.00    -0.284 OA
ATOM     15  C   UNL     1      36.495 -19.099 -20.865  0.00  0.00    +0.230 C 
ENDBRANCH  13  15
BRANCH  13  16
ATOM     16  C   UNL     1      33.977 -18.642 -21.025  0.00  0.00    +0.038 C 
BRANCH  16  17
ATOM     17  C   UNL     1      33.152 -19.921 -21.161  0.00  0.00    +0.077 C 
BRANCH  17  19
ATOM     18  O   UNL     1      32.985 -21.923 -19.830  0.00  0.00    -0.288 OA
ATOM     19  C   UNL     1      33.132 -20.705 -19.875  0.00  0.00    +0.208 C 
ENDBRANCH  17  19
ENDBRANCH  16  17
ENDBRANCH  13  16
ENDBRANCH  11  12
ENDBRANCH   1  11
TORSDOF 12
ENDMDL
MODEL 3
REMARK VINA RESULT:      -7.1      7.299     11.169
REMARK  Name = 71375225
REMARK  12 active torsions:
REMARK  status: ('A' for Active; 'I' for Inactive)
REMARK    1  A    between atoms: C_1  and  C_2
REMARK    2  A    between atoms: C_1  and  C_11
REMARK    3  A    between atoms: C_2  and  C_5
REMARK    4  A    between atoms: C_3  and  C_6
REMARK    5  A    between atoms: C_6  and  C_7
REMARK    6  A    between atoms: C_7  and  C_8
REMARK    7  A    between atoms: C_8  and  C_10
REMARK    8  A    between atoms: C_11  and  C_12
REMARK    9  A    between atoms: C_13  and  C_15
REMARK   10  A    between atoms: C_13  and  C_16
REMARK   11  A    between atoms: C_16  and  C_17
REMARK   12  A    between atoms: C_17  and  C_19
REMARK                            x       y       z     vdW  Elec       q    Type
REMARK                         _______ _______ _______ _____ _____    ______ ____
ROOT
ATOM      1  C   UNL     1      33.948 -23.142 -15.377  0.00  0.00    +0.034 C 
ENDROOT
BRANCH   1   2
ATOM      2  C   UNL     1      32.913 -23.120 -16.473  0.00  0.00    +0.016 C 
ATOM      3  C   UNL     1      31.576 -23.080 -16.327  0.00  0.00    -0.027 C 
BRANCH   2   5
ATOM      4  O   UNL     1      32.903 -22.549 -18.796  0.00  0.00    -0.284 OA
ATOM      5  C   UNL     1      33.400 -23.194 -17.880  0.00  0.00    +0.230 C 
ENDBRANCH   2   5
BRANCH   3   6
ATOM      6  C   UNL     1      30.809 -22.999 -15.036  0.00  0.00    +0.026 C 
BRANCH   6   7
ATOM      7  C   UNL     1      29.716 -24.074 -14.981  0.00  0.00    +0.013 C 
BRANCH   7   8
ATOM      8  C   UNL     1      28.783 -24.022 -16.189  0.00  0.00    +0.073 C 
BRANCH   8  10
ATOM      9  O   UNL     1      28.054 -21.794 -16.832  0.00  0.00    -0.288 OA
ATOM     10  C   UNL     1      27.859 -22.828 -16.200  0.00  0.00    +0.207 C 
ENDBRANCH   8  10
ENDBRANCH   7   8
ENDBRANCH   6   7
ENDBRANCH   3   6
ENDBRANCH   1   2
BRANCH   1  11
ATOM     11  C   UNL     1      34.019 -24.478 -14.626  0.00  0.00    +0.031 C 
BRANCH  11  12
ATOM     12  C   UNL     1      34.411 -24.313 -13.183  0.00  0.00    -0.027 C 
ATOM     13  C   UNL     1      35.639 -24.467 -12.657  0.00  0.00    +0.016 C 
BRANCH  13  15
ATOM     14  O   UNL     1      35.329 -25.034 -10.353  0.00  0.00    -0.284 OA
ATOM     15  C   UNL     1      35.736 -24.233 -11.187  0.00  0.00    +0.230 C 
ENDBRANCH  13  15
BRANCH  13  16
ATOM     16  C   UNL     1      36.909 -24.790 -13.398  0.00  0.00    +0.038 C 
BRANCH  16  17
ATOM     17  C   UNL     1      37.115 -26.289 -13.613  0.00  0.00    +0.077 C 
BRANCH  17  19
ATOM     18  O   UNL     1      36.282 -26.904 -15.789  0.00  0.00    -0.288 OA
ATOM     19  C   UNL     1      37.241 -26.625 -15.076  0.00  0.00    +0.208 C 
ENDBRANCH  17  19
ENDBRANCH  16  17
ENDBRANCH  13  16
ENDBRANCH  11  12
ENDBRANCH   1  11
TORSDOF 12
ENDMDL
MODEL 4
REMARK VINA RESULT:      -7.1      1.917      4.114
REMARK  Name = 71375225
REMARK  12 active torsions:
REMARK  status: ('A' for Active; 'I' for Inactive)
REMARK    1  A    between atoms: C_1  and  C_2
REMARK    2  A    between atoms: C_1  and  C_11
REMARK    3  A    between atoms: C_2  and  C_5
REMARK    4  A    between atoms: C_3  and  C_6
REMARK    5  A    between atoms: C_6  and  C_7
REMARK    6  A    between atoms: C_7  and  C_8
REMARK    7  A    between atoms: C_8  and  C_10
REMARK    8  A    between atoms: C_11  and  C_12
REMARK    9  A    between atoms: C_13  and  C_15
REMARK   10  A    between atoms: C_13  and  C_16
REMARK   11  A    between atoms: C_16  and  C_17
REMARK   12  A    between atoms: C_17  and  C_19
REMARK                            x       y       z     vdW  Elec       q    Type
REMARK                         _______ _______ _______ _____ _____    ______ ____
ROOT
ATOM      1  C   UNL     1      33.288 -20.806 -19.841  0.00  0.00    +0.034 C 
ENDROOT
BRANCH   1   2
ATOM      2  C   UNL     1      34.395 -21.665 -19.286  0.00  0.00    +0.016 C 
ATOM      3  C   UNL     1      34.287 -22.626 -18.350  0.00  0.00    -0.027 C 
BRANCH   2   5
ATOM      4  O   UNL     1      36.776 -21.556 -19.085  0.00  0.00    -0.284 OA
ATOM      5  C   UNL     1      35.777 -21.410 -19.781  0.00  0.00    +0.230 C 
ENDBRANCH   2   5
BRANCH   3   6
ATOM      6  C   UNL     1      33.025 -23.096 -17.678  0.00  0.00    +0.026 C 
BRANCH   6   7
ATOM      7  C   UNL     1      33.246 -23.283 -16.172  0.00  0.00    +0.013 C 
BRANCH   7   8
ATOM      8  C   UNL     1      34.717 -23.176 -15.778  0.00  0.00    +0.073 C 
BRANCH   8  10
ATOM      9  O   UNL     1      35.717 -25.392 -15.722  0.00  0.00    -0.288 OA
ATOM     10  C   UNL     1      35.270 -24.419 -15.122  0.00  0.00    +0.207 C 
ENDBRANCH   8  10
ENDBRANCH   7   8
ENDBRANCH   6   7
ENDBRANCH   3   6
ENDBRANCH   1   2
BRANCH   1  11
ATOM     11  C   UNL     1      33.645 -20.124 -21.168  0.00  0.00    +0.031 C 
BRANCH  11  12
ATOM     12  C   UNL     1      33.946 -18.659 -21.006  0.00  0.00    -0.027 C 
ATOM     13  C   UNL     1      34.786 -17.919 -21.751  0.00  0.00    +0.016 C 
BRANCH  13  15
ATOM     14  O   UNL     1      35.027 -16.108 -20.206  0.00  0.00    -0.284 OA
ATOM     15  C   UNL     1      34.884 -16.483 -21.364  0.00  0.00    +0.230 C 
ENDBRANCH  13  15
BRANCH  13  16
ATOM     16  C   UNL     1      35.577 -18.375 -22.948  0.00  0.00    +0.038 C 
BRANCH  16  17
ATOM     17  C   UNL     1      34.704 -18.670 -24.167  0.00  0.00    +0.077 C 
BRANCH  17  19
ATOM     18  O   UNL     1      34.979 -16.917 -25.797  0.00  0.00    -0.288 OA
ATOM     19  C   UNL     1      34.316 -17.406 -24.888  0.00  0.00    +0.208 C 
ENDBRANCH  17  19
ENDBRANCH  16  17
ENDBRANCH  13  16
ENDBRANCH  11  12
ENDBRANCH   1  11
TORSDOF 12
ENDMDL
MODEL 5
REMARK VINA RESULT:      -7.1      3.712      8.249
REMARK  Name = 71375225
REMARK  12 active torsions:
REMARK  status: ('A' for Active; 'I' for Inactive)
REMARK    1  A    between atoms: C_1  and  C_2
REMARK    2  A    between atoms: C_1  and  C_11
REMARK    3  A    between atoms: C_2  and  C_5
REMARK    4  A    between atoms: C_3  and  C_6
REMARK    5  A    between atoms: C_6  and  C_7
REMARK    6  A    between atoms: C_7  and  C_8
REMARK    7  A    between atoms: C_8  and  C_10
REMARK    8  A    between atoms: C_11  and  C_12
REMARK    9  A    between atoms: C_13  and  C_15
REMARK   10  A    between atoms: C_13  and  C_16
REMARK   11  A    between atoms: C_16  and  C_17
REMARK   12  A    between atoms: C_17  and  C_19
REMARK                            x       y       z     vdW  Elec       q    Type
REMARK                         _______ _______ _______ _____ _____    ______ ____
ROOT
ATOM      1  C   UNL     1      32.720 -14.579 -20.913  0.00  0.00    +0.034 C 
ENDROOT
BRANCH   1   2
ATOM      2  C   UNL     1      32.366 -13.355 -21.717  0.00  0.00    +0.016 C 
ATOM      3  C   UNL     1      31.878 -12.190 -21.252  0.00  0.00    -0.027 C 
BRANCH   2   5
ATOM      4  O   UNL     1      33.215 -12.653 -23.840  0.00  0.00    -0.284 OA
ATOM      5  C   UNL     1      32.523 -13.435 -23.197  0.00  0.00    +0.230 C 
ENDBRANCH   2   5
BRANCH   3   6
ATOM      6  C   UNL     1      31.620 -11.827 -19.815  0.00  0.00    +0.026 C 
BRANCH   6   7
ATOM      7  C   UNL     1      31.490 -10.308 -19.650  0.00  0.00    +0.013 C 
BRANCH   7   8
ATOM      8  C   UNL     1      31.870  -9.547 -20.918  0.00  0.00    +0.073 C 
BRANCH   8  10
ATOM      9  O   UNL     1      32.547  -7.643 -19.566  0.00  0.00    -0.288 OA
ATOM     10  C   UNL     1      32.495  -8.196 -20.660  0.00  0.00    +0.207 C 
ENDBRANCH   8  10
ENDBRANCH   7   8
ENDBRANCH   6   7
ENDBRANCH   3   6
ENDBRANCH   1   2
BRANCH   1  11
ATOM     11  C   UNL     1      34.230 -14.772 -20.718  0.00  0.00    +0.031 C 
BRANCH  11  12
ATOM     12  C   UNL     1      34.623 -16.220 -20.615  0.00  0.00    -0.027 C 
ATOM     13  C   UNL     1      34.921 -17.050 -21.630  0.00  0.00    +0.016 C 
BRANCH  13  15
ATOM     14  O   UNL     1      36.204 -18.698 -20.461  0.00  0.00    -0.284 OA
ATOM     15  C   UNL     1      35.285 -18.440 -21.230  0.00  0.00    +0.230 C 
ENDBRANCH  13  15
BRANCH  13  16
ATOM     16  C   UNL     1      34.979 -16.708 -23.095  0.00  0.00    +0.038 C 
BRANCH  16  17
ATOM     17  C   UNL     1      35.061 -17.939 -23.996  0.00  0.00    +0.077 C 
BRANCH  17  19
ATOM     18  O   UNL     1      34.492 -16.549 -25.880  0.00  0.00    -0.288 OA
ATOM     19  C   UNL     1      34.494 -17.663 -25.364  0.00  0.00    +0.208 C 
ENDBRANCH  17  19
ENDBRANCH  16  17
ENDBRANCH  13  16
ENDBRANCH  11  12
ENDBRANCH   1  11
TORSDOF 12
ENDMDL
MODEL 6
REMARK VINA RESULT:      -7.0      7.552     10.674
REMARK  Name = 71375225
REMARK  12 active torsions:
REMARK  status: ('A' for Active; 'I' for Inactive)
REMARK    1  A    between atoms: C_1  and  C_2
REMARK    2  A    between atoms: C_1  and  C_11
REMARK    3  A    between atoms: C_2  and  C_5
REMARK    4  A    between atoms: C_3  and  C_6
REMARK    5  A    between atoms: C_6  and  C_7
REMARK    6  A    between atoms: C_7  and  C_8
REMARK    7  A    between atoms: C_8  and  C_10
REMARK    8  A    between atoms: C_11  and  C_12
REMARK    9  A    between atoms: C_13  and  C_15
REMARK   10  A    between atoms: C_13  and  C_16
REMARK   11  A    between atoms: C_16  and  C_17
REMARK   12  A    between atoms: C_17  and  C_19
REMARK                            x       y       z     vdW  Elec       q    Type
REMARK                         _______ _______ _______ _____ _____    ______ ____
ROOT
ATOM      1  C   UNL     1      33.581 -23.238 -15.020  0.00  0.00    +0.034 C 
ENDROOT
BRANCH   1   2
ATOM      2  C   UNL     1      32.672 -23.272 -16.221  0.00  0.00    +0.016 C 
ATOM      3  C   UNL     1      31.360 -23.569 -16.239  0.00  0.00    -0.027 C 
BRANCH   2   5
ATOM      4  O   UNL     1      33.597 -23.875 -18.343  0.00  0.00    -0.284 OA
ATOM      5  C   UNL     1      33.281 -22.993 -17.552  0.00  0.00    +0.230 C 
ENDBRANCH   2   5
BRANCH   3   6
ATOM      6  C   UNL     1      30.487 -23.888 -15.056  0.00  0.00    +0.026 C 
BRANCH   6   7
ATOM      7  C   UNL     1      29.010 -23.939 -15.463  0.00  0.00    +0.013 C 
BRANCH   7   8
ATOM      8  C   UNL     1      28.431 -22.553 -15.739  0.00  0.00    +0.073 C 
BRANCH   8  10
ATOM      9  O   UNL     1      27.639 -23.227 -17.936  0.00  0.00    -0.288 OA
ATOM     10  C   UNL     1      27.546 -22.489 -16.961  0.00  0.00    +0.207 C 
ENDBRANCH   8  10
ENDBRANCH   7   8
ENDBRANCH   6   7
ENDBRANCH   3   6
ENDBRANCH   1   2
BRANCH   1  11
ATOM     11  C   UNL     1      35.067 -23.381 -15.369  0.00  0.00    +0.031 C 
BRANCH  11  12
ATOM     12  C   UNL     1      35.530 -24.813 -15.368  0.00  0.00    -0.027 C 
ATOM     13  C   UNL     1      36.744 -25.270 -15.017  0.00  0.00    +0.016 C 
BRANCH  13  15
ATOM     14  O   UNL     1      36.768 -27.378 -16.148  0.00  0.00    -0.284 OA
ATOM     15  C   UNL     1      36.921 -26.748 -15.108  0.00  0.00    +0.230 C 
ENDBRANCH  13  15
BRANCH  13  16
ATOM     16  C   UNL     1      37.903 -24.459 -14.497  0.00  0.00    +0.038 C 
BRANCH  16  17
ATOM     17  C   UNL     1      38.499 -25.024 -13.209  0.00  0.00    +0.077 C 
BRANCH  17  19
ATOM     18  O   UNL     1      38.557 -23.166 -11.675  0.00  0.00    -0.288 OA
ATOM     19  C   UNL     1      38.055 -24.237 -12.003  0.00  0.00    +0.208 C 
ENDBRANCH  17  19
ENDBRANCH  16  17
ENDBRANCH  13  16
ENDBRANCH  11  12
ENDBRANCH   1  11
TORSDOF 12
ENDMDL
MODEL 7
REMARK VINA RESULT:      -7.0      7.049     10.681
REMARK  Name = 71375225
REMARK  12 active torsions:
REMARK  status: ('A' for Active; 'I' for Inactive)
REMARK    1  A    between atoms: C_1  and  C_2
REMARK    2  A    between atoms: C_1  and  C_11
REMARK    3  A    between atoms: C_2  and  C_5
REMARK    4  A    between atoms: C_3  and  C_6
REMARK    5  A    between atoms: C_6  and  C_7
REMARK    6  A    between atoms: C_7  and  C_8
REMARK    7  A    between atoms: C_8  and  C_10
REMARK    8  A    between atoms: C_11  and  C_12
REMARK    9  A    between atoms: C_13  and  C_15
REMARK   10  A    between atoms: C_13  and  C_16
REMARK   11  A    between atoms: C_16  and  C_17
REMARK   12  A    between atoms: C_17  and  C_19
REMARK                            x       y       z     vdW  Elec       q    Type
REMARK                         _______ _______ _______ _____ _____    ______ ____
ROOT
ATOM      1  C   UNL     1      34.407 -23.920 -15.754  0.00  0.00    +0.034 C 
ENDROOT
BRANCH   1   2
ATOM      2  C   UNL     1      33.325 -23.311 -16.608  0.00  0.00    +0.016 C 
ATOM      3  C   UNL     1      32.026 -23.164 -16.292  0.00  0.00    -0.027 C 
BRANCH   2   5
ATOM      4  O   UNL     1      32.885 -22.504 -18.816  0.00  0.00    -0.284 OA
ATOM      5  C   UNL     1      33.705 -22.855 -17.976  0.00  0.00    +0.230 C 
ENDBRANCH   2   5
BRANCH   3   6
ATOM      6  C   UNL     1      31.364 -23.530 -14.992  0.00  0.00    +0.026 C 
BRANCH   6   7
ATOM      7  C   UNL     1      29.931 -22.985 -14.935  0.00  0.00    +0.013 C 
BRANCH   7   8
ATOM      8  C   UNL     1      28.928 -23.906 -15.624  0.00  0.00    +0.073 C 
BRANCH   8  10
ATOM      9  O   UNL     1      27.600 -23.939 -17.661  0.00  0.00    -0.288 OA
ATOM     10  C   UNL     1      28.327 -23.328 -16.884  0.00  0.00    +0.207 C 
ENDBRANCH   8  10
ENDBRANCH   7   8
ENDBRANCH   6   7
ENDBRANCH   3   6
ENDBRANCH   1   2
BRANCH   1  11
ATOM     11  C   UNL     1      35.564 -22.960 -15.449  0.00  0.00    +0.031 C 
BRANCH  11  12
ATOM     12  C   UNL     1      36.122 -23.143 -14.064  0.00  0.00    -0.027 C 
ATOM     13  C   UNL     1      37.208 -23.854 -13.718  0.00  0.00    +0.016 C 
BRANCH  13  15
ATOM     14  O   UNL     1      38.368 -23.110 -11.762  0.00  0.00    -0.284 OA
ATOM     15  C   UNL     1      37.533 -23.854 -12.262  0.00  0.00    +0.230 C 
ENDBRANCH  13  15
BRANCH  13  16
ATOM     16  C   UNL     1      38.144 -24.588 -14.642  0.00  0.00    +0.038 C 
BRANCH  16  17
ATOM     17  C   UNL     1      38.270 -26.075 -14.311  0.00  0.00    +0.077 C 
BRANCH  17  19
ATOM     18  O   UNL     1      36.779 -27.042 -15.939  0.00  0.00    -0.288 OA
ATOM     19  C   UNL     1      37.055 -26.845 -14.760  0.00  0.00    +0.208 C 
ENDBRANCH  17  19
ENDBRANCH  16  17
ENDBRANCH  13  16
ENDBRANCH  11  12
ENDBRANCH   1  11
TORSDOF 12
ENDMDL
MODEL 8
REMARK VINA RESULT:      -7.0      2.253      3.828
REMARK  Name = 71375225
REMARK  12 active torsions:
REMARK  status: ('A' for Active; 'I' for Inactive)
REMARK    1  A    between atoms: C_1  and  C_2
REMARK    2  A    between atoms: C_1  and  C_11
REMARK    3  A    between atoms: C_2  and  C_5
REMARK    4  A    between atoms: C_3  and  C_6
REMARK    5  A    between atoms: C_6  and  C_7
REMARK    6  A    between atoms: C_7  and  C_8
REMARK    7  A    between atoms: C_8  and  C_10
REMARK    8  A    between atoms: C_11  and  C_12
REMARK    9  A    between atoms: C_13  and  C_15
REMARK   10  A    between atoms: C_13  and  C_16
REMARK   11  A    between atoms: C_16  and  C_17
REMARK   12  A    between atoms: C_17  and  C_19
REMARK                            x       y       z     vdW  Elec       q    Type
REMARK                         _______ _______ _______ _____ _____    ______ ____
ROOT
ATOM      1  C   UNL     1      35.488 -20.417 -20.514  0.00  0.00    +0.034 C 
ENDROOT
BRANCH   1   2
ATOM      2  C   UNL     1      34.849 -21.342 -19.510  0.00  0.00    +0.016 C 
ATOM      3  C   UNL     1      35.448 -21.951 -18.471  0.00  0.00    -0.027 C 
BRANCH   2   5
ATOM      4  O   UNL     1      32.690 -22.077 -18.789  0.00  0.00    -0.284 OA
ATOM      5  C   UNL     1      33.407 -21.667 -19.696  0.00  0.00    +0.230 C 
ENDBRANCH   2   5
BRANCH   3   6
ATOM      6  C   UNL     1      36.883 -21.809 -18.043  0.00  0.00    +0.026 C 
BRANCH   6   7
ATOM      7  C   UNL     1      36.989 -21.672 -16.519  0.00  0.00    +0.013 C 
BRANCH   7   8
ATOM      8  C   UNL     1      37.605 -22.905 -15.862  0.00  0.00    +0.073 C 
BRANCH   8  10
ATOM      9  O   UNL     1      36.061 -24.776 -15.700  0.00  0.00    -0.288 OA
ATOM     10  C   UNL     1      36.602 -23.804 -15.180  0.00  0.00    +0.207 C 
ENDBRANCH   8  10
ENDBRANCH   7   8
ENDBRANCH   6   7
ENDBRANCH   3   6
ENDBRANCH   1   2
BRANCH   1  11
ATOM     11  C   UNL     1      34.553 -19.305 -21.007  0.00  0.00    +0.031 C 
BRANCH  11  12
ATOM     12  C   UNL     1      34.429 -19.272 -22.506  0.00  0.00    -0.027 C 
ATOM     13  C   UNL     1      34.767 -18.258 -23.323  0.00  0.00    +0.016 C 
BRANCH  13  15
ATOM     14  O   UNL     1      34.594 -17.623 -25.623  0.00  0.00    -0.284 OA
ATOM     15  C   UNL     1      34.540 -18.507 -24.775  0.00  0.00    +0.230 C 
ENDBRANCH  13  15
BRANCH  13  16
ATOM     16  C   UNL     1      35.394 -16.947 -22.929  0.00  0.00    +0.038 C 
BRANCH  16  17
ATOM     17  C   UNL     1      34.370 -15.902 -22.486  0.00  0.00    +0.077 C 
BRANCH  17  19
ATOM     18  O   UNL     1      33.183 -14.472 -24.018  0.00  0.00    -0.288 OA
ATOM     19  C   UNL     1      34.245 -14.789 -23.493  0.00  0.00    +0.208 C 
ENDBRANCH  17  19
ENDBRANCH  16  17
ENDBRANCH  13  16
ENDBRANCH  11  12
ENDBRANCH   1  11
TORSDOF 12
ENDMDL
MODEL 9
REMARK VINA RESULT:      -7.0      2.434      4.697
REMARK  Name = 71375225
REMARK  12 active torsions:
REMARK  status: ('A' for Active; 'I' for Inactive)
REMARK    1  A    between atoms: C_1  and  C_2
REMARK    2  A    between atoms: C_1  and  C_11
REMARK    3  A    between atoms: C_2  and  C_5
REMARK    4  A    between atoms: C_3  and  C_6
REMARK    5  A    between atoms: C_6  and  C_7
REMARK    6  A    between atoms: C_7  and  C_8
REMARK    7  A    between atoms: C_8  and  C_10
REMARK    8  A    between atoms: C_11  and  C_12
REMARK    9  A    between atoms: C_13  and  C_15
REMARK   10  A    between atoms: C_13  and  C_16
REMARK   11  A    between atoms: C_16  and  C_17
REMARK   12  A    between atoms: C_17  and  C_19
REMARK                            x       y       z     vdW  Elec       q    Type
REMARK                         _______ _______ _______ _____ _____    ______ ____
ROOT
ATOM      1  C   UNL     1      36.139 -21.039 -19.823  0.00  0.00    +0.034 C 
ENDROOT
BRANCH   1   2
ATOM      2  C   UNL     1      35.412 -21.878 -18.803  0.00  0.00    +0.016 C 
ATOM      3  C   UNL     1      35.829 -22.191 -17.563  0.00  0.00    -0.027 C 
BRANCH   2   5
ATOM      4  O   UNL     1      33.983 -23.644 -19.551  0.00  0.00    -0.284 OA
ATOM      5  C   UNL     1      34.107 -22.474 -19.208  0.00  0.00    +0.230 C 
ENDBRANCH   2   5
BRANCH   3   6
ATOM      6  C   UNL     1      37.095 -21.734 -16.891  0.00  0.00    +0.026 C 
BRANCH   6   7
ATOM      7  C   UNL     1      37.554 -22.751 -15.839  0.00  0.00    +0.013 C 
BRANCH   7   8
ATOM      8  C   UNL     1      36.388 -23.520 -15.222  0.00  0.00    +0.073 C 
BRANCH   8  10
ATOM      9  O   UNL     1      36.015 -25.892 -15.602  0.00  0.00    -0.288 OA
ATOM     10  C   UNL     1      36.649 -24.998 -15.050  0.00  0.00    +0.207 C 
ENDBRANCH   8  10
ENDBRANCH   7   8
ENDBRANCH   6   7
ENDBRANCH   3   6
ENDBRANCH   1   2
BRANCH   1  11
ATOM     11  C   UNL     1      35.234 -20.513 -20.944  0.00  0.00    +0.031 C 
BRANCH  11  12
ATOM     12  C   UNL     1      34.930 -19.047 -20.807  0.00  0.00    -0.027 C 
ATOM     13  C   UNL     1      35.194 -18.079 -21.702  0.00  0.00    +0.016 C 
BRANCH  13  15
ATOM     14  O   UNL     1      33.620 -16.303 -21.398  0.00  0.00    -0.284 OA
ATOM     15  C   UNL     1      34.773 -16.706 -21.300  0.00  0.00    +0.230 C 
ENDBRANCH  13  15
BRANCH  13  16
ATOM     16  C   UNL     1      35.806 -18.249 -23.067  0.00  0.00    +0.038 C 
BRANCH  16  17
ATOM     17  C   UNL     1      34.773 -18.529 -24.158  0.00  0.00    +0.077 C 
BRANCH  17  19
ATOM     18  O   UNL     1      34.916 -16.866 -25.896  0.00  0.00    -0.288 OA
ATOM     19  C   UNL     1      34.369 -17.267 -24.873  0.00  0.00    +0.208 C 
ENDBRANCH  17  19
ENDBRANCH  16  17
ENDBRANCH  13  16
ENDBRANCH  11  12
ENDBRANCH   1  11
TORSDOF 12
ENDMDL
