MODEL 1
REMARK VINA RESULT:      -3.3      0.000      0.000
REMARK  Name = 445768
REMARK  1 active torsions:
REMARK  status: ('A' for Active; 'I' for Inactive)
REMARK    1  A    between atoms: C_2  and  C_5
REMARK                            x       y       z     vdW  Elec       q    Type
REMARK                         _______ _______ _______ _____ _____    ______ ____
ROOT
ATOM      1 CL   UNL     1      34.839 -19.311 -23.308  0.00  0.00    -0.114 Cl
ATOM      2  C   UNL     1      34.409 -18.834 -21.636  0.00  0.00    +0.096 C 
ATOM      3  C   UNL     1      35.244 -17.630 -21.216  0.00  0.00    +0.019 C 
ENDROOT
BRANCH   2   5
ATOM      4 CL   UNL     1      32.969 -20.515 -19.961  0.00  0.00    -0.112 Cl
ATOM      5  C   UNL     1      34.523 -20.024 -20.681  0.00  0.00    +0.111 C 
ENDBRANCH   2   5
TORSDOF 1
ENDMDL
MODEL 2
REMARK VINA RESULT:      -3.3      2.383      3.744
REMARK  Name = 445768
REMARK  1 active torsions:
REMARK  status: ('A' for Active; 'I' for Inactive)
REMARK    1  A    between atoms: C_2  and  C_5
REMARK                            x       y       z     vdW  Elec       q    Type
REMARK                         _______ _______ _______ _____ _____    ______ ____
ROOT
ATOM      1 CL   UNL     1      33.787 -22.466 -18.616  0.00  0.00    -0.114 Cl
ATOM      2  C   UNL     1      35.129 -21.761 -19.569  0.00  0.00    +0.096 C 
ATOM      3  C   UNL     1      36.344 -21.558 -18.672  0.00  0.00    +0.019 C 
ENDROOT
BRANCH   2   5
ATOM      4 CL   UNL     1      32.916 -20.234 -20.257  0.00  0.00    -0.112 Cl
ATOM      5  C   UNL     1      34.679 -20.490 -20.291  0.00  0.00    +0.111 C 
ENDBRANCH   2   5
TORSDOF 1
ENDMDL
MODEL 3
REMARK VINA RESULT:      -3.3      1.755      3.150
REMARK  Name = 445768
REMARK  1 active torsions:
REMARK  status: ('A' for Active; 'I' for Inactive)
REMARK    1  A    between atoms: C_2  and  C_5
REMARK                            x       y       z     vdW  Elec       q    Type
REMARK                         _______ _______ _______ _____ _____    ______ ____
ROOT
ATOM      1 CL   UNL     1      35.647 -20.618 -20.247  0.00  0.00    -0.114 Cl
ATOM      2  C   UNL     1      34.326 -19.575 -20.858  0.00  0.00    +0.096 C 
ATOM      3  C   UNL     1      32.980 -20.174 -20.468  0.00  0.00    +0.019 C 
ENDROOT
BRANCH   2   5
ATOM      4 CL   UNL     1      35.907 -18.352 -22.783  0.00  0.00    -0.112 Cl
ATOM      5  C   UNL     1      34.476 -19.325 -22.359  0.00  0.00    +0.111 C 
ENDBRANCH   2   5
TORSDOF 1
ENDMDL
MODEL 4
REMARK VINA RESULT:      -3.3      2.044      2.106
REMARK  Name = 445768
REMARK  1 active torsions:
REMARK  status: ('A' for Active; 'I' for Inactive)
REMARK    1  A    between atoms: C_2  and  C_5
REMARK                            x       y       z     vdW  Elec       q    Type
REMARK                         _______ _______ _______ _____ _____    ______ ____
ROOT
ATOM      1 CL   UNL     1      35.705 -20.995 -19.710  0.00  0.00    -0.114 Cl
ATOM      2  C   UNL     1      35.295 -19.932 -21.092  0.00  0.00    +0.096 C 
ATOM      3  C   UNL     1      36.296 -18.786 -21.171  0.00  0.00    +0.019 C 
ENDROOT
BRANCH   2   5
ATOM      4 CL   UNL     1      32.829 -20.467 -19.935  0.00  0.00    -0.112 Cl
ATOM      5  C   UNL     1      33.838 -19.471 -21.014  0.00  0.00    +0.111 C 
ENDBRANCH   2   5
TORSDOF 1
ENDMDL
MODEL 5
REMARK VINA RESULT:      -3.3      1.924      2.271
REMARK  Name = 445768
REMARK  1 active torsions:
REMARK  status: ('A' for Active; 'I' for Inactive)
REMARK    1  A    between atoms: C_2  and  C_5
REMARK                            x       y       z     vdW  Elec       q    Type
REMARK                         _______ _______ _______ _____ _____    ______ ____
ROOT
ATOM      1 CL   UNL     1      32.864 -20.197 -20.507  0.00  0.00    -0.114 Cl
ATOM      2  C   UNL     1      34.509 -19.595 -20.878  0.00  0.00    +0.096 C 
ATOM      3  C   UNL     1      34.628 -19.318 -22.372  0.00  0.00    +0.019 C 
ENDROOT
BRANCH   2   5
ATOM      4 CL   UNL     1      34.936 -21.791 -19.236  0.00  0.00    -0.112 Cl
ATOM      5  C   UNL     1      35.576 -20.552 -20.344  0.00  0.00    +0.111 C 
ENDBRANCH   2   5
TORSDOF 1
ENDMDL
MODEL 6
REMARK VINA RESULT:      -3.3      1.583      1.807
REMARK  Name = 445768
REMARK  1 active torsions:
REMARK  status: ('A' for Active; 'I' for Inactive)
REMARK    1  A    between atoms: C_2  and  C_5
REMARK                            x       y       z     vdW  Elec       q    Type
REMARK                         _______ _______ _______ _____ _____    ______ ____
ROOT
ATOM      1 CL   UNL     1      34.961 -17.419 -21.027  0.00  0.00    -0.114 Cl
ATOM      2  C   UNL     1      35.239 -19.103 -21.572  0.00  0.00    +0.096 C 
ATOM      3  C   UNL     1      34.785 -19.254 -23.019  0.00  0.00    +0.019 C 
ENDROOT
BRANCH   2   5
ATOM      4 CL   UNL     1      32.813 -19.953 -20.525  0.00  0.00    -0.112 Cl
ATOM      5  C   UNL     1      34.586 -20.102 -20.616  0.00  0.00    +0.111 C 
ENDBRANCH   2   5
TORSDOF 1
ENDMDL
MODEL 7
REMARK VINA RESULT:      -3.3      9.202      9.641
REMARK  Name = 445768
REMARK  1 active torsions:
REMARK  status: ('A' for Active; 'I' for Inactive)
REMARK    1  A    between atoms: C_2  and  C_5
REMARK                            x       y       z     vdW  Elec       q    Type
REMARK                         _______ _______ _______ _____ _____    ______ ____
ROOT
ATOM      1 CL   UNL     1      41.068 -14.198 -17.991  0.00  0.00    -0.114 Cl
ATOM      2  C   UNL     1      41.858 -15.368 -16.889  0.00  0.00    +0.096 C 
ATOM      3  C   UNL     1      42.120 -16.673 -17.630  0.00  0.00    +0.019 C 
ENDROOT
BRANCH   2   5
ATOM      4 CL   UNL     1      40.851 -14.040 -14.669  0.00  0.00    -0.112 Cl
ATOM      5  C   UNL     1      41.046 -15.544 -15.604  0.00  0.00    +0.111 C 
ENDBRANCH   2   5
TORSDOF 1
ENDMDL
MODEL 8
REMARK VINA RESULT:      -3.3      2.058      2.989
REMARK  Name = 445768
REMARK  1 active torsions:
REMARK  status: ('A' for Active; 'I' for Inactive)
REMARK    1  A    between atoms: C_2  and  C_5
REMARK                            x       y       z     vdW  Elec       q    Type
REMARK                         _______ _______ _______ _____ _____    ______ ____
ROOT
ATOM      1 CL   UNL     1      33.748 -19.863 -20.657  0.00  0.00    -0.114 Cl
ATOM      2  C   UNL     1      34.321 -18.605 -21.795  0.00  0.00    +0.096 C 
ATOM      3  C   UNL     1      34.813 -19.261 -23.079  0.00  0.00    +0.019 C 
ENDROOT
BRANCH   2   5
ATOM      4 CL   UNL     1      34.744 -16.076 -20.731  0.00  0.00    -0.112 Cl
ATOM      5  C   UNL     1      35.360 -17.699 -21.131  0.00  0.00    +0.111 C 
ENDBRANCH   2   5
TORSDOF 1
ENDMDL
MODEL 9
REMARK VINA RESULT:      -3.2      1.836      2.996
REMARK  Name = 445768
REMARK  1 active torsions:
REMARK  status: ('A' for Active; 'I' for Inactive)
REMARK    1  A    between atoms: C_2  and  C_5
REMARK                            x       y       z     vdW  Elec       q    Type
REMARK                         _______ _______ _______ _____ _____    ______ ____
ROOT
ATOM      1 CL   UNL     1      33.596 -19.784 -20.638  0.00  0.00    -0.114 Cl
ATOM      2  C   UNL     1      35.332 -20.060 -20.977  0.00  0.00    +0.096 C 
ATOM      3  C   UNL     1      35.929 -20.953 -19.896  0.00  0.00    +0.019 C 
ENDROOT
BRANCH   2   5
ATOM      4 CL   UNL     1      35.023 -17.302 -21.009  0.00  0.00    -0.112 Cl
ATOM      5  C   UNL     1      36.073 -18.734 -21.157  0.00  0.00    +0.111 C 
ENDBRANCH   2   5
TORSDOF 1
ENDMDL
