MODEL 1
REMARK VINA RESULT:      -9.9      0.000      0.000
REMARK  Name = 2266114
REMARK  3 active torsions:
REMARK  status: ('A' for Active; 'I' for Inactive)
REMARK    1  A    between atoms: N_2  and  C_7
REMARK    2  A    between atoms: C_4  and  C_15
REMARK    3  A    between atoms: N_14  and  C_17
REMARK                            x       y       z     vdW  Elec       q    Type
REMARK                         _______ _______ _______ _____ _____    ______ ____
ROOT
ATOM      1  O   UNL     1      32.929 -15.529 -25.842  0.00  0.00    -0.275 OA
ATOM      2  N   UNL     1      33.792 -15.356 -23.663  0.00  0.00    -0.281 N 
ATOM      3  C   UNL     1      34.948 -15.833 -22.940  0.00  0.00    +0.103 C 
ATOM      4  C   UNL     1      35.441 -17.002 -23.775  0.00  0.00    +0.106 C 
ATOM      5  C   UNL     1      34.939 -16.710 -25.189  0.00  0.00    +0.096 C 
ATOM      6  C   UNL     1      33.745 -15.810 -24.977  0.00  0.00    +0.226 C 
ENDROOT
BRANCH   2   7
ATOM      7  C   UNL     1      32.882 -14.401 -23.078  0.00  0.00    +0.075 C 
ATOM      8  C   UNL     1      32.860 -14.537 -21.554  0.00  0.00    +0.020 C 
ATOM      9  C   UNL     1      33.251 -12.978 -23.506  0.00  0.00    +0.020 C 
ATOM     10  C   UNL     1      31.944 -13.499 -20.911  0.00  0.00    +0.002 C 
ATOM     11  C   UNL     1      32.336 -11.942 -22.859  0.00  0.00    +0.002 C 
ATOM     12  C   UNL     1      32.311 -12.081 -21.340  0.00  0.00    +0.000 C 
ENDBRANCH   2   7
BRANCH   4  15
ATOM     13  O   UNL     1      34.455 -19.146 -24.055  0.00  0.00    -0.275 OA
ATOM     14  N   UNL     1      34.995 -18.393 -21.891  0.00  0.00    -0.284 N 
ATOM     15  C   UNL     1      34.903 -18.311 -23.275  0.00  0.00    +0.228 C 
ATOM     16  H   UNL     1      35.385 -17.615 -21.433  0.00  0.00    +0.155 HD
BRANCH  14  17
ATOM     17  C   UNL     1      34.592 -19.469 -21.064  0.00  0.00    +0.050 C 
ATOM     18  C   UNL     1      35.551 -20.326 -20.552  0.00  0.00    +0.015 C 
ATOM     19  C   UNL     1      33.246 -19.640 -20.784  0.00  0.00    +0.015 C 
ATOM     20  C   UNL     1      35.153 -21.386 -19.735  0.00  0.00    +0.001 C 
ATOM     21  C   UNL     1      32.848 -20.699 -19.968  0.00  0.00    +0.001 C 
ATOM     22  C   UNL     1      33.802 -21.572 -19.444  0.00  0.00    +0.000 C 
ENDBRANCH  14  17
ENDBRANCH   4  15
TORSDOF 3
ENDMDL
MODEL 2
REMARK VINA RESULT:      -9.5      4.070      6.894
REMARK  Name = 2266114
REMARK  3 active torsions:
REMARK  status: ('A' for Active; 'I' for Inactive)
REMARK    1  A    between atoms: N_2  and  C_7
REMARK    2  A    between atoms: C_4  and  C_15
REMARK    3  A    between atoms: N_14  and  C_17
REMARK                            x       y       z     vdW  Elec       q    Type
REMARK                         _______ _______ _______ _____ _____    ______ ____
ROOT
ATOM      1  O   UNL     1      32.319  -9.064 -19.291  0.00  0.00    -0.275 OA
ATOM      2  N   UNL     1      32.078  -9.483 -21.592  0.00  0.00    -0.281 N 
ATOM      3  C   UNL     1      31.330 -10.389 -22.431  0.00  0.00    +0.103 C 
ATOM      4  C   UNL     1      30.942 -11.518 -21.492  0.00  0.00    +0.106 C 
ATOM      5  C   UNL     1      30.941 -10.884 -20.101  0.00  0.00    +0.096 C 
ATOM      6  C   UNL     1      31.875  -9.704 -20.233  0.00  0.00    +0.226 C 
ENDROOT
BRANCH   2   7
ATOM      7  C   UNL     1      32.837  -8.392 -22.153  0.00  0.00    +0.075 C 
ATOM      8  C   UNL     1      33.775  -8.894 -23.253  0.00  0.00    +0.020 C 
ATOM      9  C   UNL     1      31.900  -7.299 -22.675  0.00  0.00    +0.020 C 
ATOM     10  C   UNL     1      34.549  -7.748 -23.898  0.00  0.00    +0.002 C 
ATOM     11  C   UNL     1      32.677  -6.156 -23.323  0.00  0.00    +0.002 C 
ATOM     12  C   UNL     1      33.614  -6.658 -24.416  0.00  0.00    +0.000 C 
ENDBRANCH   2   7
BRANCH   4  15
ATOM     13  O   UNL     1      32.391 -13.141 -20.537  0.00  0.00    -0.275 OA
ATOM     14  N   UNL     1      32.157 -13.031 -22.876  0.00  0.00    -0.284 N 
ATOM     15  C   UNL     1      31.915 -12.658 -21.560  0.00  0.00    +0.228 C 
ATOM     16  H   UNL     1      31.681 -12.520 -23.569  0.00  0.00    +0.155 HD
BRANCH  14  17
ATOM     17  C   UNL     1      33.012 -14.061 -23.336  0.00  0.00    +0.050 C 
ATOM     18  C   UNL     1      33.920 -14.630 -22.459  0.00  0.00    +0.015 C 
ATOM     19  C   UNL     1      32.922 -14.479 -24.653  0.00  0.00    +0.015 C 
ATOM     20  C   UNL     1      34.762 -15.646 -22.911  0.00  0.00    +0.001 C 
ATOM     21  C   UNL     1      33.763 -15.496 -25.107  0.00  0.00    +0.001 C 
ATOM     22  C   UNL     1      34.684 -16.078 -24.235  0.00  0.00    +0.000 C 
ENDBRANCH  14  17
ENDBRANCH   4  15
TORSDOF 3
ENDMDL
MODEL 3
REMARK VINA RESULT:      -9.5      4.165      6.829
REMARK  Name = 2266114
REMARK  3 active torsions:
REMARK  status: ('A' for Active; 'I' for Inactive)
REMARK    1  A    between atoms: N_2  and  C_7
REMARK    2  A    between atoms: C_4  and  C_15
REMARK    3  A    between atoms: N_14  and  C_17
REMARK                            x       y       z     vdW  Elec       q    Type
REMARK                         _______ _______ _______ _____ _____    ______ ____
ROOT
ATOM      1  O   UNL     1      32.592  -8.820 -19.696  0.00  0.00    -0.275 OA
ATOM      2  N   UNL     1      31.845  -9.029 -21.915  0.00  0.00    -0.281 N 
ATOM      3  C   UNL     1      31.068  -9.969 -22.687  0.00  0.00    +0.103 C 
ATOM      4  C   UNL     1      31.125 -11.247 -21.867  0.00  0.00    +0.106 C 
ATOM      5  C   UNL     1      31.374 -10.778 -20.434  0.00  0.00    +0.096 C 
ATOM      6  C   UNL     1      32.034  -9.430 -20.596  0.00  0.00    +0.226 C 
ENDROOT
BRANCH   2   7
ATOM      7  C   UNL     1      32.244  -7.755 -22.463  0.00  0.00    +0.075 C 
ATOM      8  C   UNL     1      33.314  -7.941 -23.542  0.00  0.00    +0.020 C 
ATOM      9  C   UNL     1      31.028  -7.001 -23.008  0.00  0.00    +0.020 C 
ATOM     10  C   UNL     1      33.713  -6.610 -24.173  0.00  0.00    +0.002 C 
ATOM     11  C   UNL     1      31.430  -5.672 -23.643  0.00  0.00    +0.002 C 
ATOM     12  C   UNL     1      32.499  -5.858 -24.715  0.00  0.00    +0.000 C 
ENDBRANCH   2   7
BRANCH   4  15
ATOM     13  O   UNL     1      32.955 -11.837 -23.263  0.00  0.00    -0.275 OA
ATOM     14  N   UNL     1      32.252 -13.328 -21.584  0.00  0.00    -0.284 N 
ATOM     15  C   UNL     1      32.223 -12.158 -22.332  0.00  0.00    +0.228 C 
ATOM     16  H   UNL     1      31.576 -13.408 -20.873  0.00  0.00    +0.155 HD
BRANCH  14  17
ATOM     17  C   UNL     1      33.142 -14.420 -21.727  0.00  0.00    +0.050 C 
ATOM     18  C   UNL     1      33.351 -14.963 -22.983  0.00  0.00    +0.015 C 
ATOM     19  C   UNL     1      33.785 -14.920 -20.608  0.00  0.00    +0.015 C 
ATOM     20  C   UNL     1      34.229 -16.038 -23.125  0.00  0.00    +0.001 C 
ATOM     21  C   UNL     1      34.664 -15.995 -20.748  0.00  0.00    +0.001 C 
ATOM     22  C   UNL     1      34.885 -16.554 -22.007  0.00  0.00    +0.000 C 
ENDBRANCH  14  17
ENDBRANCH   4  15
TORSDOF 3
ENDMDL
MODEL 4
REMARK VINA RESULT:      -9.3      1.692      2.404
REMARK  Name = 2266114
REMARK  3 active torsions:
REMARK  status: ('A' for Active; 'I' for Inactive)
REMARK    1  A    between atoms: N_2  and  C_7
REMARK    2  A    between atoms: C_4  and  C_15
REMARK    3  A    between atoms: N_14  and  C_17
REMARK                            x       y       z     vdW  Elec       q    Type
REMARK                         _______ _______ _______ _____ _____    ______ ____
ROOT
ATOM      1  O   UNL     1      33.976 -18.058 -25.615  0.00  0.00    -0.275 OA
ATOM      2  N   UNL     1      34.447 -16.526 -23.895  0.00  0.00    -0.281 N 
ATOM      3  C   UNL     1      35.337 -16.447 -22.760  0.00  0.00    +0.103 C 
ATOM      4  C   UNL     1      35.736 -17.891 -22.511  0.00  0.00    +0.106 C 
ATOM      5  C   UNL     1      35.565 -18.581 -23.864  0.00  0.00    +0.096 C 
ATOM      6  C   UNL     1      34.551 -17.727 -24.588  0.00  0.00    +0.226 C 
ENDROOT
BRANCH   2   7
ATOM      7  C   UNL     1      33.650 -15.395 -24.305  0.00  0.00    +0.075 C 
ATOM      8  C   UNL     1      34.142 -14.112 -23.629  0.00  0.00    +0.020 C 
ATOM      9  C   UNL     1      33.656 -15.259 -25.830  0.00  0.00    +0.020 C 
ATOM     10  C   UNL     1      33.347 -12.894 -24.091  0.00  0.00    +0.002 C 
ATOM     11  C   UNL     1      32.864 -14.038 -26.288  0.00  0.00    +0.002 C 
ATOM     12  C   UNL     1      33.352 -12.762 -25.611  0.00  0.00    +0.000 C 
ENDBRANCH   2   7
BRANCH   4  15
ATOM     13  O   UNL     1      33.874 -17.964 -21.037  0.00  0.00    -0.275 OA
ATOM     14  N   UNL     1      35.365 -19.784 -21.109  0.00  0.00    -0.284 N 
ATOM     15  C   UNL     1      34.871 -18.536 -21.467  0.00  0.00    +0.228 C 
ATOM     16  H   UNL     1      36.186 -20.075 -21.566  0.00  0.00    +0.155 HD
BRANCH  14  17
ATOM     17  C   UNL     1      34.823 -20.685 -20.162  0.00  0.00    +0.050 C 
ATOM     18  C   UNL     1      35.678 -21.396 -19.336  0.00  0.00    +0.015 C 
ATOM     19  C   UNL     1      33.449 -20.836 -20.079  0.00  0.00    +0.015 C 
ATOM     20  C   UNL     1      35.144 -22.283 -18.401  0.00  0.00    +0.001 C 
ATOM     21  C   UNL     1      32.914 -21.722 -19.144  0.00  0.00    +0.001 C 
ATOM     22  C   UNL     1      33.762 -22.446 -18.306  0.00  0.00    +0.000 C 
ENDBRANCH  14  17
ENDBRANCH   4  15
TORSDOF 3
ENDMDL
MODEL 5
REMARK VINA RESULT:      -8.6      2.545      7.778
REMARK  Name = 2266114
REMARK  3 active torsions:
REMARK  status: ('A' for Active; 'I' for Inactive)
REMARK    1  A    between atoms: N_2  and  C_7
REMARK    2  A    between atoms: C_4  and  C_15
REMARK    3  A    between atoms: N_14  and  C_17
REMARK                            x       y       z     vdW  Elec       q    Type
REMARK                         _______ _______ _______ _____ _____    ______ ____
ROOT
ATOM      1  O   UNL     1      34.286 -16.073 -26.129  0.00  0.00    -0.275 OA
ATOM      2  N   UNL     1      33.933 -15.429 -23.896  0.00  0.00    -0.281 N 
ATOM      3  C   UNL     1      33.057 -14.534 -23.177  0.00  0.00    +0.103 C 
ATOM      4  C   UNL     1      32.559 -13.577 -24.246  0.00  0.00    +0.106 C 
ATOM      5  C   UNL     1      32.674 -14.360 -25.553  0.00  0.00    +0.096 C 
ATOM      6  C   UNL     1      33.741 -15.391 -25.273  0.00  0.00    +0.226 C 
ENDROOT
BRANCH   2   7
ATOM      7  C   UNL     1      34.805 -16.346 -23.202  0.00  0.00    +0.075 C 
ATOM      8  C   UNL     1      34.426 -16.438 -21.721  0.00  0.00    +0.020 C 
ATOM      9  C   UNL     1      34.778 -17.723 -23.871  0.00  0.00    +0.020 C 
ATOM     10  C   UNL     1      35.302 -17.444 -20.979  0.00  0.00    +0.002 C 
ATOM     11  C   UNL     1      35.652 -18.727 -23.125  0.00  0.00    +0.002 C 
ATOM     12  C   UNL     1      35.276 -18.815 -21.649  0.00  0.00    +0.000 C 
ENDBRANCH   2   7
BRANCH   4  15
ATOM     13  O   UNL     1      34.417 -12.277 -24.956  0.00  0.00    -0.275 OA
ATOM     14  N   UNL     1      32.809 -11.317 -23.531  0.00  0.00    -0.284 N 
ATOM     15  C   UNL     1      33.382 -12.323 -24.298  0.00  0.00    +0.228 C 
ATOM     16  H   UNL     1      31.971 -11.545 -23.068  0.00  0.00    +0.155 HD
BRANCH  14  17
ATOM     17  C   UNL     1      33.293 -10.001 -23.336  0.00  0.00    +0.050 C 
ATOM     18  C   UNL     1      34.379  -9.563 -24.075  0.00  0.00    +0.015 C 
ATOM     19  C   UNL     1      32.670  -9.179 -22.412  0.00  0.00    +0.015 C 
ATOM     20  C   UNL     1      34.856  -8.265 -23.885  0.00  0.00    +0.001 C 
ATOM     21  C   UNL     1      33.145  -7.882 -22.221  0.00  0.00    +0.001 C 
ATOM     22  C   UNL     1      34.239  -7.426 -22.957  0.00  0.00    +0.000 C 
ENDBRANCH  14  17
ENDBRANCH   4  15
TORSDOF 3
ENDMDL
MODEL 6
REMARK VINA RESULT:      -8.6      1.562      2.246
REMARK  Name = 2266114
REMARK  3 active torsions:
REMARK  status: ('A' for Active; 'I' for Inactive)
REMARK    1  A    between atoms: N_2  and  C_7
REMARK    2  A    between atoms: C_4  and  C_15
REMARK    3  A    between atoms: N_14  and  C_17
REMARK                            x       y       z     vdW  Elec       q    Type
REMARK                         _______ _______ _______ _____ _____    ______ ____
ROOT
ATOM      1  O   UNL     1      34.230 -17.880 -25.069  0.00  0.00    -0.275 OA
ATOM      2  N   UNL     1      34.462 -16.772 -23.009  0.00  0.00    -0.281 N 
ATOM      3  C   UNL     1      35.276 -16.899 -21.823  0.00  0.00    +0.103 C 
ATOM      4  C   UNL     1      35.791 -18.327 -21.887  0.00  0.00    +0.106 C 
ATOM      5  C   UNL     1      35.760 -18.685 -23.372  0.00  0.00    +0.096 C 
ATOM      6  C   UNL     1      34.714 -17.762 -23.953  0.00  0.00    +0.226 C 
ENDROOT
BRANCH   2   7
ATOM      7  C   UNL     1      33.589 -15.640 -23.203  0.00  0.00    +0.075 C 
ATOM      8  C   UNL     1      33.261 -14.972 -21.865  0.00  0.00    +0.020 C 
ATOM      9  C   UNL     1      34.214 -14.644 -24.184  0.00  0.00    +0.020 C 
ATOM     10  C   UNL     1      32.382 -13.739 -22.053  0.00  0.00    +0.002 C 
ATOM     11  C   UNL     1      33.334 -13.410 -24.368  0.00  0.00    +0.002 C 
ATOM     12  C   UNL     1      33.005 -12.748 -23.033  0.00  0.00    +0.000 C 
ENDBRANCH   2   7
BRANCH   4  15
ATOM     13  O   UNL     1      33.713 -19.275 -21.233  0.00  0.00    -0.275 OA
ATOM     14  N   UNL     1      35.701 -20.047 -20.239  0.00  0.00    -0.284 N 
ATOM     15  C   UNL     1      34.932 -19.265 -21.091  0.00  0.00    +0.228 C 
ATOM     16  H   UNL     1      36.673 -19.893 -20.264  0.00  0.00    +0.155 HD
BRANCH  14  17
ATOM     17  C   UNL     1      35.249 -21.041 -19.339  0.00  0.00    +0.050 C 
ATOM     18  C   UNL     1      36.125 -21.549 -18.394  0.00  0.00    +0.015 C 
ATOM     19  C   UNL     1      33.939 -21.484 -19.420  0.00  0.00    +0.015 C 
ATOM     20  C   UNL     1      35.678 -22.528 -17.505  0.00  0.00    +0.001 C 
ATOM     21  C   UNL     1      33.492 -22.462 -18.532  0.00  0.00    +0.001 C 
ATOM     22  C   UNL     1      34.362 -22.984 -17.575  0.00  0.00    +0.000 C 
ENDBRANCH  14  17
ENDBRANCH   4  15
TORSDOF 3
ENDMDL
MODEL 7
REMARK VINA RESULT:      -8.6      1.798      7.178
REMARK  Name = 2266114
REMARK  3 active torsions:
REMARK  status: ('A' for Active; 'I' for Inactive)
REMARK    1  A    between atoms: N_2  and  C_7
REMARK    2  A    between atoms: C_4  and  C_15
REMARK    3  A    between atoms: N_14  and  C_17
REMARK                            x       y       z     vdW  Elec       q    Type
REMARK                         _______ _______ _______ _____ _____    ______ ____
ROOT
ATOM      1  O   UNL     1      37.406 -19.102 -21.053  0.00  0.00    -0.275 OA
ATOM      2  N   UNL     1      35.065 -19.187 -21.253  0.00  0.00    -0.281 N 
ATOM      3  C   UNL     1      34.064 -18.728 -22.186  0.00  0.00    +0.103 C 
ATOM      4  C   UNL     1      34.773 -17.637 -22.971  0.00  0.00    +0.106 C 
ATOM      5  C   UNL     1      36.257 -17.988 -22.871  0.00  0.00    +0.096 C 
ATOM      6  C   UNL     1      36.357 -18.812 -21.608  0.00  0.00    +0.226 C 
ENDROOT
BRANCH   2   7
ATOM      7  C   UNL     1      34.725 -20.058 -20.154  0.00  0.00    +0.075 C 
ATOM      8  C   UNL     1      33.282 -20.553 -20.282  0.00  0.00    +0.020 C 
ATOM      9  C   UNL     1      35.709 -21.228 -20.072  0.00  0.00    +0.020 C 
ATOM     10  C   UNL     1      32.917 -21.519 -19.158  0.00  0.00    +0.002 C 
ATOM     11  C   UNL     1      35.341 -22.195 -18.950  0.00  0.00    +0.002 C 
ATOM     12  C   UNL     1      33.901 -22.683 -19.076  0.00  0.00    +0.000 C 
ENDBRANCH   2   7
BRANCH   4  15
ATOM     13  O   UNL     1      34.930 -15.962 -21.294  0.00  0.00    -0.275 OA
ATOM     14  N   UNL     1      33.748 -15.507 -23.277  0.00  0.00    -0.284 N 
ATOM     15  C   UNL     1      34.503 -16.275 -22.401  0.00  0.00    +0.228 C 
ATOM     16  H   UNL     1      33.495 -15.935 -24.126  0.00  0.00    +0.155 HD
BRANCH  14  17
ATOM     17  C   UNL     1      33.300 -14.177 -23.089  0.00  0.00    +0.050 C 
ATOM     18  C   UNL     1      32.379 -13.908 -22.091  0.00  0.00    +0.015 C 
ATOM     19  C   UNL     1      33.792 -13.174 -23.907  0.00  0.00    +0.015 C 
ATOM     20  C   UNL     1      31.938 -12.597 -21.904  0.00  0.00    +0.001 C 
ATOM     21  C   UNL     1      33.352 -11.863 -23.721  0.00  0.00    +0.001 C 
ATOM     22  C   UNL     1      32.424 -11.576 -22.720  0.00  0.00    +0.000 C 
ENDBRANCH  14  17
ENDBRANCH   4  15
TORSDOF 3
ENDMDL
MODEL 8
REMARK VINA RESULT:      -8.5      3.427      8.531
REMARK  Name = 2266114
REMARK  3 active torsions:
REMARK  status: ('A' for Active; 'I' for Inactive)
REMARK    1  A    between atoms: N_2  and  C_7
REMARK    2  A    between atoms: C_4  and  C_15
REMARK    3  A    between atoms: N_14  and  C_17
REMARK                            x       y       z     vdW  Elec       q    Type
REMARK                         _______ _______ _______ _____ _____    ______ ____
ROOT
ATOM      1  O   UNL     1      37.300 -21.050 -17.205  0.00  0.00    -0.275 OA
ATOM      2  N   UNL     1      35.310 -22.076 -17.924  0.00  0.00    -0.281 N 
ATOM      3  C   UNL     1      34.719 -22.481 -19.178  0.00  0.00    +0.103 C 
ATOM      4  C   UNL     1      35.478 -21.670 -20.214  0.00  0.00    +0.106 C 
ATOM      5  C   UNL     1      36.824 -21.362 -19.559  0.00  0.00    +0.096 C 
ATOM      6  C   UNL     1      36.540 -21.446 -18.078  0.00  0.00    +0.226 C 
ENDROOT
BRANCH   2   7
ATOM      7  C   UNL     1      34.711 -22.434 -16.661  0.00  0.00    +0.075 C 
ATOM      8  C   UNL     1      33.379 -23.157 -16.878  0.00  0.00    +0.020 C 
ATOM      9  C   UNL     1      35.677 -23.282 -15.830  0.00  0.00    +0.020 C 
ATOM     10  C   UNL     1      32.754 -23.592 -15.556  0.00  0.00    +0.002 C 
ATOM     11  C   UNL     1      35.047 -23.719 -14.509  0.00  0.00    +0.002 C 
ATOM     12  C   UNL     1      33.719 -24.436 -14.728  0.00  0.00    +0.000 C 
ENDBRANCH   2   7
BRANCH   4  15
ATOM     13  O   UNL     1      33.579 -20.241 -20.250  0.00  0.00    -0.275 OA
ATOM     14  N   UNL     1      35.579 -19.535 -21.271  0.00  0.00    -0.284 N 
ATOM     15  C   UNL     1      34.753 -20.405 -20.571  0.00  0.00    +0.228 C 
ATOM     16  H   UNL     1      36.497 -19.846 -21.438  0.00  0.00    +0.155 HD
BRANCH  14  17
ATOM     17  C   UNL     1      35.251 -18.253 -21.772  0.00  0.00    +0.050 C 
ATOM     18  C   UNL     1      35.020 -17.216 -20.883  0.00  0.00    +0.015 C 
ATOM     19  C   UNL     1      35.170 -18.061 -23.141  0.00  0.00    +0.015 C 
ATOM     20  C   UNL     1      34.698 -15.952 -21.377  0.00  0.00    +0.001 C 
ATOM     21  C   UNL     1      34.849 -16.797 -23.636  0.00  0.00    +0.001 C 
ATOM     22  C   UNL     1      34.612 -15.743 -22.754  0.00  0.00    +0.000 C 
ENDBRANCH  14  17
ENDBRANCH   4  15
TORSDOF 3
ENDMDL
MODEL 9
REMARK VINA RESULT:      -8.3      6.337     10.524
REMARK  Name = 2266114
REMARK  3 active torsions:
REMARK  status: ('A' for Active; 'I' for Inactive)
REMARK    1  A    between atoms: N_2  and  C_7
REMARK    2  A    between atoms: C_4  and  C_15
REMARK    3  A    between atoms: N_14  and  C_17
REMARK                            x       y       z     vdW  Elec       q    Type
REMARK                         _______ _______ _______ _____ _____    ______ ____
ROOT
ATOM      1  O   UNL     1      33.236 -23.177 -12.535  0.00  0.00    -0.275 OA
ATOM      2  N   UNL     1      32.610 -24.000 -14.646  0.00  0.00    -0.281 N 
ATOM      3  C   UNL     1      33.258 -24.627 -15.774  0.00  0.00    +0.103 C 
ATOM      4  C   UNL     1      34.725 -24.278 -15.589  0.00  0.00    +0.106 C 
ATOM      5  C   UNL     1      34.882 -24.039 -14.088  0.00  0.00    +0.096 C 
ATOM      6  C   UNL     1      33.494 -23.660 -13.627  0.00  0.00    +0.226 C 
ENDROOT
BRANCH   2   7
ATOM      7  C   UNL     1      31.173 -23.885 -14.573  0.00  0.00    +0.075 C 
ATOM      8  C   UNL     1      30.661 -22.852 -15.580  0.00  0.00    +0.020 C 
ATOM      9  C   UNL     1      30.514 -25.249 -14.790  0.00  0.00    +0.020 C 
ATOM     10  C   UNL     1      29.138 -22.753 -15.558  0.00  0.00    +0.002 C 
ATOM     11  C   UNL     1      28.991 -25.147 -14.771  0.00  0.00    +0.002 C 
ATOM     12  C   UNL     1      28.482 -24.115 -15.772  0.00  0.00    +0.000 C 
ENDBRANCH   2   7
BRANCH   4  15
ATOM     13  O   UNL     1      35.863 -22.214 -15.890  0.00  0.00    -0.275 OA
ATOM     14  N   UNL     1      34.506 -23.050 -17.621  0.00  0.00    -0.284 N 
ATOM     15  C   UNL     1      35.109 -23.055 -16.370  0.00  0.00    +0.228 C 
ATOM     16  H   UNL     1      33.925 -23.818 -17.828  0.00  0.00    +0.155 HD
BRANCH  14  17
ATOM     17  C   UNL     1      34.628 -22.068 -18.633  0.00  0.00    +0.050 C 
ATOM     18  C   UNL     1      33.484 -21.534 -19.201  0.00  0.00    +0.015 C 
ATOM     19  C   UNL     1      35.890 -21.660 -19.032  0.00  0.00    +0.015 C 
ATOM     20  C   UNL     1      33.605 -20.564 -20.197  0.00  0.00    +0.001 C 
ATOM     21  C   UNL     1      36.012 -20.691 -20.027  0.00  0.00    +0.001 C 
ATOM     22  C   UNL     1      34.869 -20.144 -20.610  0.00  0.00    +0.000 C 
ENDBRANCH  14  17
ENDBRANCH   4  15
TORSDOF 3
ENDMDL
