MODEL 1
REMARK VINA RESULT:     -12.8      0.000      0.000
REMARK  Name = 24978486
REMARK  5 active torsions:
REMARK  status: ('A' for Active; 'I' for Inactive)
REMARK    1  A    between atoms: O_1  and  C_6
REMARK    2  A    between atoms: O_1  and  C_18
REMARK    3  A    between atoms: C_18  and  C_20
REMARK    4  A    between atoms: N_19  and  C_26
REMARK    5  A    between atoms: C_26  and  C_29
REMARK                            x       y       z     vdW  Elec       q    Type
REMARK                         _______ _______ _______ _____ _____    ______ ____
ROOT
ATOM      1  O   UNL     1      34.894 -22.829 -17.250  0.00  0.00    -0.479 OA
ENDROOT
BRANCH   1   6
ATOM      2  N   UNL     1      35.860 -23.979 -12.643  0.00  0.00    -0.332 NA
ATOM      3  N   UNL     1      37.697 -23.380 -14.082  0.00  0.00    -0.317 NA
ATOM      4  N   UNL     1      37.355 -22.808 -16.316  0.00  0.00    -0.335 N 
ATOM      5  N   UNL     1      38.064 -23.951 -11.840  0.00  0.00    -0.283 N 
ATOM      6  C   UNL     1      34.523 -23.214 -15.986  0.00  0.00    +0.130 C 
ATOM      7  C   UNL     1      35.435 -23.401 -14.932  0.00  0.00    +0.177 C 
ATOM      8  C   UNL     1      33.165 -23.424 -15.775  0.00  0.00    +0.033 C 
ATOM      9  C   UNL     1      34.996 -23.798 -13.658  0.00  0.00    +0.137 C 
ATOM     10  C   UNL     1      36.806 -23.208 -15.076  0.00  0.00    +0.181 C 
ATOM     11  C   UNL     1      32.718 -23.818 -14.519  0.00  0.00    +0.005 C 
ATOM     12  C   UNL     1      33.631 -24.001 -13.475  0.00  0.00    +0.030 C 
ATOM     13  C   UNL     1      37.163 -23.760 -12.910  0.00  0.00    +0.197 C 
ATOM     14  H   UNL     1      38.326 -22.674 -16.405  0.00  0.00    +0.144 HD
ATOM     15  H   UNL     1      36.765 -22.661 -17.091  0.00  0.00    +0.144 HD
ATOM     16  H   UNL     1      37.727 -24.230 -10.958  0.00  0.00    +0.156 HD
ATOM     17  H   UNL     1      39.028 -23.805 -11.974  0.00  0.00    +0.156 HD
ENDBRANCH   1   6
BRANCH   1  18
ATOM     18  C   UNL     1      33.862 -22.701 -18.211  0.00  0.00    +0.205 C 
BRANCH  18  20
ATOM     19  N   UNL     1      35.343 -19.446 -20.633  0.00  0.00    +0.390 N 
ATOM     20  C   UNL     1      34.413 -21.946 -19.418  0.00  0.00    +0.040 C 
ATOM     21  C   UNL     1      35.788 -21.345 -19.111  0.00  0.00    -0.019 C 
ATOM     22  C   UNL     1      33.451 -20.839 -19.860  0.00  0.00    -0.019 C 
ATOM     23  C   UNL     1      36.301 -20.503 -20.282  0.00  0.00    -0.077 C 
ATOM     24  C   UNL     1      34.041 -20.014 -21.006  0.00  0.00    -0.077 C 
ATOM     25  H   UNL     1      35.207 -18.858 -19.811  0.00  0.00    -0.079 HD
BRANCH  19  26
ATOM     26  C   UNL     1      35.870 -18.619 -21.718  0.00  0.00    -0.049 C 
BRANCH  26  29
ATOM     27 CL   UNL     1      34.971 -17.750 -24.497  0.00  0.00    -0.082 Cl
ATOM     28 CL   UNL     1      33.415 -14.941 -24.603  0.00  0.00    -0.081 Cl
ATOM     29  C   UNL     1      35.136 -17.310 -21.834  0.00  0.00    -0.032 C 
ATOM     30  C   UNL     1      34.682 -16.822 -23.060  0.00  0.00    +0.062 C 
ATOM     31  C   UNL     1      34.913 -16.579 -20.668  0.00  0.00    -0.005 C 
ATOM     32  C   UNL     1      34.005 -15.604 -23.118  0.00  0.00    +0.068 C 
ATOM     33  C   UNL     1      34.236 -15.361 -20.726  0.00  0.00    +0.001 C 
ATOM     34  C   UNL     1      33.782 -14.873 -21.952  0.00  0.00    +0.012 C 
ENDBRANCH  26  29
ENDBRANCH  19  26
ENDBRANCH  18  20
ENDBRANCH   1  18
TORSDOF 5
ENDMDL
MODEL 2
REMARK VINA RESULT:     -12.4      1.442      2.218
REMARK  Name = 24978486
REMARK  5 active torsions:
REMARK  status: ('A' for Active; 'I' for Inactive)
REMARK    1  A    between atoms: O_1  and  C_6
REMARK    2  A    between atoms: O_1  and  C_18
REMARK    3  A    between atoms: C_18  and  C_20
REMARK    4  A    between atoms: N_19  and  C_26
REMARK    5  A    between atoms: C_26  and  C_29
REMARK                            x       y       z     vdW  Elec       q    Type
REMARK                         _______ _______ _______ _____ _____    ______ ____
ROOT
ATOM      1  O   UNL     1      34.448 -23.200 -17.674  0.00  0.00    -0.479 OA
ENDROOT
BRANCH   1   6
ATOM      2  N   UNL     1      33.673 -24.058 -12.968  0.00  0.00    -0.332 NA
ATOM      3  N   UNL     1      35.945 -24.061 -13.773  0.00  0.00    -0.317 NA
ATOM      4  N   UNL     1      36.441 -23.661 -16.016  0.00  0.00    -0.335 N 
ATOM      5  N   UNL     1      35.469 -24.465 -11.514  0.00  0.00    -0.283 N 
ATOM      6  C   UNL     1      33.634 -23.354 -16.580  0.00  0.00    +0.130 C 
ATOM      7  C   UNL     1      34.111 -23.638 -15.289  0.00  0.00    +0.177 C 
ATOM      8  C   UNL     1      32.267 -23.215 -16.801  0.00  0.00    +0.033 C 
ATOM      9  C   UNL     1      33.227 -23.786 -14.208  0.00  0.00    +0.137 C 
ATOM     10  C   UNL     1      35.464 -23.789 -15.000  0.00  0.00    +0.181 C 
ATOM     11  C   UNL     1      31.382 -23.359 -15.739  0.00  0.00    +0.005 C 
ATOM     12  C   UNL     1      31.865 -23.642 -14.457  0.00  0.00    +0.030 C 
ATOM     13  C   UNL     1      35.008 -24.181 -12.818  0.00  0.00    +0.197 C 
ATOM     14  H   UNL     1      37.394 -23.769 -15.799  0.00  0.00    +0.144 HD
ATOM     15  H   UNL     1      36.165 -23.462 -16.940  0.00  0.00    +0.144 HD
ATOM     16  H   UNL     1      34.826 -24.563 -10.776  0.00  0.00    +0.156 HD
ATOM     17  H   UNL     1      36.434 -24.564 -11.343  0.00  0.00    +0.156 HD
ENDBRANCH   1   6
BRANCH   1  18
ATOM     18  C   UNL     1      33.838 -22.763 -18.874  0.00  0.00    +0.205 C 
BRANCH  18  20
ATOM     19  N   UNL     1      35.476 -19.540 -21.238  0.00  0.00    +0.390 N 
ATOM     20  C   UNL     1      34.403 -21.391 -19.235  0.00  0.00    +0.040 C 
ATOM     21  C   UNL     1      33.511 -20.680 -20.257  0.00  0.00    -0.019 C 
ATOM     22  C   UNL     1      35.828 -21.510 -19.784  0.00  0.00    -0.019 C 
ATOM     23  C   UNL     1      34.123 -19.348 -20.698  0.00  0.00    -0.077 C 
ATOM     24  C   UNL     1      36.363 -20.151 -20.240  0.00  0.00    -0.077 C 
ATOM     25  H   UNL     1      35.410 -20.177 -22.033  0.00  0.00    -0.079 HD
BRANCH  19  26
ATOM     26  C   UNL     1      36.026 -18.267 -21.702  0.00  0.00    -0.049 C 
BRANCH  26  29
ATOM     27 CL   UNL     1      34.834 -15.467 -21.565  0.00  0.00    -0.082 Cl
ATOM     28 CL   UNL     1      33.331 -14.499 -24.235  0.00  0.00    -0.081 Cl
ATOM     29  C   UNL     1      35.308 -17.757 -22.923  0.00  0.00    -0.032 C 
ATOM     30  C   UNL     1      34.727 -16.489 -22.963  0.00  0.00    +0.062 C 
ATOM     31  C   UNL     1      35.233 -18.593 -24.037  0.00  0.00    -0.005 C 
ATOM     32  C   UNL     1      34.072 -16.058 -24.117  0.00  0.00    +0.068 C 
ATOM     33  C   UNL     1      34.578 -18.162 -25.190  0.00  0.00    +0.001 C 
ATOM     34  C   UNL     1      33.997 -16.894 -25.230  0.00  0.00    +0.012 C 
ENDBRANCH  26  29
ENDBRANCH  19  26
ENDBRANCH  18  20
ENDBRANCH   1  18
TORSDOF 5
ENDMDL
MODEL 3
REMARK VINA RESULT:     -12.3      2.546      3.702
REMARK  Name = 24978486
REMARK  5 active torsions:
REMARK  status: ('A' for Active; 'I' for Inactive)
REMARK    1  A    between atoms: O_1  and  C_6
REMARK    2  A    between atoms: O_1  and  C_18
REMARK    3  A    between atoms: C_18  and  C_20
REMARK    4  A    between atoms: N_19  and  C_26
REMARK    5  A    between atoms: C_26  and  C_29
REMARK                            x       y       z     vdW  Elec       q    Type
REMARK                         _______ _______ _______ _____ _____    ______ ____
ROOT
ATOM      1  O   UNL     1      32.660 -22.507 -18.038  0.00  0.00    -0.479 OA
ENDROOT
BRANCH   1   6
ATOM      2  N   UNL     1      32.211 -24.385 -13.593  0.00  0.00    -0.332 NA
ATOM      3  N   UNL     1      30.210 -23.725 -14.764  0.00  0.00    -0.317 NA
ATOM      4  N   UNL     1      30.302 -22.810 -16.907  0.00  0.00    -0.335 N 
ATOM      5  N   UNL     1      30.096 -24.642 -12.611  0.00  0.00    -0.283 N 
ATOM      6  C   UNL     1      33.172 -23.046 -16.884  0.00  0.00    +0.130 C 
ATOM      7  C   UNL     1      32.379 -23.450 -15.796  0.00  0.00    +0.177 C 
ATOM      8  C   UNL     1      34.555 -23.180 -16.823  0.00  0.00    +0.033 C 
ATOM      9  C   UNL     1      32.961 -23.994 -14.639  0.00  0.00    +0.137 C 
ATOM     10  C   UNL     1      30.991 -23.344 -15.793  0.00  0.00    +0.181 C 
ATOM     11  C   UNL     1      35.143 -23.716 -15.683  0.00  0.00    +0.005 C 
ATOM     12  C   UNL     1      34.347 -24.117 -14.606  0.00  0.00    +0.030 C 
ATOM     13  C   UNL     1      30.877 -24.229 -13.712  0.00  0.00    +0.197 C 
ATOM     14  H   UNL     1      29.320 -22.740 -16.892  0.00  0.00    +0.144 HD
ATOM     15  H   UNL     1      30.805 -22.510 -17.698  0.00  0.00    +0.144 HD
ATOM     16  H   UNL     1      30.532 -25.019 -11.813  0.00  0.00    +0.156 HD
ATOM     17  H   UNL     1      29.116 -24.554 -12.641  0.00  0.00    +0.156 HD
ENDBRANCH   1   6
BRANCH   1  18
ATOM     18  C   UNL     1      33.461 -22.599 -19.201  0.00  0.00    +0.205 C 
BRANCH  18  20
ATOM     19  N   UNL     1      35.302 -19.337 -21.350  0.00  0.00    +0.390 N 
ATOM     20  C   UNL     1      34.074 -21.230 -19.479  0.00  0.00    +0.040 C 
ATOM     21  C   UNL     1      33.259 -20.463 -20.526  0.00  0.00    -0.019 C 
ATOM     22  C   UNL     1      35.527 -21.362 -19.949  0.00  0.00    -0.019 C 
ATOM     23  C   UNL     1      33.925 -19.132 -20.883  0.00  0.00    -0.077 C 
ATOM     24  C   UNL     1      36.116 -20.002 -20.324  0.00  0.00    -0.077 C 
ATOM     25  H   UNL     1      35.270 -19.943 -22.170  0.00  0.00    -0.079 HD
BRANCH  19  26
ATOM     26  C   UNL     1      35.906 -18.061 -21.736  0.00  0.00    -0.049 C 
BRANCH  26  29
ATOM     27 CL   UNL     1      34.675 -15.298 -21.373  0.00  0.00    -0.082 Cl
ATOM     28 CL   UNL     1      33.227 -14.104 -23.981  0.00  0.00    -0.081 Cl
ATOM     29  C   UNL     1      35.212 -17.448 -22.922  0.00  0.00    -0.032 C 
ATOM     30  C   UNL     1      34.616 -16.188 -22.861  0.00  0.00    +0.062 C 
ATOM     31  C   UNL     1      35.175 -18.179 -24.110  0.00  0.00    -0.005 C 
ATOM     32  C   UNL     1      33.984 -15.659 -23.987  0.00  0.00    +0.068 C 
ATOM     33  C   UNL     1      34.544 -17.650 -25.236  0.00  0.00    +0.001 C 
ATOM     34  C   UNL     1      33.948 -16.390 -25.174  0.00  0.00    +0.012 C 
ENDBRANCH  26  29
ENDBRANCH  19  26
ENDBRANCH  18  20
ENDBRANCH   1  18
TORSDOF 5
ENDMDL
MODEL 4
REMARK VINA RESULT:     -12.1      4.284     10.405
REMARK  Name = 24978486
REMARK  5 active torsions:
REMARK  status: ('A' for Active; 'I' for Inactive)
REMARK    1  A    between atoms: O_1  and  C_6
REMARK    2  A    between atoms: O_1  and  C_18
REMARK    3  A    between atoms: C_18  and  C_20
REMARK    4  A    between atoms: N_19  and  C_26
REMARK    5  A    between atoms: C_26  and  C_29
REMARK                            x       y       z     vdW  Elec       q    Type
REMARK                         _______ _______ _______ _____ _____    ______ ____
ROOT
ATOM      1  O   UNL     1      35.096 -18.151 -22.528  0.00  0.00    -0.479 OA
ENDROOT
BRANCH   1   6
ATOM      2  N   UNL     1      33.473 -14.080 -24.595  0.00  0.00    -0.332 NA
ATOM      3  N   UNL     1      33.797 -16.020 -25.988  0.00  0.00    -0.317 NA
ATOM      4  N   UNL     1      34.572 -18.034 -25.105  0.00  0.00    -0.335 N 
ATOM      5  N   UNL     1      33.016 -14.006 -26.895  0.00  0.00    -0.283 N 
ATOM      6  C   UNL     1      34.704 -16.837 -22.490  0.00  0.00    +0.130 C 
ATOM      7  C   UNL     1      34.274 -16.120 -23.621  0.00  0.00    +0.177 C 
ATOM      8  C   UNL     1      34.749 -16.212 -21.248  0.00  0.00    +0.033 C 
ATOM      9  C   UNL     1      33.886 -14.774 -23.520  0.00  0.00    +0.137 C 
ATOM     10  C   UNL     1      34.205 -16.686 -24.891  0.00  0.00    +0.181 C 
ATOM     11  C   UNL     1      34.368 -14.880 -21.135  0.00  0.00    +0.005 C 
ATOM     12  C   UNL     1      33.942 -14.174 -22.265  0.00  0.00    +0.030 C 
ATOM     13  C   UNL     1      33.451 -14.741 -25.770  0.00  0.00    +0.197 C 
ATOM     14  H   UNL     1      34.518 -18.422 -26.008  0.00  0.00    +0.144 HD
ATOM     15  H   UNL     1      34.881 -18.585 -24.350  0.00  0.00    +0.144 HD
ATOM     16  H   UNL     1      32.750 -13.064 -26.794  0.00  0.00    +0.156 HD
ATOM     17  H   UNL     1      32.977 -14.436 -27.780  0.00  0.00    +0.156 HD
ENDBRANCH   1   6
BRANCH   1  18
ATOM     18  C   UNL     1      35.809 -18.642 -21.408  0.00  0.00    +0.205 C 
BRANCH  18  20
ATOM     19  N   UNL     1      34.147 -21.788 -18.959  0.00  0.00    +0.390 N 
ATOM     20  C   UNL     1      35.224 -19.996 -21.014  0.00  0.00    +0.040 C 
ATOM     21  C   UNL     1      33.810 -19.840 -20.446  0.00  0.00    -0.019 C 
ATOM     22  C   UNL     1      36.117 -20.704 -19.990  0.00  0.00    -0.019 C 
ATOM     23  C   UNL     1      33.256 -21.180 -19.956  0.00  0.00    -0.077 C 
ATOM     24  C   UNL     1      35.488 -22.015 -19.516  0.00  0.00    -0.077 C 
ATOM     25  H   UNL     1      34.236 -21.139 -18.178  0.00  0.00    -0.079 HD
BRANCH  19  26
ATOM     26  C   UNL     1      33.580 -23.042 -18.463  0.00  0.00    -0.049 C 
BRANCH  26  29
ATOM     27 CL   UNL     1      31.043 -22.963 -16.778  0.00  0.00    -0.082 Cl
ATOM     28 CL   UNL     1      31.506 -23.259 -13.612  0.00  0.00    -0.081 Cl
ATOM     29  C   UNL     1      33.731 -23.175 -16.971  0.00  0.00    -0.032 C 
ATOM     30  C   UNL     1      32.633 -23.152 -16.112  0.00  0.00    +0.062 C 
ATOM     31  C   UNL     1      35.018 -23.326 -16.455  0.00  0.00    -0.005 C 
ATOM     32  C   UNL     1      32.822 -23.279 -14.735  0.00  0.00    +0.068 C 
ATOM     33  C   UNL     1      35.207 -23.454 -15.079  0.00  0.00    +0.001 C 
ATOM     34  C   UNL     1      34.109 -23.430 -14.219  0.00  0.00    +0.012 C 
ENDBRANCH  26  29
ENDBRANCH  19  26
ENDBRANCH  18  20
ENDBRANCH   1  18
TORSDOF 5
ENDMDL
MODEL 5
REMARK VINA RESULT:     -12.1      6.085     12.009
REMARK  Name = 24978486
REMARK  5 active torsions:
REMARK  status: ('A' for Active; 'I' for Inactive)
REMARK    1  A    between atoms: O_1  and  C_6
REMARK    2  A    between atoms: O_1  and  C_18
REMARK    3  A    between atoms: C_18  and  C_20
REMARK    4  A    between atoms: N_19  and  C_26
REMARK    5  A    between atoms: C_26  and  C_29
REMARK                            x       y       z     vdW  Elec       q    Type
REMARK                         _______ _______ _______ _____ _____    ______ ____
ROOT
ATOM      1  O   UNL     1      32.745 -12.875 -23.783  0.00  0.00    -0.479 OA
ENDROOT
BRANCH   1   6
ATOM      2  N   UNL     1      33.285  -8.193 -22.657  0.00  0.00    -0.332 NA
ATOM      3  N   UNL     1      31.639  -9.477 -21.453  0.00  0.00    -0.317 NA
ATOM      4  N   UNL     1      31.291 -11.738 -21.907  0.00  0.00    -0.335 N 
ATOM      5  N   UNL     1      31.974  -7.207 -20.980  0.00  0.00    -0.283 N 
ATOM      6  C   UNL     1      33.333 -11.644 -23.935  0.00  0.00    +0.130 C 
ATOM      7  C   UNL     1      32.979 -10.515 -23.176  0.00  0.00    +0.177 C 
ATOM      8  C   UNL     1      34.327 -11.547 -24.904  0.00  0.00    +0.033 C 
ATOM      9  C   UNL     1      33.616  -9.280 -23.378  0.00  0.00    +0.137 C 
ATOM     10  C   UNL     1      31.995 -10.545 -22.192  0.00  0.00    +0.181 C 
ATOM     11  C   UNL     1      34.964 -10.329 -25.114  0.00  0.00    +0.005 C 
ATOM     12  C   UNL     1      34.606  -9.211 -24.354  0.00  0.00    +0.030 C 
ATOM     13  C   UNL     1      32.315  -8.351 -21.734  0.00  0.00    +0.197 C 
ATOM     14  H   UNL     1      30.597 -11.745 -21.209  0.00  0.00    +0.144 HD
ATOM     15  H   UNL     1      31.496 -12.561 -22.407  0.00  0.00    +0.144 HD
ATOM     16  H   UNL     1      32.438  -6.354 -21.143  0.00  0.00    +0.156 HD
ATOM     17  H   UNL     1      31.274  -7.262 -20.290  0.00  0.00    +0.156 HD
ENDBRANCH   1   6
BRANCH   1  18
ATOM     18  C   UNL     1      33.036 -13.852 -24.766  0.00  0.00    +0.205 C 
BRANCH  18  20
ATOM     19  N   UNL     1      34.706 -17.338 -22.839  0.00  0.00    +0.390 N 
ATOM     20  C   UNL     1      34.071 -14.820 -24.198  0.00  0.00    +0.040 C 
ATOM     21  C   UNL     1      34.003 -16.176 -24.907  0.00  0.00    -0.019 C 
ATOM     22  C   UNL     1      33.875 -15.013 -22.691  0.00  0.00    -0.019 C 
ATOM     23  C   UNL     1      34.968 -17.182 -24.275  0.00  0.00    -0.077 C 
ATOM     24  C   UNL     1      34.844 -16.057 -22.133  0.00  0.00    -0.077 C 
ATOM     25  H   UNL     1      33.743 -17.657 -22.727  0.00  0.00    -0.079 HD
BRANCH  19  26
ATOM     26  C   UNL     1      35.601 -18.339 -22.261  0.00  0.00    -0.049 C 
BRANCH  26  29
ATOM     27 CL   UNL     1      37.257 -20.049 -20.359  0.00  0.00    -0.082 Cl
ATOM     28 CL   UNL     1      35.562 -22.066 -18.521  0.00  0.00    -0.081 Cl
ATOM     29  C   UNL     1      34.863 -19.306 -21.372  0.00  0.00    -0.032 C 
ATOM     30  C   UNL     1      35.528 -20.133 -20.467  0.00  0.00    +0.062 C 
ATOM     31  C   UNL     1      33.473 -19.359 -21.474  0.00  0.00    -0.005 C 
ATOM     32  C   UNL     1      34.803 -21.013 -19.664  0.00  0.00    +0.068 C 
ATOM     33  C   UNL     1      32.748 -20.238 -20.671  0.00  0.00    +0.001 C 
ATOM     34  C   UNL     1      33.413 -21.065 -19.766  0.00  0.00    +0.012 C 
ENDBRANCH  26  29
ENDBRANCH  19  26
ENDBRANCH  18  20
ENDBRANCH   1  18
TORSDOF 5
ENDMDL
MODEL 6
REMARK VINA RESULT:     -12.0      4.119      6.975
REMARK  Name = 24978486
REMARK  5 active torsions:
REMARK  status: ('A' for Active; 'I' for Inactive)
REMARK    1  A    between atoms: O_1  and  C_6
REMARK    2  A    between atoms: O_1  and  C_18
REMARK    3  A    between atoms: C_18  and  C_20
REMARK    4  A    between atoms: N_19  and  C_26
REMARK    5  A    between atoms: C_26  and  C_29
REMARK                            x       y       z     vdW  Elec       q    Type
REMARK                         _______ _______ _______ _____ _____    ______ ____
ROOT
ATOM      1  O   UNL     1      34.399 -18.412 -21.544  0.00  0.00    -0.479 OA
ENDROOT
BRANCH   1   6
ATOM      2  N   UNL     1      35.028 -22.373 -18.825  0.00  0.00    -0.332 NA
ATOM      3  N   UNL     1      32.777 -21.675 -19.326  0.00  0.00    -0.317 NA
ATOM      4  N   UNL     1      32.350 -19.786 -20.624  0.00  0.00    -0.335 N 
ATOM      5  N   UNL     1      33.183 -23.577 -18.019  0.00  0.00    -0.283 N 
ATOM      6  C   UNL     1      35.182 -19.339 -20.902  0.00  0.00    +0.130 C 
ATOM      7  C   UNL     1      34.663 -20.419 -20.167  0.00  0.00    +0.177 C 
ATOM      8  C   UNL     1      36.558 -19.167 -21.007  0.00  0.00    +0.033 C 
ATOM      9  C   UNL     1      35.514 -21.336 -19.530  0.00  0.00    +0.137 C 
ATOM     10  C   UNL     1      33.297 -20.648 -20.024  0.00  0.00    +0.181 C 
ATOM     11  C   UNL     1      37.412 -20.068 -20.380  0.00  0.00    +0.005 C 
ATOM     12  C   UNL     1      36.887 -21.140 -19.651  0.00  0.00    +0.030 C 
ATOM     13  C   UNL     1      33.686 -22.486 -18.761  0.00  0.00    +0.197 C 
ATOM     14  H   UNL     1      31.388 -19.959 -20.516  0.00  0.00    +0.144 HD
ATOM     15  H   UNL     1      32.656 -19.012 -21.152  0.00  0.00    +0.144 HD
ATOM     16  H   UNL     1      33.804 -24.204 -17.583  0.00  0.00    +0.156 HD
ATOM     17  H   UNL     1      32.210 -23.711 -17.938  0.00  0.00    +0.156 HD
ENDBRANCH   1   6
BRANCH   1  18
ATOM     18  C   UNL     1      35.015 -17.188 -21.902  0.00  0.00    +0.205 C 
BRANCH  18  20
ATOM     19  N   UNL     1      32.800 -13.489 -22.148  0.00  0.00    +0.390 N 
ATOM     20  C   UNL     1      33.926 -16.191 -22.289  0.00  0.00    +0.040 C 
ATOM     21  C   UNL     1      34.512 -15.015 -23.077  0.00  0.00    -0.019 C 
ATOM     22  C   UNL     1      33.190 -15.670 -21.050  0.00  0.00    -0.019 C 
ATOM     23  C   UNL     1      33.443 -13.962 -23.381  0.00  0.00    -0.077 C 
ATOM     24  C   UNL     1      32.166 -14.597 -21.422  0.00  0.00    -0.077 C 
ATOM     25  H   UNL     1      33.523 -13.091 -21.548  0.00  0.00    -0.079 HD
BRANCH  19  26
ATOM     26  C   UNL     1      31.818 -12.447 -22.451  0.00  0.00    -0.049 C 
BRANCH  26  29
ATOM     27 CL   UNL     1      32.546  -9.650 -23.415  0.00  0.00    -0.082 Cl
ATOM     28 CL   UNL     1      32.550  -7.387 -21.134  0.00  0.00    -0.081 Cl
ATOM     29  C   UNL     1      31.838 -11.343 -21.429  0.00  0.00    -0.032 C 
ATOM     30  C   UNL     1      32.158 -10.028 -21.767  0.00  0.00    +0.062 C 
ATOM     31  C   UNL     1      31.523 -11.666 -20.109  0.00  0.00    -0.005 C 
ATOM     32  C   UNL     1      32.163  -9.036 -20.785  0.00  0.00    +0.068 C 
ATOM     33  C   UNL     1      31.528 -10.675 -19.127  0.00  0.00    +0.001 C 
ATOM     34  C   UNL     1      31.848  -9.360 -19.466  0.00  0.00    +0.012 C 
ENDBRANCH  26  29
ENDBRANCH  19  26
ENDBRANCH  18  20
ENDBRANCH   1  18
TORSDOF 5
ENDMDL
MODEL 7
REMARK VINA RESULT:     -12.0      4.196      7.099
REMARK  Name = 24978486
REMARK  5 active torsions:
REMARK  status: ('A' for Active; 'I' for Inactive)
REMARK    1  A    between atoms: O_1  and  C_6
REMARK    2  A    between atoms: O_1  and  C_18
REMARK    3  A    between atoms: C_18  and  C_20
REMARK    4  A    between atoms: N_19  and  C_26
REMARK    5  A    between atoms: C_26  and  C_29
REMARK                            x       y       z     vdW  Elec       q    Type
REMARK                         _______ _______ _______ _____ _____    ______ ____
ROOT
ATOM      1  O   UNL     1      34.280 -18.243 -21.459  0.00  0.00    -0.479 OA
ENDROOT
BRANCH   1   6
ATOM      2  N   UNL     1      35.071 -22.361 -19.031  0.00  0.00    -0.332 NA
ATOM      3  N   UNL     1      32.792 -21.667 -19.394  0.00  0.00    -0.317 NA
ATOM      4  N   UNL     1      32.289 -19.705 -20.548  0.00  0.00    -0.335 N 
ATOM      5  N   UNL     1      33.276 -23.643 -18.232  0.00  0.00    -0.283 N 
ATOM      6  C   UNL     1      35.100 -19.198 -20.911  0.00  0.00    +0.130 C 
ATOM      7  C   UNL     1      34.626 -20.331 -20.227  0.00  0.00    +0.177 C 
ATOM      8  C   UNL     1      36.469 -18.998 -21.060  0.00  0.00    +0.033 C 
ATOM      9  C   UNL     1      35.515 -21.274 -19.687  0.00  0.00    +0.137 C 
ATOM     10  C   UNL     1      33.270 -20.590 -20.045  0.00  0.00    +0.181 C 
ATOM     11  C   UNL     1      37.359 -19.925 -20.529  0.00  0.00    +0.005 C 
ATOM     12  C   UNL     1      36.879 -21.049 -19.850  0.00  0.00    +0.030 C 
ATOM     13  C   UNL     1      33.734 -22.499 -18.920  0.00  0.00    +0.197 C 
ATOM     14  H   UNL     1      31.334 -19.899 -20.413  0.00  0.00    +0.144 HD
ATOM     15  H   UNL     1      32.562 -18.894 -21.036  0.00  0.00    +0.144 HD
ATOM     16  H   UNL     1      33.923 -24.287 -17.863  0.00  0.00    +0.156 HD
ATOM     17  H   UNL     1      32.310 -23.797 -18.121  0.00  0.00    +0.156 HD
ENDBRANCH   1   6
BRANCH   1  18
ATOM     18  C   UNL     1      34.459 -16.911 -21.014  0.00  0.00    +0.205 C 
BRANCH  18  20
ATOM     19  N   UNL     1      33.381 -13.353 -23.212  0.00  0.00    +0.390 N 
ATOM     20  C   UNL     1      33.692 -15.979 -21.949  0.00  0.00    +0.040 C 
ATOM     21  C   UNL     1      34.575 -15.518 -23.112  0.00  0.00    -0.019 C 
ATOM     22  C   UNL     1      33.154 -14.761 -21.192  0.00  0.00    -0.019 C 
ATOM     23  C   UNL     1      33.844 -14.505 -23.997  0.00  0.00    -0.077 C 
ATOM     24  C   UNL     1      32.470 -13.774 -22.140  0.00  0.00    -0.077 C 
ATOM     25  H   UNL     1      34.196 -12.917 -22.781  0.00  0.00    -0.079 HD
BRANCH  19  26
ATOM     26  C   UNL     1      32.731 -12.371 -24.080  0.00  0.00    -0.049 C 
BRANCH  26  29
ATOM     27 CL   UNL     1      31.466 -10.246 -22.300  0.00  0.00    -0.082 Cl
ATOM     28 CL   UNL     1      33.008  -7.427 -22.246  0.00  0.00    -0.081 Cl
ATOM     29  C   UNL     1      33.407 -11.027 -24.013  0.00  0.00    -0.032 C 
ATOM     30  C   UNL     1      32.908  -9.987 -23.228  0.00  0.00    +0.062 C 
ATOM     31  C   UNL     1      34.565 -10.839 -24.766  0.00  0.00    -0.005 C 
ATOM     32  C   UNL     1      33.569  -8.759 -23.197  0.00  0.00    +0.068 C 
ATOM     33  C   UNL     1      35.226  -9.611 -24.735  0.00  0.00    +0.001 C 
ATOM     34  C   UNL     1      34.728  -8.571 -23.950  0.00  0.00    +0.012 C 
ENDBRANCH  26  29
ENDBRANCH  19  26
ENDBRANCH  18  20
ENDBRANCH   1  18
TORSDOF 5
ENDMDL
MODEL 8
REMARK VINA RESULT:     -11.8      4.306     10.145
REMARK  Name = 24978486
REMARK  5 active torsions:
REMARK  status: ('A' for Active; 'I' for Inactive)
REMARK    1  A    between atoms: O_1  and  C_6
REMARK    2  A    between atoms: O_1  and  C_18
REMARK    3  A    between atoms: C_18  and  C_20
REMARK    4  A    between atoms: N_19  and  C_26
REMARK    5  A    between atoms: C_26  and  C_29
REMARK                            x       y       z     vdW  Elec       q    Type
REMARK                         _______ _______ _______ _____ _____    ______ ____
ROOT
ATOM      1  O   UNL     1      34.759 -18.014 -21.283  0.00  0.00    -0.479 OA
ENDROOT
BRANCH   1   6
ATOM      2  N   UNL     1      34.100 -14.497 -24.550  0.00  0.00    -0.332 NA
ATOM      3  N   UNL     1      34.163 -13.895 -22.218  0.00  0.00    -0.317 NA
ATOM      4  N   UNL     1      34.475 -15.500 -20.556  0.00  0.00    -0.335 N 
ATOM      5  N   UNL     1      33.849 -12.265 -23.872  0.00  0.00    -0.283 N 
ATOM      6  C   UNL     1      34.622 -17.554 -22.568  0.00  0.00    +0.130 C 
ATOM      7  C   UNL     1      34.424 -16.201 -22.893  0.00  0.00    +0.177 C 
ATOM      8  C   UNL     1      34.685 -18.509 -23.578  0.00  0.00    +0.033 C 
ATOM      9  C   UNL     1      34.289 -15.790 -24.229  0.00  0.00    +0.137 C 
ATOM     10  C   UNL     1      34.352 -15.196 -21.931  0.00  0.00    +0.181 C 
ATOM     11  C   UNL     1      34.552 -18.115 -24.905  0.00  0.00    +0.005 C 
ATOM     12  C   UNL     1      34.356 -16.766 -25.219  0.00  0.00    +0.030 C 
ATOM     13  C   UNL     1      34.047 -13.620 -23.527  0.00  0.00    +0.197 C 
ATOM     14  H   UNL     1      34.422 -14.781 -19.886  0.00  0.00    +0.144 HD
ATOM     15  H   UNL     1      34.615 -16.431 -20.268  0.00  0.00    +0.144 HD
ATOM     16  H   UNL     1      33.758 -12.007 -24.817  0.00  0.00    +0.156 HD
ATOM     17  H   UNL     1      33.804 -11.579 -23.167  0.00  0.00    +0.156 HD
ENDBRANCH   1   6
BRANCH   1  18
ATOM     18  C   UNL     1      35.857 -18.868 -21.019  0.00  0.00    +0.205 C 
BRANCH  18  20
ATOM     19  N   UNL     1      34.115 -22.086 -18.723  0.00  0.00    +0.390 N 
ATOM     20  C   UNL     1      35.322 -20.254 -20.668  0.00  0.00    +0.040 C 
ATOM     21  C   UNL     1      33.838 -20.192 -20.292  0.00  0.00    -0.019 C 
ATOM     22  C   UNL     1      36.121 -20.878 -19.519  0.00  0.00    -0.019 C 
ATOM     23  C   UNL     1      33.321 -21.561 -19.842  0.00  0.00    -0.077 C 
ATOM     24  C   UNL     1      35.529 -22.223 -19.096  0.00  0.00    -0.077 C 
ATOM     25  H   UNL     1      34.055 -21.418 -17.954  0.00  0.00    -0.079 HD
BRANCH  19  26
ATOM     26  C   UNL     1      33.577 -23.369 -18.272  0.00  0.00    -0.049 C 
BRANCH  26  29
ATOM     27 CL   UNL     1      35.445 -23.946 -15.936  0.00  0.00    -0.082 Cl
ATOM     28 CL   UNL     1      34.095 -23.719 -13.029  0.00  0.00    -0.081 Cl
ATOM     29  C   UNL     1      33.003 -23.279 -16.883  0.00  0.00    -0.032 C 
ATOM     30  C   UNL     1      33.774 -23.525 -15.747  0.00  0.00    +0.062 C 
ATOM     31  C   UNL     1      31.656 -22.939 -16.752  0.00  0.00    -0.005 C 
ATOM     32  C   UNL     1      33.198 -23.429 -14.479  0.00  0.00    +0.068 C 
ATOM     33  C   UNL     1      31.081 -22.843 -15.485  0.00  0.00    +0.001 C 
ATOM     34  C   UNL     1      31.852 -23.089 -14.349  0.00  0.00    +0.012 C 
ENDBRANCH  26  29
ENDBRANCH  19  26
ENDBRANCH  18  20
ENDBRANCH   1  18
TORSDOF 5
ENDMDL
MODEL 9
REMARK VINA RESULT:     -11.6      6.303     11.908
REMARK  Name = 24978486
REMARK  5 active torsions:
REMARK  status: ('A' for Active; 'I' for Inactive)
REMARK    1  A    between atoms: O_1  and  C_6
REMARK    2  A    between atoms: O_1  and  C_18
REMARK    3  A    between atoms: C_18  and  C_20
REMARK    4  A    between atoms: N_19  and  C_26
REMARK    5  A    between atoms: C_26  and  C_29
REMARK                            x       y       z     vdW  Elec       q    Type
REMARK                         _______ _______ _______ _____ _____    ______ ____
ROOT
ATOM      1  O   UNL     1      32.569 -11.812 -22.672  0.00  0.00    -0.479 OA
ENDROOT
BRANCH   1   6
ATOM      2  N   UNL     1      31.810  -7.646 -20.316  0.00  0.00    -0.332 NA
ATOM      3  N   UNL     1      32.563  -7.546 -22.603  0.00  0.00    -0.317 NA
ATOM      4  N   UNL     1      32.962  -9.484 -23.837  0.00  0.00    -0.335 N 
ATOM      5  N   UNL     1      32.169  -5.587 -21.380  0.00  0.00    -0.283 N 
ATOM      6  C   UNL     1      32.206 -11.085 -21.566  0.00  0.00    +0.130 C 
ATOM      7  C   UNL     1      32.200  -9.679 -21.526  0.00  0.00    +0.177 C 
ATOM      8  C   UNL     1      31.832 -11.813 -20.441  0.00  0.00    +0.033 C 
ATOM      9  C   UNL     1      31.820  -8.990 -20.364  0.00  0.00    +0.137 C 
ATOM     10  C   UNL     1      32.562  -8.892 -22.616  0.00  0.00    +0.181 C 
ATOM     11  C   UNL     1      31.455 -11.142 -19.283  0.00  0.00    +0.005 C 
ATOM     12  C   UNL     1      31.451  -9.744 -19.253  0.00  0.00    +0.030 C 
ATOM     13  C   UNL     1      32.182  -6.997 -21.438  0.00  0.00    +0.197 C 
ATOM     14  H   UNL     1      33.215  -8.916 -24.600  0.00  0.00    +0.144 HD
ATOM     15  H   UNL     1      32.986 -10.464 -23.923  0.00  0.00    +0.144 HD
ATOM     16  H   UNL     1      31.897  -5.131 -20.551  0.00  0.00    +0.156 HD
ATOM     17  H   UNL     1      32.429  -5.058 -22.170  0.00  0.00    +0.156 HD
ENDBRANCH   1   6
BRANCH   1  18
ATOM     18  C   UNL     1      32.072 -13.134 -22.764  0.00  0.00    +0.205 C 
BRANCH  18  20
ATOM     19  N   UNL     1      34.237 -16.855 -22.411  0.00  0.00    +0.390 N 
ATOM     20  C   UNL     1      33.232 -14.105 -22.562  0.00  0.00    +0.040 C 
ATOM     21  C   UNL     1      33.451 -14.969 -23.807  0.00  0.00    -0.019 C 
ATOM     22  C   UNL     1      32.991 -15.004 -21.344  0.00  0.00    -0.019 C 
ATOM     23  C   UNL     1      34.546 -16.013 -23.575  0.00  0.00    -0.077 C 
ATOM     24  C   UNL     1      34.101 -16.045 -21.193  0.00  0.00    -0.077 C 
ATOM     25  H   UNL     1      33.344 -17.316 -22.585  0.00  0.00    -0.079 HD
BRANCH  19  26
ATOM     26  C   UNL     1      35.266 -17.879 -22.234  0.00  0.00    -0.049 C 
BRANCH  26  29
ATOM     27 CL   UNL     1      37.361 -19.460 -20.687  0.00  0.00    -0.082 Cl
ATOM     28 CL   UNL     1      36.200 -21.854 -18.886  0.00  0.00    -0.081 Cl
ATOM     29  C   UNL     1      34.784 -19.015 -21.371  0.00  0.00    -0.032 C 
ATOM     30  C   UNL     1      35.662 -19.800 -20.624  0.00  0.00    +0.062 C 
ATOM     31  C   UNL     1      33.414 -19.272 -21.332  0.00  0.00    -0.005 C 
ATOM     32  C   UNL     1      35.169 -20.842 -19.837  0.00  0.00    +0.068 C 
ATOM     33  C   UNL     1      32.921 -20.314 -20.547  0.00  0.00    +0.001 C 
ATOM     34  C   UNL     1      33.799 -21.099 -19.799  0.00  0.00    +0.012 C 
ENDBRANCH  26  29
ENDBRANCH  19  26
ENDBRANCH  18  20
ENDBRANCH   1  18
TORSDOF 5
ENDMDL
