MODEL 1
REMARK VINA RESULT:      -9.5      0.000      0.000
REMARK  Name = 8569
REMARK  5 active torsions:
REMARK  status: ('A' for Active; 'I' for Inactive)
REMARK    1  A    between atoms: C_1  and  C_12
REMARK    2  A    between atoms: C_2  and  O_9
REMARK    3  A    between atoms: C_4  and  O_7
REMARK    4  A    between atoms: C_12  and  C_13
REMARK    5  A    between atoms: C_14  and  O_19
REMARK                            x       y       z     vdW  Elec       q    Type
REMARK                         _______ _______ _______ _____ _____    ______ ____
ROOT
ATOM      1  C   UNL     1      35.229 -18.219 -22.762  0.00  0.00    +0.073 C 
ATOM      2  C   UNL     1      34.945 -16.865 -22.712  0.00  0.00    +0.140 C 
ATOM      3  C   UNL     1      35.041 -18.955 -23.920  0.00  0.00    +0.009 C 
ATOM      4  C   UNL     1      34.264 -16.954 -25.028  0.00  0.00    +0.142 C 
ATOM      5  C   UNL     1      34.458 -16.228 -23.853  0.00  0.00    +0.074 C 
ATOM      6  C   UNL     1      34.555 -18.318 -25.061  0.00  0.00    +0.037 C 
ENDROOT
BRANCH   4   7
ATOM      7  O   UNL     1      33.787 -16.333 -26.142  0.00  0.00    -0.471 OA
ATOM      8  C   UNL     1      33.152 -15.069 -25.960  0.00  0.00    +0.252 C 
ENDBRANCH   4   7
BRANCH   2   9
ATOM      9  O   UNL     1      35.132 -16.137 -21.575  0.00  0.00    -0.505 OA
ATOM     10  H   UNL     1      35.835 -15.520 -21.524  0.00  0.00    +0.292 HD
ENDBRANCH   2   9
BRANCH   1  12
ATOM     11  O   UNL     1      36.919 -18.736 -21.194  0.00  0.00    -0.286 OA
ATOM     12  C   UNL     1      35.750 -18.912 -21.566  0.00  0.00    +0.201 C 
BRANCH  12  13
ATOM     13  C   UNL     1      34.907 -19.828 -20.809  0.00  0.00    +0.073 C 
ATOM     14  C   UNL     1      35.461 -20.915 -20.131  0.00  0.00    +0.137 C 
ATOM     15  C   UNL     1      33.531 -19.610 -20.768  0.00  0.00    +0.006 C 
ATOM     16  C   UNL     1      34.638 -21.781 -19.413  0.00  0.00    +0.037 C 
ATOM     17  C   UNL     1      32.707 -20.477 -20.050  0.00  0.00    +0.000 C 
ATOM     18  C   UNL     1      33.260 -21.563 -19.373  0.00  0.00    +0.003 C 
BRANCH  14  19
ATOM     19  O   UNL     1      36.805 -21.146 -20.160  0.00  0.00    -0.505 OA
ATOM     20  H   UNL     1      37.193 -21.728 -19.536  0.00  0.00    +0.292 HD
ENDBRANCH  14  19
ENDBRANCH  12  13
ENDBRANCH   1  12
TORSDOF 5
ENDMDL
MODEL 2
REMARK VINA RESULT:      -9.5      1.737      5.914
REMARK  Name = 8569
REMARK  5 active torsions:
REMARK  status: ('A' for Active; 'I' for Inactive)
REMARK    1  A    between atoms: C_1  and  C_12
REMARK    2  A    between atoms: C_2  and  O_9
REMARK    3  A    between atoms: C_4  and  O_7
REMARK    4  A    between atoms: C_12  and  C_13
REMARK    5  A    between atoms: C_14  and  O_19
REMARK                            x       y       z     vdW  Elec       q    Type
REMARK                         _______ _______ _______ _____ _____    ______ ____
ROOT
ATOM      1  C   UNL     1      34.948 -19.305 -21.055  0.00  0.00    +0.073 C 
ATOM      2  C   UNL     1      35.624 -20.249 -20.302  0.00  0.00    +0.140 C 
ATOM      3  C   UNL     1      33.566 -19.310 -21.151  0.00  0.00    +0.009 C 
ATOM      4  C   UNL     1      33.506 -21.248 -19.709  0.00  0.00    +0.142 C 
ATOM      5  C   UNL     1      34.898 -21.228 -19.624  0.00  0.00    +0.074 C 
ATOM      6  C   UNL     1      32.840 -20.288 -20.473  0.00  0.00    +0.037 C 
ENDROOT
BRANCH   4   7
ATOM      7  O   UNL     1      32.796 -22.204 -19.049  0.00  0.00    -0.471 OA
ATOM      8  C   UNL     1      33.497 -22.979 -18.078  0.00  0.00    +0.252 C 
ENDBRANCH   4   7
BRANCH   2   9
ATOM      9  O   UNL     1      36.983 -20.244 -20.203  0.00  0.00    -0.505 OA
ATOM     10  H   UNL     1      37.475 -20.996 -20.471  0.00  0.00    +0.292 HD
ENDBRANCH   2   9
BRANCH   1  12
ATOM     11  O   UNL     1      36.810 -18.501 -22.266  0.00  0.00    -0.286 OA
ATOM     12  C   UNL     1      35.697 -18.257 -21.778  0.00  0.00    +0.201 C 
BRANCH  12  13
ATOM     13  C   UNL     1      35.153 -16.913 -21.919  0.00  0.00    +0.073 C 
ATOM     14  C   UNL     1      35.010 -16.328 -23.178  0.00  0.00    +0.137 C 
ATOM     15  C   UNL     1      34.776 -16.209 -20.777  0.00  0.00    +0.006 C 
ATOM     16  C   UNL     1      34.489 -15.040 -23.292  0.00  0.00    +0.037 C 
ATOM     17  C   UNL     1      34.254 -14.920 -20.891  0.00  0.00    +0.000 C 
ATOM     18  C   UNL     1      34.111 -14.335 -22.149  0.00  0.00    +0.003 C 
BRANCH  14  19
ATOM     19  O   UNL     1      35.375 -17.000 -24.307  0.00  0.00    -0.505 OA
ATOM     20  H   UNL     1      34.938 -16.825 -25.117  0.00  0.00    +0.292 HD
ENDBRANCH  14  19
ENDBRANCH  12  13
ENDBRANCH   1  12
TORSDOF 5
ENDMDL
MODEL 3
REMARK VINA RESULT:      -9.4      1.263      6.032
REMARK  Name = 8569
REMARK  5 active torsions:
REMARK  status: ('A' for Active; 'I' for Inactive)
REMARK    1  A    between atoms: C_1  and  C_12
REMARK    2  A    between atoms: C_2  and  O_9
REMARK    3  A    between atoms: C_4  and  O_7
REMARK    4  A    between atoms: C_12  and  C_13
REMARK    5  A    between atoms: C_14  and  O_19
REMARK                            x       y       z     vdW  Elec       q    Type
REMARK                         _______ _______ _______ _____ _____    ______ ____
ROOT
ATOM      1  C   UNL     1      34.943 -19.907 -20.769  0.00  0.00    +0.073 C 
ATOM      2  C   UNL     1      35.532 -20.956 -20.085  0.00  0.00    +0.140 C 
ATOM      3  C   UNL     1      33.576 -19.687 -20.720  0.00  0.00    +0.009 C 
ATOM      4  C   UNL     1      33.353 -21.604 -19.266  0.00  0.00    +0.142 C 
ATOM      5  C   UNL     1      34.731 -21.811 -19.328  0.00  0.00    +0.074 C 
ATOM      6  C   UNL     1      32.776 -20.541 -19.962  0.00  0.00    +0.037 C 
ENDROOT
BRANCH   4   7
ATOM      7  O   UNL     1      32.570 -22.438 -18.528  0.00  0.00    -0.471 OA
ATOM      8  C   UNL     1      33.205 -23.167 -17.479  0.00  0.00    +0.252 C 
ENDBRANCH   4   7
BRANCH   2   9
ATOM      9  O   UNL     1      36.876 -21.174 -20.129  0.00  0.00    -0.505 OA
ATOM     10  H   UNL     1      37.384 -20.823 -20.834  0.00  0.00    +0.292 HD
ENDBRANCH   2   9
BRANCH   1  12
ATOM     11  O   UNL     1      36.940 -18.737 -21.240  0.00  0.00    -0.286 OA
ATOM     12  C   UNL     1      35.773 -18.988 -21.574  0.00  0.00    +0.201 C 
BRANCH  12  13
ATOM     13  C   UNL     1      35.235 -18.345 -22.766  0.00  0.00    +0.073 C 
ATOM     14  C   UNL     1      34.935 -16.983 -22.770  0.00  0.00    +0.137 C 
ATOM     15  C   UNL     1      35.018 -19.110 -23.911  0.00  0.00    +0.006 C 
ATOM     16  C   UNL     1      34.419 -16.387 -23.920  0.00  0.00    +0.037 C 
ATOM     17  C   UNL     1      34.502 -18.514 -25.061  0.00  0.00    +0.000 C 
ATOM     18  C   UNL     1      34.202 -17.153 -25.066  0.00  0.00    +0.003 C 
BRANCH  14  19
ATOM     19  O   UNL     1      35.139 -16.218 -21.660  0.00  0.00    -0.505 OA
ATOM     20  H   UNL     1      34.711 -15.389 -21.577  0.00  0.00    +0.292 HD
ENDBRANCH  14  19
ENDBRANCH  12  13
ENDBRANCH   1  12
TORSDOF 5
ENDMDL
MODEL 4
REMARK VINA RESULT:      -9.1      1.678      2.412
REMARK  Name = 8569
REMARK  5 active torsions:
REMARK  status: ('A' for Active; 'I' for Inactive)
REMARK    1  A    between atoms: C_1  and  C_12
REMARK    2  A    between atoms: C_2  and  O_9
REMARK    3  A    between atoms: C_4  and  O_7
REMARK    4  A    between atoms: C_12  and  C_13
REMARK    5  A    between atoms: C_14  and  O_19
REMARK                            x       y       z     vdW  Elec       q    Type
REMARK                         _______ _______ _______ _____ _____    ______ ____
ROOT
ATOM      1  C   UNL     1      35.157 -16.988 -21.975  0.00  0.00    +0.073 C 
ATOM      2  C   UNL     1      34.998 -16.553 -23.279  0.00  0.00    +0.140 C 
ATOM      3  C   UNL     1      34.771 -16.204 -20.899  0.00  0.00    +0.009 C 
ATOM      4  C   UNL     1      34.043 -14.496 -22.445  0.00  0.00    +0.142 C 
ATOM      5  C   UNL     1      34.437 -15.298 -23.516  0.00  0.00    +0.074 C 
ATOM      6  C   UNL     1      34.210 -14.950 -21.136  0.00  0.00    +0.037 C 
ENDROOT
BRANCH   4   7
ATOM      7  O   UNL     1      33.497 -13.271 -22.676  0.00  0.00    -0.471 OA
ATOM      8  C   UNL     1      33.759 -12.671 -23.943  0.00  0.00    +0.252 C 
ENDBRANCH   4   7
BRANCH   2   9
ATOM      9  O   UNL     1      35.373 -17.323 -24.339  0.00  0.00    -0.505 OA
ATOM     10  H   UNL     1      35.808 -18.140 -24.194  0.00  0.00    +0.292 HD
ENDBRANCH   2   9
BRANCH   1  12
ATOM     11  O   UNL     1      36.903 -18.576 -22.054  0.00  0.00    -0.286 OA
ATOM     12  C   UNL     1      35.744 -18.315 -21.701  0.00  0.00    +0.201 C 
BRANCH  12  13
ATOM     13  C   UNL     1      34.972 -19.349 -21.025  0.00  0.00    +0.073 C 
ATOM     14  C   UNL     1      35.590 -20.254 -20.162  0.00  0.00    +0.137 C 
ATOM     15  C   UNL     1      33.598 -19.428 -21.252  0.00  0.00    +0.006 C 
ATOM     16  C   UNL     1      34.833 -21.238 -19.526  0.00  0.00    +0.037 C 
ATOM     17  C   UNL     1      32.842 -20.412 -20.616  0.00  0.00    +0.000 C 
ATOM     18  C   UNL     1      33.459 -21.317 -19.753  0.00  0.00    +0.003 C 
BRANCH  14  19
ATOM     19  O   UNL     1      36.932 -20.194 -19.928  0.00  0.00    -0.505 OA
ATOM     20  H   UNL     1      37.514 -20.758 -20.397  0.00  0.00    +0.292 HD
ENDBRANCH  14  19
ENDBRANCH  12  13
ENDBRANCH   1  12
TORSDOF 5
ENDMDL
MODEL 5
REMARK VINA RESULT:      -9.0      2.731      4.998
REMARK  Name = 8569
REMARK  5 active torsions:
REMARK  status: ('A' for Active; 'I' for Inactive)
REMARK    1  A    between atoms: C_1  and  C_12
REMARK    2  A    between atoms: C_2  and  O_9
REMARK    3  A    between atoms: C_4  and  O_7
REMARK    4  A    between atoms: C_12  and  C_13
REMARK    5  A    between atoms: C_14  and  O_19
REMARK                            x       y       z     vdW  Elec       q    Type
REMARK                         _______ _______ _______ _____ _____    ______ ____
ROOT
ATOM      1  C   UNL     1      33.964 -21.613 -19.650  0.00  0.00    +0.073 C 
ATOM      2  C   UNL     1      35.203 -21.073 -19.948  0.00  0.00    +0.140 C 
ATOM      3  C   UNL     1      32.790 -20.956 -19.981  0.00  0.00    +0.009 C 
ATOM      4  C   UNL     1      34.100 -19.165 -20.938  0.00  0.00    +0.142 C 
ATOM      5  C   UNL     1      35.272 -19.840 -20.596  0.00  0.00    +0.074 C 
ATOM      6  C   UNL     1      32.859 -19.723 -20.630  0.00  0.00    +0.037 C 
ENDROOT
BRANCH   4   7
ATOM      7  O   UNL     1      34.166 -17.961 -21.570  0.00  0.00    -0.471 OA
ATOM      8  C   UNL     1      35.025 -16.975 -21.000  0.00  0.00    +0.252 C 
ENDBRANCH   4   7
BRANCH   2   9
ATOM      9  O   UNL     1      36.360 -21.718 -19.626  0.00  0.00    -0.505 OA
ATOM     10  H   UNL     1      36.834 -21.473 -18.856  0.00  0.00    +0.292 HD
ENDBRANCH   2   9
BRANCH   1  12
ATOM     11  O   UNL     1      34.066 -23.971 -19.591  0.00  0.00    -0.286 OA
ATOM     12  C   UNL     1      33.868 -22.919 -18.967  0.00  0.00    +0.201 C 
BRANCH  12  13
ATOM     13  C   UNL     1      33.525 -22.999 -17.553  0.00  0.00    +0.073 C 
ATOM     14  C   UNL     1      34.521 -23.027 -16.576  0.00  0.00    +0.137 C 
ATOM     15  C   UNL     1      32.182 -23.050 -17.181  0.00  0.00    +0.006 C 
ATOM     16  C   UNL     1      34.172 -23.106 -15.228  0.00  0.00    +0.037 C 
ATOM     17  C   UNL     1      31.834 -23.129 -15.833  0.00  0.00    +0.000 C 
ATOM     18  C   UNL     1      32.828 -23.157 -14.857  0.00  0.00    +0.003 C 
BRANCH  14  19
ATOM     19  O   UNL     1      35.840 -22.980 -16.920  0.00  0.00    -0.505 OA
ATOM     20  H   UNL     1      36.184 -22.223 -17.352  0.00  0.00    +0.292 HD
ENDBRANCH  14  19
ENDBRANCH  12  13
ENDBRANCH   1  12
TORSDOF 5
ENDMDL
MODEL 6
REMARK VINA RESULT:      -8.9      3.829      8.143
REMARK  Name = 8569
REMARK  5 active torsions:
REMARK  status: ('A' for Active; 'I' for Inactive)
REMARK    1  A    between atoms: C_1  and  C_12
REMARK    2  A    between atoms: C_2  and  O_9
REMARK    3  A    between atoms: C_4  and  O_7
REMARK    4  A    between atoms: C_12  and  C_13
REMARK    5  A    between atoms: C_14  and  O_19
REMARK                            x       y       z     vdW  Elec       q    Type
REMARK                         _______ _______ _______ _____ _____    ______ ____
ROOT
ATOM      1  C   UNL     1      33.355 -23.012 -17.536  0.00  0.00    +0.073 C 
ATOM      2  C   UNL     1      34.287 -23.122 -16.519  0.00  0.00    +0.140 C 
ATOM      3  C   UNL     1      31.996 -22.956 -17.270  0.00  0.00    +0.009 C 
ATOM      4  C   UNL     1      32.485 -23.123 -14.910  0.00  0.00    +0.142 C 
ATOM      5  C   UNL     1      33.849 -23.178 -15.196  0.00  0.00    +0.074 C 
ATOM      6  C   UNL     1      31.558 -23.012 -15.947  0.00  0.00    +0.037 C 
ENDROOT
BRANCH   4   7
ATOM      7  O   UNL     1      32.056 -23.180 -13.619  0.00  0.00    -0.471 OA
ATOM      8  C   UNL     1      30.831 -23.867 -13.370  0.00  0.00    +0.252 C 
ENDBRANCH   4   7
BRANCH   2   9
ATOM      9  O   UNL     1      35.624 -23.173 -16.777  0.00  0.00    -0.505 OA
ATOM     10  H   UNL     1      35.926 -23.391 -17.637  0.00  0.00    +0.292 HD
ENDBRANCH   2   9
BRANCH   1  12
ATOM     11  O   UNL     1      34.049 -23.983 -19.574  0.00  0.00    -0.286 OA
ATOM     12  C   UNL     1      33.797 -22.946 -18.944  0.00  0.00    +0.201 C 
BRANCH  12  13
ATOM     13  C   UNL     1      33.960 -21.664 -19.616  0.00  0.00    +0.073 C 
ATOM     14  C   UNL     1      35.230 -21.135 -19.848  0.00  0.00    +0.137 C 
ATOM     15  C   UNL     1      32.828 -20.963 -20.029  0.00  0.00    +0.006 C 
ATOM     16  C   UNL     1      35.366 -19.905 -20.491  0.00  0.00    +0.037 C 
ATOM     17  C   UNL     1      32.964 -19.734 -20.672  0.00  0.00    +0.000 C 
ATOM     18  C   UNL     1      34.232 -19.204 -20.903  0.00  0.00    +0.003 C 
BRANCH  14  19
ATOM     19  O   UNL     1      36.350 -21.804 -19.451  0.00  0.00    -0.505 OA
ATOM     20  H   UNL     1      36.455 -22.710 -19.666  0.00  0.00    +0.292 HD
ENDBRANCH  14  19
ENDBRANCH  12  13
ENDBRANCH   1  12
TORSDOF 5
ENDMDL
MODEL 7
REMARK VINA RESULT:      -8.7      2.120      6.118
REMARK  Name = 8569
REMARK  5 active torsions:
REMARK  status: ('A' for Active; 'I' for Inactive)
REMARK    1  A    between atoms: C_1  and  C_12
REMARK    2  A    between atoms: C_2  and  O_9
REMARK    3  A    between atoms: C_4  and  O_7
REMARK    4  A    between atoms: C_12  and  C_13
REMARK    5  A    between atoms: C_14  and  O_19
REMARK                            x       y       z     vdW  Elec       q    Type
REMARK                         _______ _______ _______ _____ _____    ______ ____
ROOT
ATOM      1  C   UNL     1      34.845 -19.808 -21.191  0.00  0.00    +0.073 C 
ATOM      2  C   UNL     1      33.825 -20.507 -20.569  0.00  0.00    +0.140 C 
ATOM      3  C   UNL     1      36.162 -19.934 -20.781  0.00  0.00    +0.009 C 
ATOM      4  C   UNL     1      35.450 -21.495 -19.080  0.00  0.00    +0.142 C 
ATOM      5  C   UNL     1      34.129 -21.355 -19.506  0.00  0.00    +0.074 C 
ATOM      6  C   UNL     1      36.467 -20.783 -19.718  0.00  0.00    +0.037 C 
ENDROOT
BRANCH   4   7
ATOM      7  O   UNL     1      35.748 -22.322 -18.041  0.00  0.00    -0.471 OA
ATOM      8  C   UNL     1      36.831 -21.939 -17.195  0.00  0.00    +0.252 C 
ENDBRANCH   4   7
BRANCH   2   9
ATOM      9  O   UNL     1      32.528 -20.388 -20.972  0.00  0.00    -0.505 OA
ATOM     10  H   UNL     1      32.186 -20.965 -21.625  0.00  0.00    +0.292 HD
ENDBRANCH   2   9
BRANCH   1  12
ATOM     11  O   UNL     1      34.357 -19.364 -23.459  0.00  0.00    -0.286 OA
ATOM     12  C   UNL     1      34.545 -18.907 -22.322  0.00  0.00    +0.201 C 
BRANCH  12  13
ATOM     13  C   UNL     1      34.480 -17.464 -22.130  0.00  0.00    +0.073 C 
ATOM     14  C   UNL     1      34.890 -16.590 -23.137  0.00  0.00    +0.137 C 
ATOM     15  C   UNL     1      34.003 -16.960 -20.921  0.00  0.00    +0.006 C 
ATOM     16  C   UNL     1      34.821 -15.212 -22.933  0.00  0.00    +0.037 C 
ATOM     17  C   UNL     1      33.934 -15.582 -20.717  0.00  0.00    +0.000 C 
ATOM     18  C   UNL     1      34.344 -14.708 -21.723  0.00  0.00    +0.003 C 
BRANCH  14  19
ATOM     19  O   UNL     1      35.360 -17.062 -24.326  0.00  0.00    -0.505 OA
ATOM     20  H   UNL     1      34.777 -17.172 -25.050  0.00  0.00    +0.292 HD
ENDBRANCH  14  19
ENDBRANCH  12  13
ENDBRANCH   1  12
TORSDOF 5
ENDMDL
MODEL 8
REMARK VINA RESULT:      -8.4      3.617      8.036
REMARK  Name = 8569
REMARK  5 active torsions:
REMARK  status: ('A' for Active; 'I' for Inactive)
REMARK    1  A    between atoms: C_1  and  C_12
REMARK    2  A    between atoms: C_2  and  O_9
REMARK    3  A    between atoms: C_4  and  O_7
REMARK    4  A    between atoms: C_12  and  C_13
REMARK    5  A    between atoms: C_14  and  O_19
REMARK                            x       y       z     vdW  Elec       q    Type
REMARK                         _______ _______ _______ _____ _____    ______ ____
ROOT
ATOM      1  C   UNL     1      35.440 -22.395 -17.746  0.00  0.00    +0.073 C 
ATOM      2  C   UNL     1      34.790 -22.957 -16.661  0.00  0.00    +0.140 C 
ATOM      3  C   UNL     1      36.743 -21.935 -17.650  0.00  0.00    +0.009 C 
ATOM      4  C   UNL     1      36.775 -22.607 -15.329  0.00  0.00    +0.142 C 
ATOM      5  C   UNL     1      35.462 -23.064 -15.443  0.00  0.00    +0.074 C 
ATOM      6  C   UNL     1      37.415 -22.043 -16.433  0.00  0.00    +0.037 C 
ENDROOT
BRANCH   4   7
ATOM      7  O   UNL     1      37.431 -22.709 -14.141  0.00  0.00    -0.471 OA
ATOM      8  C   UNL     1      36.797 -23.467 -13.111  0.00  0.00    +0.252 C 
ENDBRANCH   4   7
BRANCH   2   9
ATOM      9  O   UNL     1      33.509 -23.412 -16.752  0.00  0.00    -0.505 OA
ATOM     10  H   UNL     1      33.344 -24.301 -17.000  0.00  0.00    +0.292 HD
ENDBRANCH   2   9
BRANCH   1  12
ATOM     11  O   UNL     1      34.090 -23.224 -19.497  0.00  0.00    -0.286 OA
ATOM     12  C   UNL     1      34.748 -22.276 -19.045  0.00  0.00    +0.201 C 
BRANCH  12  13
ATOM     13  C   UNL     1      34.836 -21.051 -19.829  0.00  0.00    +0.073 C 
ATOM     14  C   UNL     1      33.686 -20.355 -20.201  0.00  0.00    +0.137 C 
ATOM     15  C   UNL     1      36.091 -20.576 -20.209  0.00  0.00    +0.006 C 
ATOM     16  C   UNL     1      33.792 -19.186 -20.953  0.00  0.00    +0.037 C 
ATOM     17  C   UNL     1      36.197 -19.407 -20.961  0.00  0.00    +0.000 C 
ATOM     18  C   UNL     1      35.047 -18.711 -21.333  0.00  0.00    +0.003 C 
BRANCH  14  19
ATOM     19  O   UNL     1      32.450 -20.804 -19.841  0.00  0.00    -0.505 OA
ATOM     20  H   UNL     1      32.197 -21.685 -20.031  0.00  0.00    +0.292 HD
ENDBRANCH  14  19
ENDBRANCH  12  13
ENDBRANCH   1  12
TORSDOF 5
ENDMDL
MODEL 9
REMARK VINA RESULT:      -8.4      1.773      2.413
REMARK  Name = 8569
REMARK  5 active torsions:
REMARK  status: ('A' for Active; 'I' for Inactive)
REMARK    1  A    between atoms: C_1  and  C_12
REMARK    2  A    between atoms: C_2  and  O_9
REMARK    3  A    between atoms: C_4  and  O_7
REMARK    4  A    between atoms: C_12  and  C_13
REMARK    5  A    between atoms: C_14  and  O_19
REMARK                            x       y       z     vdW  Elec       q    Type
REMARK                         _______ _______ _______ _____ _____    ______ ____
ROOT
ATOM      1  C   UNL     1      34.553 -16.524 -22.755  0.00  0.00    +0.073 C 
ATOM      2  C   UNL     1      33.768 -15.405 -22.975  0.00  0.00    +0.140 C 
ATOM      3  C   UNL     1      35.015 -17.300 -23.805  0.00  0.00    +0.009 C 
ATOM      4  C   UNL     1      33.892 -15.821 -25.351  0.00  0.00    +0.142 C 
ATOM      5  C   UNL     1      33.435 -15.052 -24.282  0.00  0.00    +0.074 C 
ATOM      6  C   UNL     1      34.682 -16.946 -25.112  0.00  0.00    +0.037 C 
ENDROOT
BRANCH   4   7
ATOM      7  O   UNL     1      33.566 -15.478 -26.627  0.00  0.00    -0.471 OA
ATOM      8  C   UNL     1      33.121 -14.140 -26.847  0.00  0.00    +0.252 C 
ENDBRANCH   4   7
BRANCH   2   9
ATOM      9  O   UNL     1      33.314 -14.638 -21.944  0.00  0.00    -0.505 OA
ATOM     10  H   UNL     1      32.571 -14.080 -22.067  0.00  0.00    +0.292 HD
ENDBRANCH   2   9
BRANCH   1  12
ATOM     11  O   UNL     1      35.088 -16.053 -20.504  0.00  0.00    -0.286 OA
ATOM     12  C   UNL     1      34.921 -16.914 -21.379  0.00  0.00    +0.201 C 
BRANCH  12  13
ATOM     13  C   UNL     1      35.111 -18.315 -21.026  0.00  0.00    +0.073 C 
ATOM     14  C   UNL     1      34.016 -19.146 -20.787  0.00  0.00    +0.137 C 
ATOM     15  C   UNL     1      36.406 -18.821 -20.925  0.00  0.00    +0.006 C 
ATOM     16  C   UNL     1      34.219 -20.484 -20.448  0.00  0.00    +0.037 C 
ATOM     17  C   UNL     1      36.608 -20.159 -20.586  0.00  0.00    +0.000 C 
ATOM     18  C   UNL     1      35.515 -20.990 -20.347  0.00  0.00    +0.003 C 
BRANCH  14  19
ATOM     19  O   UNL     1      32.742 -18.670 -20.879  0.00  0.00    -0.505 OA
ATOM     20  H   UNL     1      32.578 -17.849 -21.299  0.00  0.00    +0.292 HD
ENDBRANCH  14  19
ENDBRANCH  12  13
ENDBRANCH   1  12
TORSDOF 5
ENDMDL
