MODEL 1
REMARK VINA RESULT:     -12.2      0.000      0.000
REMARK  Name = 11538992
REMARK  4 active torsions:
REMARK  status: ('A' for Active; 'I' for Inactive)
REMARK    1  A    between atoms: C_1  and  N_7
REMARK    2  A    between atoms: C_3  and  C_24
REMARK    3  A    between atoms: C_4  and  N_30
REMARK    4  A    between atoms: C_15  and  C_20
REMARK                            x       y       z     vdW  Elec       q    Type
REMARK                         _______ _______ _______ _____ _____    ______ ____
ROOT
ATOM      1  C   UNL     1      34.800 -22.081 -19.208  0.00  0.00    -0.059 C 
ATOM      2  C   UNL     1      36.019 -21.154 -19.242  0.00  0.00    -0.042 C 
ATOM      3  C   UNL     1      34.733 -19.514 -20.704  0.00  0.00    +0.005 C 
ATOM      4  C   UNL     1      36.051 -20.313 -20.529  0.00  0.00    -0.064 C 
ATOM      5  C   UNL     1      33.501 -21.286 -19.362  0.00  0.00    -0.021 C 
ATOM      6  C   UNL     1      33.511 -20.452 -20.642  0.00  0.00    +0.000 C 
ENDROOT
BRANCH   1   7
ATOM      7  N   UNL     1      34.777 -22.826 -17.950  0.00  0.00    +0.394 N 
ATOM      8  N   UNL     1      34.547 -23.532 -15.266  0.00  0.00    -0.299 N 
ATOM      9  N   UNL     1      32.390 -23.859 -15.296  0.00  0.00    -0.136 NA
ATOM     10  N   UNL     1      32.891 -24.291 -14.079  0.00  0.00    -0.125 NA
ATOM     11  C   UNL     1      35.775 -22.290 -17.005  0.00  0.00    -0.052 C 
ATOM     12  C   UNL     1      33.422 -22.799 -17.360  0.00  0.00    -0.009 C 
ATOM     13  C   UNL     1      35.859 -23.174 -15.752  0.00  0.00    +0.086 C 
ATOM     14  C   UNL     1      33.404 -23.407 -16.003  0.00  0.00    +0.122 A 
ATOM     15  C   UNL     1      34.191 -24.086 -14.084  0.00  0.00    +0.238 A 
ATOM     16  H   UNL     1      35.022 -23.797 -18.145  0.00  0.00    -0.079 HD
BRANCH  15  20
ATOM     17  F   UNL     1      34.573 -24.945 -11.884  0.00  0.00    -0.163 F 
ATOM     18  F   UNL     1      36.120 -25.303 -13.362  0.00  0.00    -0.163 F 
ATOM     19  F   UNL     1      35.834 -23.304 -12.552  0.00  0.00    -0.163 F 
ATOM     20  C   UNL     1      35.146 -24.401 -13.008  0.00  0.00    +0.452 C 
ENDBRANCH  15  20
ENDBRANCH   1   7
BRANCH   3  24
ATOM     21  F   UNL     1      34.752 -16.676 -20.720  0.00  0.00    -0.204 F 
ATOM     22  F   UNL     1      34.582 -19.183 -25.578  0.00  0.00    -0.202 F 
ATOM     23  F   UNL     1      34.605 -16.454 -25.444  0.00  0.00    -0.202 F 
ATOM     24  C   UNL     1      34.698 -18.686 -21.981  0.00  0.00    +0.005 C 
ATOM     25  C   UNL     1      34.710 -17.297 -21.907  0.00  0.00    +0.138 C 
ATOM     26  C   UNL     1      34.655 -19.327 -23.215  0.00  0.00    +0.030 C 
ATOM     27  C   UNL     1      34.623 -18.572 -24.387  0.00  0.00    +0.167 C 
ATOM     28  C   UNL     1      34.678 -16.542 -23.079  0.00  0.00    +0.061 C 
ATOM     29  C   UNL     1      34.634 -17.179 -24.318  0.00  0.00    +0.170 C 
ENDBRANCH   3  24
BRANCH   4  30
ATOM     30  N   UNL     1      37.205 -19.409 -20.492  0.00  0.00    +0.382 N 
ATOM     31  H   UNL     1      37.438 -19.117 -21.441  0.00  0.00    -0.089 HD
ATOM     32  H   UNL     1      38.003 -19.893 -20.080  0.00  0.00    -0.089 HD
ATOM     33  H   UNL     1      36.977 -18.589 -19.930  0.00  0.00    -0.089 HD
ENDBRANCH   4  30
TORSDOF 4
ENDMDL
MODEL 2
REMARK VINA RESULT:     -12.1      7.520     11.687
REMARK  Name = 11538992
REMARK  4 active torsions:
REMARK  status: ('A' for Active; 'I' for Inactive)
REMARK    1  A    between atoms: C_1  and  N_7
REMARK    2  A    between atoms: C_3  and  C_24
REMARK    3  A    between atoms: C_4  and  N_30
REMARK    4  A    between atoms: C_15  and  C_20
REMARK                            x       y       z     vdW  Elec       q    Type
REMARK                         _______ _______ _______ _____ _____    ______ ____
ROOT
ATOM      1  C   UNL     1      33.178 -12.007 -23.891  0.00  0.00    -0.059 C 
ATOM      2  C   UNL     1      34.261 -10.930 -24.007  0.00  0.00    -0.042 C 
ATOM      3  C   UNL     1      32.838  -9.348 -22.608  0.00  0.00    +0.005 C 
ATOM      4  C   UNL     1      33.661  -9.516 -23.911  0.00  0.00    -0.064 C 
ATOM      5  C   UNL     1      32.381 -11.848 -22.594  0.00  0.00    -0.021 C 
ATOM      6  C   UNL     1      31.769 -10.452 -22.487  0.00  0.00    +0.000 C 
ENDROOT
BRANCH   1   7
ATOM      7  N   UNL     1      33.791 -13.334 -23.935  0.00  0.00    +0.394 N 
ATOM      8  N   UNL     1      34.209 -16.087 -23.912  0.00  0.00    -0.299 N 
ATOM      9  N   UNL     1      33.789 -16.403 -26.029  0.00  0.00    -0.136 NA
ATOM     10  N   UNL     1      34.288 -17.579 -25.491  0.00  0.00    -0.125 NA
ATOM     11  C   UNL     1      33.566 -14.057 -22.670  0.00  0.00    -0.052 C 
ATOM     12  C   UNL     1      33.271 -14.104 -25.084  0.00  0.00    -0.009 C 
ATOM     13  C   UNL     1      34.346 -15.380 -22.660  0.00  0.00    +0.086 C 
ATOM     14  C   UNL     1      33.752 -15.510 -25.063  0.00  0.00    +0.122 A 
ATOM     15  C   UNL     1      34.535 -17.364 -24.217  0.00  0.00    +0.238 A 
ATOM     16  H   UNL     1      34.798 -13.220 -24.055  0.00  0.00    -0.079 HD
BRANCH  15  20
ATOM     17  F   UNL     1      36.315 -17.973 -22.738  0.00  0.00    -0.163 F 
ATOM     18  F   UNL     1      34.303 -18.512 -22.131  0.00  0.00    -0.163 F 
ATOM     19  F   UNL     1      35.268 -19.580 -23.762  0.00  0.00    -0.163 F 
ATOM     20  C   UNL     1      35.086 -18.322 -23.244  0.00  0.00    +0.452 C 
ENDBRANCH  15  20
ENDBRANCH   1   7
BRANCH   3  24
ATOM     21  F   UNL     1      32.717  -7.913 -20.163  0.00  0.00    -0.204 F 
ATOM     22  F   UNL     1      30.498  -5.525 -24.554  0.00  0.00    -0.202 F 
ATOM     23  F   UNL     1      30.452  -4.255 -22.134  0.00  0.00    -0.202 F 
ATOM     24  C   UNL     1      32.195  -7.974 -22.477  0.00  0.00    +0.005 C 
ATOM     25  C   UNL     1      32.175  -7.333 -21.243  0.00  0.00    +0.138 C 
ATOM     26  C   UNL     1      31.632  -7.370 -23.596  0.00  0.00    +0.030 C 
ATOM     27  C   UNL     1      31.041  -6.112 -23.481  0.00  0.00    +0.167 C 
ATOM     28  C   UNL     1      31.584  -6.075 -21.127  0.00  0.00    +0.061 C 
ATOM     29  C   UNL     1      31.018  -5.465 -22.245  0.00  0.00    +0.170 C 
ENDBRANCH   3  24
BRANCH   4  30
ATOM     30  N   UNL     1      34.739  -8.524 -23.977  0.00  0.00    +0.382 N 
ATOM     31  H   UNL     1      34.748  -7.975 -23.118  0.00  0.00    -0.089 HD
ATOM     32  H   UNL     1      34.585  -7.907 -24.774  0.00  0.00    -0.089 HD
ATOM     33  H   UNL     1      35.634  -9.001 -24.084  0.00  0.00    -0.089 HD
ENDBRANCH   4  30
TORSDOF 4
ENDMDL
MODEL 3
REMARK VINA RESULT:     -11.8      0.892      1.781
REMARK  Name = 11538992
REMARK  4 active torsions:
REMARK  status: ('A' for Active; 'I' for Inactive)
REMARK    1  A    between atoms: C_1  and  N_7
REMARK    2  A    between atoms: C_3  and  C_24
REMARK    3  A    between atoms: C_4  and  N_30
REMARK    4  A    between atoms: C_15  and  C_20
REMARK                            x       y       z     vdW  Elec       q    Type
REMARK                         _______ _______ _______ _____ _____    ______ ____
ROOT
ATOM      1  C   UNL     1      34.687 -21.753 -19.664  0.00  0.00    -0.059 C 
ATOM      2  C   UNL     1      35.952 -20.889 -19.714  0.00  0.00    -0.042 C 
ATOM      3  C   UNL     1      34.697 -19.131 -21.062  0.00  0.00    +0.005 C 
ATOM      4  C   UNL     1      35.976 -20.003 -20.971  0.00  0.00    -0.064 C 
ATOM      5  C   UNL     1      33.427 -20.886 -19.735  0.00  0.00    -0.021 C 
ATOM      6  C   UNL     1      33.431 -20.006 -20.983  0.00  0.00    +0.000 C 
ENDROOT
BRANCH   1   7
ATOM      7  N   UNL     1      34.674 -22.543 -18.433  0.00  0.00    +0.394 N 
ATOM      8  N   UNL     1      34.446 -23.350 -15.778  0.00  0.00    -0.299 N 
ATOM      9  N   UNL     1      32.298 -23.724 -15.833  0.00  0.00    -0.136 NA
ATOM     10  N   UNL     1      32.802 -24.188 -14.628  0.00  0.00    -0.125 NA
ATOM     11  C   UNL     1      35.655 -22.019 -17.464  0.00  0.00    -0.052 C 
ATOM     12  C   UNL     1      33.316 -22.568 -17.850  0.00  0.00    -0.009 C 
ATOM     13  C   UNL     1      35.752 -22.946 -16.243  0.00  0.00    +0.086 C 
ATOM     14  C   UNL     1      33.305 -23.224 -16.517  0.00  0.00    +0.122 A 
ATOM     15  C   UNL     1      34.097 -23.954 -14.618  0.00  0.00    +0.238 A 
ATOM     16  H   UNL     1      34.942 -23.501 -18.662  0.00  0.00    -0.079 HD
BRANCH  15  20
ATOM     17  F   UNL     1      35.978 -25.242 -13.892  0.00  0.00    -0.163 F 
ATOM     18  F   UNL     1      35.808 -23.224 -13.115  0.00  0.00    -0.163 F 
ATOM     19  F   UNL     1      34.453 -24.774 -12.415  0.00  0.00    -0.163 F 
ATOM     20  C   UNL     1      35.053 -24.286 -13.548  0.00  0.00    +0.452 C 
ENDBRANCH  15  20
ENDBRANCH   1   7
BRANCH   3  24
ATOM     21  F   UNL     1      34.857 -20.165 -23.700  0.00  0.00    -0.204 F 
ATOM     22  F   UNL     1      34.375 -14.741 -23.185  0.00  0.00    -0.202 F 
ATOM     23  F   UNL     1      34.539 -15.872 -25.667  0.00  0.00    -0.202 F 
ATOM     24  C   UNL     1      34.655 -18.254 -22.306  0.00  0.00    +0.005 C 
ATOM     25  C   UNL     1      34.740 -18.836 -23.567  0.00  0.00    +0.138 C 
ATOM     26  C   UNL     1      34.532 -16.875 -22.171  0.00  0.00    +0.030 C 
ATOM     27  C   UNL     1      34.493 -16.069 -23.308  0.00  0.00    +0.167 C 
ATOM     28  C   UNL     1      34.701 -18.030 -24.704  0.00  0.00    +0.061 C 
ATOM     29  C   UNL     1      34.578 -16.647 -24.575  0.00  0.00    +0.170 C 
ENDBRANCH   3  24
BRANCH   4  30
ATOM     30  N   UNL     1      37.178 -19.161 -20.949  0.00  0.00    +0.382 N 
ATOM     31  H   UNL     1      37.008 -18.343 -20.366  0.00  0.00    -0.089 HD
ATOM     32  H   UNL     1      37.400 -18.862 -21.898  0.00  0.00    -0.089 HD
ATOM     33  H   UNL     1      37.959 -19.695 -20.568  0.00  0.00    -0.089 HD
ENDBRANCH   4  30
TORSDOF 4
ENDMDL
MODEL 4
REMARK VINA RESULT:     -11.7      7.058     10.859
REMARK  Name = 11538992
REMARK  4 active torsions:
REMARK  status: ('A' for Active; 'I' for Inactive)
REMARK    1  A    between atoms: C_1  and  N_7
REMARK    2  A    between atoms: C_3  and  C_24
REMARK    3  A    between atoms: C_4  and  N_30
REMARK    4  A    between atoms: C_15  and  C_20
REMARK                            x       y       z     vdW  Elec       q    Type
REMARK                         _______ _______ _______ _____ _____    ______ ____
ROOT
ATOM      1  C   UNL     1      32.392 -12.710 -22.939  0.00  0.00    -0.059 C 
ATOM      2  C   UNL     1      33.575 -11.864 -23.422  0.00  0.00    -0.042 C 
ATOM      3  C   UNL     1      32.562  -9.812 -22.307  0.00  0.00    +0.005 C 
ATOM      4  C   UNL     1      33.173 -10.391 -23.609  0.00  0.00    -0.064 C 
ATOM      5  C   UNL     1      31.805 -12.144 -21.644  0.00  0.00    -0.021 C 
ATOM      6  C   UNL     1      31.391 -10.684 -21.815  0.00  0.00    +0.000 C 
ENDROOT
BRANCH   1   7
ATOM      7  N   UNL     1      32.825 -14.091 -22.725  0.00  0.00    +0.394 N 
ATOM      8  N   UNL     1      34.359 -16.395 -22.433  0.00  0.00    -0.299 N 
ATOM      9  N   UNL     1      34.805 -16.111 -20.316  0.00  0.00    -0.136 NA
ATOM     10  N   UNL     1      35.241 -17.369 -20.701  0.00  0.00    -0.125 NA
ATOM     11  C   UNL     1      33.522 -14.612 -23.915  0.00  0.00    -0.052 C 
ATOM     12  C   UNL     1      33.684 -14.181 -21.526  0.00  0.00    -0.009 C 
ATOM     13  C   UNL     1      33.830 -16.107 -23.745  0.00  0.00    +0.086 C 
ATOM     14  C   UNL     1      34.270 -15.538 -21.374  0.00  0.00    +0.122 A 
ATOM     15  C   UNL     1      34.961 -17.519 -21.978  0.00  0.00    +0.238 A 
ATOM     16  H   UNL     1      31.997 -14.667 -22.570  0.00  0.00    -0.079 HD
BRANCH  15  20
ATOM     17  F   UNL     1      34.174 -19.088 -23.604  0.00  0.00    -0.163 F 
ATOM     18  F   UNL     1      36.271 -18.542 -23.698  0.00  0.00    -0.163 F 
ATOM     19  F   UNL     1      35.553 -19.819 -22.090  0.00  0.00    -0.163 F 
ATOM     20  C   UNL     1      35.230 -18.700 -22.815  0.00  0.00    +0.452 C 
ENDBRANCH  15  20
ENDBRANCH   1   7
BRANCH   3  24
ATOM     21  F   UNL     1      32.917  -7.873 -20.264  0.00  0.00    -0.204 F 
ATOM     22  F   UNL     1      30.508  -6.201 -24.881  0.00  0.00    -0.202 F 
ATOM     23  F   UNL     1      30.913  -4.439 -22.832  0.00  0.00    -0.202 F 
ATOM     24  C   UNL     1      32.118  -8.362 -22.446  0.00  0.00    +0.005 C 
ATOM     25  C   UNL     1      32.327  -7.470 -21.398  0.00  0.00    +0.138 C 
ATOM     26  C   UNL     1      31.506  -7.940 -23.621  0.00  0.00    +0.030 C 
ATOM     27  C   UNL     1      31.097  -6.613 -23.752  0.00  0.00    +0.167 C 
ATOM     28  C   UNL     1      31.918  -6.143 -21.529  0.00  0.00    +0.061 C 
ATOM     29  C   UNL     1      31.304  -5.714 -22.705  0.00  0.00    +0.170 C 
ENDBRANCH   3  24
BRANCH   4  30
ATOM     30  N   UNL     1      34.347  -9.615 -24.023  0.00  0.00    +0.382 N 
ATOM     31  H   UNL     1      34.407  -9.606 -25.040  0.00  0.00    -0.089 HD
ATOM     32  H   UNL     1      35.189 -10.040 -23.636  0.00  0.00    -0.089 HD
ATOM     33  H   UNL     1      34.260  -8.658 -23.679  0.00  0.00    -0.089 HD
ENDBRANCH   4  30
TORSDOF 4
ENDMDL
MODEL 5
REMARK VINA RESULT:     -11.6      7.637     11.607
REMARK  Name = 11538992
REMARK  4 active torsions:
REMARK  status: ('A' for Active; 'I' for Inactive)
REMARK    1  A    between atoms: C_1  and  N_7
REMARK    2  A    between atoms: C_3  and  C_24
REMARK    3  A    between atoms: C_4  and  N_30
REMARK    4  A    between atoms: C_15  and  C_20
REMARK                            x       y       z     vdW  Elec       q    Type
REMARK                         _______ _______ _______ _____ _____    ______ ____
ROOT
ATOM      1  C   UNL     1      33.877 -12.290 -22.987  0.00  0.00    -0.059 C 
ATOM      2  C   UNL     1      32.393 -12.274 -22.607  0.00  0.00    -0.042 C 
ATOM      3  C   UNL     1      32.237  -9.835 -23.319  0.00  0.00    +0.005 C 
ATOM      4  C   UNL     1      31.933 -10.864 -22.200  0.00  0.00    -0.064 C 
ATOM      5  C   UNL     1      34.169 -11.286 -24.105  0.00  0.00    -0.021 C 
ATOM      6  C   UNL     1      33.727  -9.878 -23.713  0.00  0.00    +0.000 C 
ENDROOT
BRANCH   1   7
ATOM      7  N   UNL     1      34.265 -13.634 -23.416  0.00  0.00    +0.394 N 
ATOM      8  N   UNL     1      34.267 -16.356 -24.001  0.00  0.00    -0.299 N 
ATOM      9  N   UNL     1      33.379 -16.168 -25.985  0.00  0.00    -0.136 NA
ATOM     10  N   UNL     1      33.799 -17.477 -25.804  0.00  0.00    -0.125 NA
ATOM     11  C   UNL     1      34.200 -14.583 -22.290  0.00  0.00    -0.052 C 
ATOM     12  C   UNL     1      33.413 -14.083 -24.537  0.00  0.00    -0.009 C 
ATOM     13  C   UNL     1      34.762 -15.951 -22.706  0.00  0.00    +0.086 C 
ATOM     14  C   UNL     1      33.674 -15.504 -24.887  0.00  0.00    +0.122 A 
ATOM     15  C   UNL     1      34.331 -17.566 -24.604  0.00  0.00    +0.238 A 
ATOM     16  H   UNL     1      35.232 -13.601 -23.742  0.00  0.00    -0.079 HD
BRANCH  15  20
ATOM     17  F   UNL     1      36.230 -18.608 -23.588  0.00  0.00    -0.163 F 
ATOM     18  F   UNL     1      34.276 -19.184 -22.843  0.00  0.00    -0.163 F 
ATOM     19  F   UNL     1      34.932 -19.857 -24.804  0.00  0.00    -0.163 F 
ATOM     20  C   UNL     1      34.923 -18.761 -23.979  0.00  0.00    +0.452 C 
ENDBRANCH  15  20
ENDBRANCH   1   7
BRANCH   3  24
ATOM     21  F   UNL     1      30.686  -8.177 -25.022  0.00  0.00    -0.204 F 
ATOM     22  F   UNL     1      32.223  -6.055 -20.221  0.00  0.00    -0.202 F 
ATOM     23  F   UNL     1      30.726  -4.570 -21.959  0.00  0.00    -0.202 F 
ATOM     24  C   UNL     1      31.829  -8.414 -22.955  0.00  0.00    +0.005 C 
ATOM     25  C   UNL     1      31.066  -7.663 -23.844  0.00  0.00    +0.138 C 
ATOM     26  C   UNL     1      32.221  -7.878 -21.733  0.00  0.00    +0.030 C 
ATOM     27  C   UNL     1      31.849  -6.577 -21.395  0.00  0.00    +0.167 C 
ATOM     28  C   UNL     1      30.694  -6.362 -23.506  0.00  0.00    +0.061 C 
ATOM     29  C   UNL     1      31.085  -5.819 -22.283  0.00  0.00    +0.170 C 
ENDBRANCH   3  24
BRANCH   4  30
ATOM     30  N   UNL     1      30.498 -10.890 -21.894  0.00  0.00    +0.382 N 
ATOM     31  H   UNL     1      30.304 -10.250 -21.125  0.00  0.00    -0.089 HD
ATOM     32  H   UNL     1      30.225 -11.836 -21.627  0.00  0.00    -0.089 HD
ATOM     33  H   UNL     1      29.970 -10.603 -22.718  0.00  0.00    -0.089 HD
ENDBRANCH   4  30
TORSDOF 4
ENDMDL
MODEL 6
REMARK VINA RESULT:     -11.2      1.707      2.754
REMARK  Name = 11538992
REMARK  4 active torsions:
REMARK  status: ('A' for Active; 'I' for Inactive)
REMARK    1  A    between atoms: C_1  and  N_7
REMARK    2  A    between atoms: C_3  and  C_24
REMARK    3  A    between atoms: C_4  and  N_30
REMARK    4  A    between atoms: C_15  and  C_20
REMARK                            x       y       z     vdW  Elec       q    Type
REMARK                         _______ _______ _______ _____ _____    ______ ____
ROOT
ATOM      1  C   UNL     1      35.887 -20.829 -18.877  0.00  0.00    -0.059 C 
ATOM      2  C   UNL     1      34.525 -21.080 -19.531  0.00  0.00    -0.042 C 
ATOM      3  C   UNL     1      35.267 -19.766 -21.581  0.00  0.00    +0.005 C 
ATOM      4  C   UNL     1      34.158 -19.955 -20.514  0.00  0.00    -0.064 C 
ATOM      5  C   UNL     1      36.982 -20.661 -19.934  0.00  0.00    -0.021 C 
ATOM      6  C   UNL     1      36.638 -19.541 -20.913  0.00  0.00    +0.000 C 
ENDROOT
BRANCH   1   7
ATOM      7  N   UNL     1      36.224 -21.941 -17.989  0.00  0.00    +0.394 N 
ATOM      8  N   UNL     1      36.566 -23.569 -15.756  0.00  0.00    -0.299 N 
ATOM      9  N   UNL     1      34.561 -24.430 -15.787  0.00  0.00    -0.136 NA
ATOM     10  N   UNL     1      35.325 -25.107 -14.849  0.00  0.00    -0.125 NA
ATOM     11  C   UNL     1      37.203 -21.520 -16.970  0.00  0.00    -0.052 C 
ATOM     12  C   UNL     1      35.003 -22.484 -17.358  0.00  0.00    -0.009 C 
ATOM     13  C   UNL     1      37.673 -22.728 -16.145  0.00  0.00    +0.086 C 
ATOM     14  C   UNL     1      35.327 -23.507 -16.329  0.00  0.00    +0.122 A 
ATOM     15  C   UNL     1      36.528 -24.573 -14.849  0.00  0.00    +0.238 A 
ATOM     16  H   UNL     1      36.652 -22.681 -18.547  0.00  0.00    -0.079 HD
BRANCH  15  20
ATOM     17  F   UNL     1      38.801 -25.310 -14.742  0.00  0.00    -0.163 F 
ATOM     18  F   UNL     1      38.112 -24.008 -13.149  0.00  0.00    -0.163 F 
ATOM     19  F   UNL     1      37.428 -26.070 -13.237  0.00  0.00    -0.163 F 
ATOM     20  C   UNL     1      37.679 -24.975 -14.024  0.00  0.00    +0.452 C 
ENDBRANCH  15  20
ENDBRANCH   1   7
BRANCH   3  24
ATOM     21  F   UNL     1      35.014 -20.171 -24.379  0.00  0.00    -0.204 F 
ATOM     22  F   UNL     1      34.375 -15.058 -22.545  0.00  0.00    -0.202 F 
ATOM     23  F   UNL     1      34.158 -15.592 -25.216  0.00  0.00    -0.202 F 
ATOM     24  C   UNL     1      34.968 -18.641 -22.564  0.00  0.00    +0.005 C 
ATOM     25  C   UNL     1      34.859 -18.920 -23.923  0.00  0.00    +0.138 C 
ATOM     26  C   UNL     1      34.806 -17.342 -22.094  0.00  0.00    +0.030 C 
ATOM     27  C   UNL     1      34.532 -16.310 -22.991  0.00  0.00    +0.167 C 
ATOM     28  C   UNL     1      34.585 -17.888 -24.820  0.00  0.00    +0.061 C 
ATOM     29  C   UNL     1      34.423 -16.584 -24.354  0.00  0.00    +0.170 C 
ENDBRANCH   3  24
BRANCH   4  30
ATOM     30  N   UNL     1      32.873 -20.264 -21.150  0.00  0.00    +0.382 N 
ATOM     31  H   UNL     1      32.214 -20.590 -20.443  0.00  0.00    -0.089 HD
ATOM     32  H   UNL     1      33.007 -20.993 -21.850  0.00  0.00    -0.089 HD
ATOM     33  H   UNL     1      32.504 -19.425 -21.597  0.00  0.00    -0.089 HD
ENDBRANCH   4  30
TORSDOF 4
ENDMDL
MODEL 7
REMARK VINA RESULT:     -10.7      7.338     12.836
REMARK  Name = 11538992
REMARK  4 active torsions:
REMARK  status: ('A' for Active; 'I' for Inactive)
REMARK    1  A    between atoms: C_1  and  N_7
REMARK    2  A    between atoms: C_3  and  C_24
REMARK    3  A    between atoms: C_4  and  N_30
REMARK    4  A    between atoms: C_15  and  C_20
REMARK                            x       y       z     vdW  Elec       q    Type
REMARK                         _______ _______ _______ _____ _____    ______ ____
ROOT
ATOM      1  C   UNL     1      32.585 -12.501 -23.222  0.00  0.00    -0.059 C 
ATOM      2  C   UNL     1      32.388 -13.051 -21.806  0.00  0.00    -0.042 C 
ATOM      3  C   UNL     1      34.123 -14.857 -22.265  0.00  0.00    +0.005 C 
ATOM      4  C   UNL     1      32.695 -14.557 -21.740  0.00  0.00    -0.064 C 
ATOM      5  C   UNL     1      34.002 -12.783 -23.728  0.00  0.00    -0.021 C 
ATOM      6  C   UNL     1      34.321 -14.276 -23.679  0.00  0.00    +0.000 C 
ENDROOT
BRANCH   1   7
ATOM      7  N   UNL     1      32.334 -11.060 -23.233  0.00  0.00    +0.394 N 
ATOM      8  N   UNL     1      32.431  -8.326 -22.715  0.00  0.00    -0.299 N 
ATOM      9  N   UNL     1      34.038  -7.880 -24.122  0.00  0.00    -0.136 NA
ATOM     10  N   UNL     1      33.518  -6.688 -23.643  0.00  0.00    -0.125 NA
ATOM     11  C   UNL     1      31.903 -10.593 -21.903  0.00  0.00    -0.052 C 
ATOM     12  C   UNL     1      33.537 -10.331 -23.686  0.00  0.00    -0.009 C 
ATOM     13  C   UNL     1      31.486  -9.115 -21.961  0.00  0.00    +0.086 C 
ATOM     14  C   UNL     1      33.367  -8.860 -23.554  0.00  0.00    +0.122 A 
ATOM     15  C   UNL     1      32.552  -6.981 -22.800  0.00  0.00    +0.238 A 
ATOM     16  H   UNL     1      31.577 -10.870 -23.892  0.00  0.00    -0.079 HD
BRANCH  15  20
ATOM     17  F   UNL     1      30.358  -6.176 -22.285  0.00  0.00    -0.163 F 
ATOM     18  F   UNL     1      31.825  -6.124 -20.688  0.00  0.00    -0.163 F 
ATOM     19  F   UNL     1      31.972  -4.721 -22.344  0.00  0.00    -0.163 F 
ATOM     20  C   UNL     1      31.705  -6.035 -22.054  0.00  0.00    +0.452 C 
ENDBRANCH  15  20
ENDBRANCH   1   7
BRANCH   3  24
ATOM     21  F   UNL     1      35.102 -16.205 -19.968  0.00  0.00    -0.204 F 
ATOM     22  F   UNL     1      34.465 -19.184 -24.510  0.00  0.00    -0.202 F 
ATOM     23  F   UNL     1      35.400 -20.354 -22.224  0.00  0.00    -0.202 F 
ATOM     24  C   UNL     1      34.469 -16.340 -22.252  0.00  0.00    +0.005 C 
ATOM     25  C   UNL     1      34.944 -16.930 -21.084  0.00  0.00    +0.138 C 
ATOM     26  C   UNL     1      34.305 -17.094 -23.409  0.00  0.00    +0.030 C 
ATOM     27  C   UNL     1      34.620 -18.453 -23.400  0.00  0.00    +0.167 C 
ATOM     28  C   UNL     1      35.260 -18.288 -21.076  0.00  0.00    +0.061 C 
ATOM     29  C   UNL     1      35.098 -19.049 -22.233  0.00  0.00    +0.170 C 
ENDBRANCH   3  24
BRANCH   4  30
ATOM     30  N   UNL     1      32.540 -15.026 -20.359  0.00  0.00    +0.382 N 
ATOM     31  H   UNL     1      31.952 -15.859 -20.348  0.00  0.00    -0.089 HD
ATOM     32  H   UNL     1      32.104 -14.294 -19.799  0.00  0.00    -0.089 HD
ATOM     33  H   UNL     1      33.456 -15.251 -19.972  0.00  0.00    -0.089 HD
ENDBRANCH   4  30
TORSDOF 4
ENDMDL
MODEL 8
REMARK VINA RESULT:     -10.3      7.455     11.346
REMARK  Name = 11538992
REMARK  4 active torsions:
REMARK  status: ('A' for Active; 'I' for Inactive)
REMARK    1  A    between atoms: C_1  and  N_7
REMARK    2  A    between atoms: C_3  and  C_24
REMARK    3  A    between atoms: C_4  and  N_30
REMARK    4  A    between atoms: C_15  and  C_20
REMARK                            x       y       z     vdW  Elec       q    Type
REMARK                         _______ _______ _______ _____ _____    ______ ____
ROOT
ATOM      1  C   UNL     1      33.338 -12.577 -22.714  0.00  0.00    -0.059 C 
ATOM      2  C   UNL     1      31.973 -12.244 -22.103  0.00  0.00    -0.042 C 
ATOM      3  C   UNL     1      32.048  -9.942 -23.187  0.00  0.00    +0.005 C 
ATOM      4  C   UNL     1      31.814 -10.732 -21.873  0.00  0.00    -0.064 C 
ATOM      5  C   UNL     1      33.557 -11.809 -24.021  0.00  0.00    -0.021 C 
ATOM      6  C   UNL     1      33.412 -10.303 -23.808  0.00  0.00    +0.000 C 
ENDROOT
BRANCH   1   7
ATOM      7  N   UNL     1      33.432 -14.015 -22.965  0.00  0.00    +0.394 N 
ATOM      8  N   UNL     1      34.359 -16.559 -23.611  0.00  0.00    -0.299 N 
ATOM      9  N   UNL     1      35.147 -17.030 -21.632  0.00  0.00    -0.136 NA
ATOM     10  N   UNL     1      35.195 -18.172 -22.416  0.00  0.00    -0.125 NA
ATOM     11  C   UNL     1      33.806 -14.279 -24.367  0.00  0.00    -0.052 C 
ATOM     12  C   UNL     1      34.396 -14.638 -22.034  0.00  0.00    -0.009 C 
ATOM     13  C   UNL     1      33.745 -15.785 -24.664  0.00  0.00    +0.086 C 
ATOM     14  C   UNL     1      34.636 -16.066 -22.369  0.00  0.00    +0.122 A 
ATOM     15  C   UNL     1      34.714 -17.865 -23.602  0.00  0.00    +0.238 A 
ATOM     16  H   UNL     1      32.515 -14.432 -22.802  0.00  0.00    -0.079 HD
BRANCH  15  20
ATOM     17  F   UNL     1      33.254 -19.042 -25.088  0.00  0.00    -0.163 F 
ATOM     18  F   UNL     1      35.109 -18.288 -25.923  0.00  0.00    -0.163 F 
ATOM     19  F   UNL     1      35.140 -19.993 -24.574  0.00  0.00    -0.163 F 
ATOM     20  C   UNL     1      34.558 -18.764 -24.758  0.00  0.00    +0.452 C 
ENDBRANCH  15  20
ENDBRANCH   1   7
BRANCH   3  24
ATOM     21  F   UNL     1      33.102  -8.554 -20.947  0.00  0.00    -0.204 F 
ATOM     22  F   UNL     1      30.556  -5.558 -24.749  0.00  0.00    -0.202 F 
ATOM     23  F   UNL     1      31.618  -4.352 -22.540  0.00  0.00    -0.202 F 
ATOM     24  C   UNL     1      31.933  -8.434 -23.009  0.00  0.00    +0.005 C 
ATOM     25  C   UNL     1      32.476  -7.825 -21.882  0.00  0.00    +0.138 C 
ATOM     26  C   UNL     1      31.285  -7.675 -23.979  0.00  0.00    +0.030 C 
ATOM     27  C   UNL     1      31.178  -6.294 -23.820  0.00  0.00    +0.167 C 
ATOM     28  C   UNL     1      32.369  -6.444 -21.723  0.00  0.00    +0.061 C 
ATOM     29  C   UNL     1      31.720  -5.679 -22.691  0.00  0.00    +0.170 C 
ENDBRANCH   3  24
BRANCH   4  30
ATOM     30  N   UNL     1      30.477 -10.459 -21.335  0.00  0.00    +0.382 N 
ATOM     31  H   UNL     1      29.809 -11.118 -21.735  0.00  0.00    -0.089 HD
ATOM     32  H   UNL     1      30.201  -9.507 -21.575  0.00  0.00    -0.089 HD
ATOM     33  H   UNL     1      30.491 -10.563 -20.320  0.00  0.00    -0.089 HD
ENDBRANCH   4  30
TORSDOF 4
ENDMDL
MODEL 9
REMARK VINA RESULT:      -9.9      6.686     12.483
REMARK  Name = 11538992
REMARK  4 active torsions:
REMARK  status: ('A' for Active; 'I' for Inactive)
REMARK    1  A    between atoms: C_1  and  N_7
REMARK    2  A    between atoms: C_3  and  C_24
REMARK    3  A    between atoms: C_4  and  N_30
REMARK    4  A    between atoms: C_15  and  C_20
REMARK                            x       y       z     vdW  Elec       q    Type
REMARK                         _______ _______ _______ _____ _____    ______ ____
ROOT
ATOM      1  C   UNL     1      32.637 -13.536 -23.081  0.00  0.00    -0.059 C 
ATOM      2  C   UNL     1      32.540 -13.764 -21.569  0.00  0.00    -0.042 C 
ATOM      3  C   UNL     1      34.022 -15.822 -21.785  0.00  0.00    +0.005 C 
ATOM      4  C   UNL     1      32.698 -15.252 -21.215  0.00  0.00    -0.064 C 
ATOM      5  C   UNL     1      33.954 -14.084 -23.637  0.00  0.00    -0.021 C 
ATOM      6  C   UNL     1      34.122 -15.564 -23.302  0.00  0.00    +0.000 C 
ENDROOT
BRANCH   1   7
ATOM      7  N   UNL     1      32.533 -12.106 -23.375  0.00  0.00    +0.394 N 
ATOM      8  N   UNL     1      32.778  -9.335 -23.281  0.00  0.00    -0.299 N 
ATOM      9  N   UNL     1      34.687  -9.234 -24.333  0.00  0.00    -0.136 NA
ATOM     10  N   UNL     1      34.193  -7.949 -24.179  0.00  0.00    -0.125 NA
ATOM     11  C   UNL     1      31.871 -11.391 -22.269  0.00  0.00    -0.052 C 
ATOM     12  C   UNL     1      33.870 -11.539 -23.648  0.00  0.00    -0.009 C 
ATOM     13  C   UNL     1      31.620  -9.924 -22.651  0.00  0.00    +0.086 C 
ATOM     14  C   UNL     1      33.818 -10.060 -23.789  0.00  0.00    +0.122 A 
ATOM     15  C   UNL     1      33.043  -8.034 -23.544  0.00  0.00    +0.238 A 
ATOM     16  H   UNL     1      31.959 -11.990 -24.211  0.00  0.00    -0.079 HD
BRANCH  15  20
ATOM     17  F   UNL     1      32.548  -5.695 -23.633  0.00  0.00    -0.163 F 
ATOM     18  F   UNL     1      30.860  -7.058 -23.628  0.00  0.00    -0.163 F 
ATOM     19  F   UNL     1      32.023  -6.762 -21.813  0.00  0.00    -0.163 F 
ATOM     20  C   UNL     1      32.149  -6.925 -23.170  0.00  0.00    +0.452 C 
ENDBRANCH  15  20
ENDBRANCH   1   7
BRANCH   3  24
ATOM     21  F   UNL     1      36.453 -17.203 -22.272  0.00  0.00    -0.204 F 
ATOM     22  F   UNL     1      32.328 -20.110 -20.162  0.00  0.00    -0.202 F 
ATOM     23  F   UNL     1      34.727 -21.312 -20.681  0.00  0.00    -0.202 F 
ATOM     24  C   UNL     1      34.215 -17.304 -21.489  0.00  0.00    +0.005 C 
ATOM     25  C   UNL     1      35.438 -17.910 -21.756  0.00  0.00    +0.138 C 
ATOM     26  C   UNL     1      33.163 -18.040 -20.952  0.00  0.00    +0.030 C 
ATOM     27  C   UNL     1      33.336 -19.396 -20.679  0.00  0.00    +0.167 C 
ATOM     28  C   UNL     1      35.611 -19.267 -21.483  0.00  0.00    +0.061 C 
ATOM     29  C   UNL     1      34.561 -20.010 -20.945  0.00  0.00    +0.170 C 
ENDBRANCH   3  24
BRANCH   4  30
ATOM     30  N   UNL     1      32.648 -15.413 -19.758  0.00  0.00    +0.382 N 
ATOM     31  H   UNL     1      33.405 -14.880 -19.331  0.00  0.00    -0.089 HD
ATOM     32  H   UNL     1      32.752 -16.400 -19.521  0.00  0.00    -0.089 HD
ATOM     33  H   UNL     1      31.753 -15.072 -19.408  0.00  0.00    -0.089 HD
ENDBRANCH   4  30
TORSDOF 4
ENDMDL
