MODEL 1
REMARK VINA RESULT:     -11.0      0.000      0.000
REMARK  Name = 10617
REMARK  5 active torsions:
REMARK  status: ('A' for Active; 'I' for Inactive)
REMARK    1  A    between atoms: C_10  and  C_18
REMARK    2  A    between atoms: C_18  and  C_19
REMARK    3  A    between atoms: C_19  and  C_20
REMARK    4  A    between atoms: C_20  and  C_22
REMARK    5  A    between atoms: C_22  and  O_23
REMARK                            x       y       z     vdW  Elec       q    Type
REMARK                         _______ _______ _______ _____ _____    ______ ____
ROOT
ATOM      1  C   UNL     1      34.891 -22.604 -16.979  0.00  0.00    +0.000 C 
ATOM      2  C   UNL     1      32.735 -23.262 -16.529  0.00  0.00    +0.000 C 
ATOM      3  C   UNL     1      33.620 -22.688 -17.534  0.00  0.00    +0.000 C 
ATOM      4  C   UNL     1      34.882 -23.089 -15.679  0.00  0.00    +0.000 C 
ATOM      5  C   UNL     1      33.523 -23.512 -15.370  0.00  0.00    +0.000 C 
ATOM      6  C   UNL     1      36.014 -22.106 -17.635  0.00  0.00    +0.000 C 
ATOM      7  C   UNL     1      31.386 -23.559 -16.554  0.00  0.00    +0.003 C 
ATOM      8  C   UNL     1      32.967 -24.061 -14.231  0.00  0.00    +0.000 C 
ATOM      9  C   UNL     1      33.421 -22.252 -18.830  0.00  0.00    +0.000 C 
ATOM     10  C   UNL     1      30.821 -24.115 -15.402  0.00  0.00    +0.035 C 
ATOM     11  C   UNL     1      36.060 -23.090 -14.954  0.00  0.00    +0.000 C 
ATOM     12  C   UNL     1      31.602 -24.363 -14.256  0.00  0.00    +0.003 C 
ATOM     13  C   UNL     1      35.806 -21.663 -18.957  0.00  0.00    +0.000 C 
ATOM     14  C   UNL     1      37.210 -22.109 -16.893  0.00  0.00    +0.000 C 
ATOM     15  C   UNL     1      34.522 -21.739 -19.539  0.00  0.00    +0.000 C 
ATOM     16  C   UNL     1      37.224 -22.597 -15.569  0.00  0.00    +0.000 C 
ENDROOT
BRANCH  10  18
ATOM     17  O   UNL     1      28.967 -25.341 -14.638  0.00  0.00    -0.291 OA
ATOM     18  C   UNL     1      29.404 -24.444 -15.385  0.00  0.00    +0.174 C 
BRANCH  18  19
ATOM     19  C   UNL     1      28.427 -23.677 -16.296  0.00  0.00    +0.081 C 
BRANCH  19  20
ATOM     20  C   UNL     1      27.928 -22.373 -15.685  0.00  0.00    +0.117 C 
BRANCH  20  22
ATOM     21  O   UNL     1      26.696 -21.387 -17.511  0.00  0.00    -0.250 OA
ATOM     22  C   UNL     1      26.692 -21.884 -16.393  0.00  0.00    +0.314 C 
BRANCH  22  23
ATOM     23  O   UNL     1      25.569 -22.042 -15.650  0.00  0.00    -0.480 OA
ATOM     24  H   UNL     1      24.747 -21.723 -15.968  0.00  0.00    +0.295 HD
ENDBRANCH  22  23
ENDBRANCH  20  22
ENDBRANCH  19  20
ENDBRANCH  18  19
ENDBRANCH  10  18
TORSDOF 5
ENDMDL
MODEL 2
REMARK VINA RESULT:     -10.8      6.754      9.810
REMARK  Name = 10617
REMARK  5 active torsions:
REMARK  status: ('A' for Active; 'I' for Inactive)
REMARK    1  A    between atoms: C_10  and  C_18
REMARK    2  A    between atoms: C_18  and  C_19
REMARK    3  A    between atoms: C_19  and  C_20
REMARK    4  A    between atoms: C_20  and  C_22
REMARK    5  A    between atoms: C_22  and  O_23
REMARK                            x       y       z     vdW  Elec       q    Type
REMARK                         _______ _______ _______ _____ _____    ______ ____
ROOT
ATOM      1  C   UNL     1      33.521 -15.201 -23.177  0.00  0.00    +0.000 C 
ATOM      2  C   UNL     1      34.458 -16.918 -21.970  0.00  0.00    +0.000 C 
ATOM      3  C   UNL     1      33.753 -15.646 -21.882  0.00  0.00    +0.000 C 
ATOM      4  C   UNL     1      34.032 -16.106 -24.097  0.00  0.00    +0.000 C 
ATOM      5  C   UNL     1      34.632 -17.205 -23.354  0.00  0.00    +0.000 C 
ATOM      6  C   UNL     1      32.869 -14.015 -23.506  0.00  0.00    +0.000 C 
ATOM      7  C   UNL     1      34.925 -17.780 -20.996  0.00  0.00    +0.003 C 
ATOM      8  C   UNL     1      35.273 -18.356 -23.770  0.00  0.00    +0.000 C 
ATOM      9  C   UNL     1      33.318 -14.879 -20.818  0.00  0.00    +0.000 C 
ATOM     10  C   UNL     1      35.574 -18.945 -21.416  0.00  0.00    +0.035 C 
ATOM     11  C   UNL     1      33.899 -15.840 -25.447  0.00  0.00    +0.000 C 
ATOM     12  C   UNL     1      35.745 -19.229 -22.785  0.00  0.00    +0.003 C 
ATOM     13  C   UNL     1      32.426 -13.237 -22.417  0.00  0.00    +0.000 C 
ATOM     14  C   UNL     1      32.736 -13.748 -24.882  0.00  0.00    +0.000 C 
ATOM     15  C   UNL     1      32.652 -13.671 -21.093  0.00  0.00    +0.000 C 
ATOM     16  C   UNL     1      33.248 -14.656 -25.834  0.00  0.00    +0.000 C 
ENDROOT
BRANCH  10  18
ATOM     17  O   UNL     1      37.086 -19.603 -19.740  0.00  0.00    -0.291 OA
ATOM     18  C   UNL     1      36.081 -19.881 -20.424  0.00  0.00    +0.174 C 
BRANCH  18  19
ATOM     19  C   UNL     1      35.370 -21.230 -20.208  0.00  0.00    +0.081 C 
BRANCH  19  20
ATOM     20  C   UNL     1      33.907 -21.085 -19.803  0.00  0.00    +0.117 C 
BRANCH  20  22
ATOM     21  O   UNL     1      32.495 -22.343 -18.304  0.00  0.00    -0.250 OA
ATOM     22  C   UNL     1      33.414 -22.329 -19.111  0.00  0.00    +0.314 C 
BRANCH  22  23
ATOM     23  O   UNL     1      34.109 -23.435 -19.472  0.00  0.00    -0.480 OA
ATOM     24  H   UNL     1      33.721 -24.284 -19.380  0.00  0.00    +0.295 HD
ENDBRANCH  22  23
ENDBRANCH  20  22
ENDBRANCH  19  20
ENDBRANCH  18  19
ENDBRANCH  10  18
TORSDOF 5
ENDMDL
MODEL 3
REMARK VINA RESULT:     -10.4      4.764      7.694
REMARK  Name = 10617
REMARK  5 active torsions:
REMARK  status: ('A' for Active; 'I' for Inactive)
REMARK    1  A    between atoms: C_10  and  C_18
REMARK    2  A    between atoms: C_18  and  C_19
REMARK    3  A    between atoms: C_19  and  C_20
REMARK    4  A    between atoms: C_20  and  C_22
REMARK    5  A    between atoms: C_22  and  O_23
REMARK                            x       y       z     vdW  Elec       q    Type
REMARK                         _______ _______ _______ _____ _____    ______ ____
ROOT
ATOM      1  C   UNL     1      33.308 -23.161 -16.015  0.00  0.00    +0.000 C 
ATOM      2  C   UNL     1      35.232 -23.514 -14.809  0.00  0.00    +0.000 C 
ATOM      3  C   UNL     1      34.693 -23.109 -16.101  0.00  0.00    +0.000 C 
ATOM      4  C   UNL     1      32.917 -23.572 -14.748  0.00  0.00    +0.000 C 
ATOM      5  C   UNL     1      34.123 -23.803 -13.964  0.00  0.00    +0.000 C 
ATOM      6  C   UNL     1      32.435 -22.844 -17.053  0.00  0.00    +0.000 C 
ATOM      7  C   UNL     1      36.530 -23.638 -14.353  0.00  0.00    +0.003 C 
ATOM      8  C   UNL     1      34.306 -24.217 -12.659  0.00  0.00    +0.000 C 
ATOM      9  C   UNL     1      35.281 -22.720 -17.289  0.00  0.00    +0.000 C 
ATOM     10  C   UNL     1      36.717 -24.057 -13.032  0.00  0.00    +0.035 C 
ATOM     11  C   UNL     1      31.569 -23.686 -14.464  0.00  0.00    +0.000 C 
ATOM     12  C   UNL     1      35.620 -24.342 -12.196  0.00  0.00    +0.003 C 
ATOM     13  C   UNL     1      33.039 -22.447 -18.263  0.00  0.00    +0.000 C 
ATOM     14  C   UNL     1      31.063 -22.961 -16.759  0.00  0.00    +0.000 C 
ATOM     15  C   UNL     1      34.445 -22.388 -18.371  0.00  0.00    +0.000 C 
ATOM     16  C   UNL     1      30.644 -23.378 -15.477  0.00  0.00    +0.000 C 
ENDROOT
BRANCH  10  18
ATOM     17  O   UNL     1      38.588 -23.294 -11.829  0.00  0.00    -0.291 OA
ATOM     18  C   UNL     1      38.068 -24.201 -12.510  0.00  0.00    +0.174 C 
BRANCH  18  19
ATOM     19  C   UNL     1      38.868 -25.486 -12.793  0.00  0.00    +0.081 C 
BRANCH  19  20
ATOM     20  C   UNL     1      38.930 -25.845 -14.273  0.00  0.00    +0.117 C 
BRANCH  20  22
ATOM     21  O   UNL     1      41.007 -24.618 -14.346  0.00  0.00    -0.250 OA
ATOM     22  C   UNL     1      40.234 -25.400 -14.882  0.00  0.00    +0.314 C 
BRANCH  22  23
ATOM     23  O   UNL     1      40.454 -25.951 -16.101  0.00  0.00    -0.480 OA
ATOM     24  H   UNL     1      40.673 -25.405 -16.830  0.00  0.00    +0.295 HD
ENDBRANCH  22  23
ENDBRANCH  20  22
ENDBRANCH  19  20
ENDBRANCH  18  19
ENDBRANCH  10  18
TORSDOF 5
ENDMDL
MODEL 4
REMARK VINA RESULT:     -10.3      9.465     11.689
REMARK  Name = 10617
REMARK  5 active torsions:
REMARK  status: ('A' for Active; 'I' for Inactive)
REMARK    1  A    between atoms: C_10  and  C_18
REMARK    2  A    between atoms: C_18  and  C_19
REMARK    3  A    between atoms: C_19  and  C_20
REMARK    4  A    between atoms: C_20  and  C_22
REMARK    5  A    between atoms: C_22  and  O_23
REMARK                            x       y       z     vdW  Elec       q    Type
REMARK                         _______ _______ _______ _____ _____    ______ ____
ROOT
ATOM      1  C   UNL     1      34.154 -16.261 -23.135  0.00  0.00    +0.000 C 
ATOM      2  C   UNL     1      32.981 -14.353 -22.617  0.00  0.00    +0.000 C 
ATOM      3  C   UNL     1      33.497 -15.177 -23.702  0.00  0.00    +0.000 C 
ATOM      4  C   UNL     1      34.095 -16.190 -21.750  0.00  0.00    +0.000 C 
ATOM      5  C   UNL     1      33.355 -14.986 -21.397  0.00  0.00    +0.000 C 
ATOM      6  C   UNL     1      34.783 -17.275 -23.854  0.00  0.00    +0.000 C 
ATOM      7  C   UNL     1      32.261 -13.175 -22.619  0.00  0.00    +0.003 C 
ATOM      8  C   UNL     1      33.010 -14.444 -20.175  0.00  0.00    +0.000 C 
ATOM      9  C   UNL     1      33.445 -15.066 -25.079  0.00  0.00    +0.000 C 
ATOM     10  C   UNL     1      31.910 -12.625 -21.382  0.00  0.00    +0.035 C 
ATOM     11  C   UNL     1      34.695 -17.184 -21.000  0.00  0.00    +0.000 C 
ATOM     12  C   UNL     1      32.279 -13.252 -20.176  0.00  0.00    +0.003 C 
ATOM     13  C   UNL     1      34.726 -17.157 -25.257  0.00  0.00    +0.000 C 
ATOM     14  C   UNL     1      35.393 -18.285 -23.086  0.00  0.00    +0.000 C 
ATOM     15  C   UNL     1      34.064 -16.063 -25.854  0.00  0.00    +0.000 C 
ATOM     16  C   UNL     1      35.344 -18.232 -21.676  0.00  0.00    +0.000 C 
ENDROOT
BRANCH  10  18
ATOM     17  O   UNL     1      30.598 -10.939 -22.364  0.00  0.00    -0.291 OA
ATOM     18  C   UNL     1      31.150 -11.385 -21.338  0.00  0.00    +0.174 C 
BRANCH  18  19
ATOM     19  C   UNL     1      31.019 -10.612 -20.013  0.00  0.00    +0.081 C 
BRANCH  19  20
ATOM     20  C   UNL     1      32.281  -9.847 -19.631  0.00  0.00    +0.117 C 
BRANCH  20  22
ATOM     21  O   UNL     1      31.717  -8.197 -21.300  0.00  0.00    -0.250 OA
ATOM     22  C   UNL     1      32.292  -8.477 -20.257  0.00  0.00    +0.314 C 
BRANCH  22  23
ATOM     23  O   UNL     1      33.023  -7.585 -19.544  0.00  0.00    -0.480 OA
ATOM     24  H   UNL     1      33.820  -7.242 -19.897  0.00  0.00    +0.295 HD
ENDBRANCH  22  23
ENDBRANCH  20  22
ENDBRANCH  19  20
ENDBRANCH  18  19
ENDBRANCH  10  18
TORSDOF 5
ENDMDL
MODEL 5
REMARK VINA RESULT:     -10.2      8.222     10.963
REMARK  Name = 10617
REMARK  5 active torsions:
REMARK  status: ('A' for Active; 'I' for Inactive)
REMARK    1  A    between atoms: C_10  and  C_18
REMARK    2  A    between atoms: C_18  and  C_19
REMARK    3  A    between atoms: C_19  and  C_20
REMARK    4  A    between atoms: C_20  and  C_22
REMARK    5  A    between atoms: C_22  and  O_23
REMARK                            x       y       z     vdW  Elec       q    Type
REMARK                         _______ _______ _______ _____ _____    ______ ____
ROOT
ATOM      1  C   UNL     1      33.007 -12.880 -22.578  0.00  0.00    +0.000 C 
ATOM      2  C   UNL     1      33.610 -15.001 -21.929  0.00  0.00    +0.000 C 
ATOM      3  C   UNL     1      32.875 -13.803 -21.548  0.00  0.00    +0.000 C 
ATOM      4  C   UNL     1      33.781 -13.409 -23.602  0.00  0.00    +0.000 C 
ATOM      5  C   UNL     1      34.175 -14.755 -23.213  0.00  0.00    +0.000 C 
ATOM      6  C   UNL     1      32.443 -11.607 -22.582  0.00  0.00    +0.000 C 
ATOM      7  C   UNL     1      33.805 -16.205 -21.281  0.00  0.00    +0.003 C 
ATOM      8  C   UNL     1      34.938 -15.712 -23.854  0.00  0.00    +0.000 C 
ATOM      9  C   UNL     1      32.137 -13.463 -20.430  0.00  0.00    +0.000 C 
ATOM     10  C   UNL     1      34.577 -17.175 -21.928  0.00  0.00    +0.035 C 
ATOM     11  C   UNL     1      34.028 -12.639 -24.724  0.00  0.00    +0.000 C 
ATOM     12  C   UNL     1      35.135 -16.931 -23.198  0.00  0.00    +0.003 C 
ATOM     13  C   UNL     1      31.691 -11.265 -21.441  0.00  0.00    +0.000 C 
ATOM     14  C   UNL     1      32.698 -10.826 -23.727  0.00  0.00    +0.000 C 
ATOM     15  C   UNL     1      31.545 -12.188 -20.382  0.00  0.00    +0.000 C 
ATOM     16  C   UNL     1      33.482 -11.345 -24.780  0.00  0.00    +0.000 C 
ENDROOT
BRANCH  10  18
ATOM     17  O   UNL     1      35.767 -18.616 -20.501  0.00  0.00    -0.291 OA
ATOM     18  C   UNL     1      34.807 -18.458 -21.282  0.00  0.00    +0.174 C 
BRANCH  18  19
ATOM     19  C   UNL     1      33.856 -19.637 -21.556  0.00  0.00    +0.081 C 
BRANCH  19  20
ATOM     20  C   UNL     1      33.019 -20.034 -20.345  0.00  0.00    +0.117 C 
BRANCH  20  22
ATOM     21  O   UNL     1      32.853 -22.294 -19.512  0.00  0.00    -0.250 OA
ATOM     22  C   UNL     1      33.540 -21.303 -19.722  0.00  0.00    +0.314 C 
BRANCH  22  23
ATOM     23  O   UNL     1      34.857 -21.226 -19.407  0.00  0.00    -0.480 OA
ATOM     24  H   UNL     1      35.462 -21.845 -19.766  0.00  0.00    +0.295 HD
ENDBRANCH  22  23
ENDBRANCH  20  22
ENDBRANCH  19  20
ENDBRANCH  18  19
ENDBRANCH  10  18
TORSDOF 5
ENDMDL
MODEL 6
REMARK VINA RESULT:     -10.0      1.296      2.161
REMARK  Name = 10617
REMARK  5 active torsions:
REMARK  status: ('A' for Active; 'I' for Inactive)
REMARK    1  A    between atoms: C_10  and  C_18
REMARK    2  A    between atoms: C_18  and  C_19
REMARK    3  A    between atoms: C_19  and  C_20
REMARK    4  A    between atoms: C_20  and  C_22
REMARK    5  A    between atoms: C_22  and  O_23
REMARK                            x       y       z     vdW  Elec       q    Type
REMARK                         _______ _______ _______ _____ _____    ______ ____
ROOT
ATOM      1  C   UNL     1      35.536 -23.588 -14.892  0.00  0.00    +0.000 C 
ATOM      2  C   UNL     1      33.291 -23.537 -15.380  0.00  0.00    +0.000 C 
ATOM      3  C   UNL     1      34.618 -23.143 -15.834  0.00  0.00    +0.000 C 
ATOM      4  C   UNL     1      34.886 -24.246 -13.857  0.00  0.00    +0.000 C 
ATOM      5  C   UNL     1      33.458 -24.225 -14.145  0.00  0.00    +0.000 C 
ATOM      6  C   UNL     1      36.914 -23.401 -14.975  0.00  0.00    +0.000 C 
ATOM      7  C   UNL     1      32.038 -23.349 -15.930  0.00  0.00    +0.003 C 
ATOM      8  C   UNL     1      32.373 -24.730 -13.455  0.00  0.00    +0.000 C 
ATOM      9  C   UNL     1      35.071 -22.461 -16.947  0.00  0.00    +0.000 C 
ATOM     10  C   UNL     1      30.938 -23.859 -15.233  0.00  0.00    +0.035 C 
ATOM     11  C   UNL     1      35.633 -24.765 -12.816  0.00  0.00    +0.000 C 
ATOM     12  C   UNL     1      31.104 -24.541 -14.012  0.00  0.00    +0.003 C 
ATOM     13  C   UNL     1      37.372 -22.706 -16.111  0.00  0.00    +0.000 C 
ATOM     14  C   UNL     1      37.670 -23.932 -13.912  0.00  0.00    +0.000 C 
ATOM     15  C   UNL     1      36.455 -22.244 -17.081  0.00  0.00    +0.000 C 
ATOM     16  C   UNL     1      37.029 -24.604 -12.850  0.00  0.00    +0.000 C 
ENDROOT
BRANCH  10  18
ATOM     17  O   UNL     1      29.025 -24.620 -16.368  0.00  0.00    -0.291 OA
ATOM     18  C   UNL     1      29.600 -23.685 -15.776  0.00  0.00    +0.174 C 
BRANCH  18  19
ATOM     19  C   UNL     1      28.878 -22.334 -15.619  0.00  0.00    +0.081 C 
BRANCH  19  20
ATOM     20  C   UNL     1      27.368 -22.430 -15.808  0.00  0.00    +0.117 C 
BRANCH  20  22
ATOM     21  O   UNL     1      26.544 -20.938 -17.518  0.00  0.00    -0.250 OA
ATOM     22  C   UNL     1      26.974 -22.042 -17.209  0.00  0.00    +0.314 C 
BRANCH  22  23
ATOM     23  O   UNL     1      27.136 -23.055 -18.095  0.00  0.00    -0.480 OA
ATOM     24  H   UNL     1      27.584 -23.837 -17.836  0.00  0.00    +0.295 HD
ENDBRANCH  22  23
ENDBRANCH  20  22
ENDBRANCH  19  20
ENDBRANCH  18  19
ENDBRANCH  10  18
TORSDOF 5
ENDMDL
MODEL 7
REMARK VINA RESULT:      -9.9      8.836     11.375
REMARK  Name = 10617
REMARK  5 active torsions:
REMARK  status: ('A' for Active; 'I' for Inactive)
REMARK    1  A    between atoms: C_10  and  C_18
REMARK    2  A    between atoms: C_18  and  C_19
REMARK    3  A    between atoms: C_19  and  C_20
REMARK    4  A    between atoms: C_20  and  C_22
REMARK    5  A    between atoms: C_22  and  O_23
REMARK                            x       y       z     vdW  Elec       q    Type
REMARK                         _______ _______ _______ _____ _____    ______ ____
ROOT
ATOM      1  C   UNL     1      32.706 -12.089 -22.480  0.00  0.00    +0.000 C 
ATOM      2  C   UNL     1      33.605 -14.199 -22.618  0.00  0.00    +0.000 C 
ATOM      3  C   UNL     1      33.498 -12.905 -23.277  0.00  0.00    +0.000 C 
ATOM      4  C   UNL     1      32.295 -12.775 -21.346  0.00  0.00    +0.000 C 
ATOM      5  C   UNL     1      32.853 -14.118 -21.411  0.00  0.00    +0.000 C 
ATOM      6  C   UNL     1      32.373 -10.769 -22.777  0.00  0.00    +0.000 C 
ATOM      7  C   UNL     1      34.264 -15.360 -22.972  0.00  0.00    +0.003 C 
ATOM      8  C   UNL     1      32.758 -15.197 -20.553  0.00  0.00    +0.000 C 
ATOM      9  C   UNL     1      34.008 -12.402 -24.459  0.00  0.00    +0.000 C 
ATOM     10  C   UNL     1      34.170 -16.453 -22.105  0.00  0.00    +0.035 C 
ATOM     11  C   UNL     1      31.493 -12.128 -20.422  0.00  0.00    +0.000 C 
ATOM     12  C   UNL     1      33.427 -16.372 -20.911  0.00  0.00    +0.003 C 
ATOM     13  C   UNL     1      32.896 -10.261 -23.982  0.00  0.00    +0.000 C 
ATOM     14  C   UNL     1      31.557 -10.115 -21.833  0.00  0.00    +0.000 C 
ATOM     15  C   UNL     1      33.703 -11.074 -24.807  0.00  0.00    +0.000 C 
ATOM     16  C   UNL     1      31.127 -10.795 -20.673  0.00  0.00    +0.000 C 
ENDROOT
BRANCH  10  18
ATOM     17  O   UNL     1      35.390 -17.847 -23.553  0.00  0.00    -0.291 OA
ATOM     18  C   UNL     1      34.850 -17.695 -22.439  0.00  0.00    +0.174 C 
BRANCH  18  19
ATOM     19  C   UNL     1      34.911 -18.838 -21.409  0.00  0.00    +0.081 C 
BRANCH  19  20
ATOM     20  C   UNL     1      33.617 -19.639 -21.317  0.00  0.00    +0.117 C 
BRANCH  20  22
ATOM     21  O   UNL     1      32.622 -20.928 -19.535  0.00  0.00    -0.250 OA
ATOM     22  C   UNL     1      33.630 -20.549 -20.117  0.00  0.00    +0.314 C 
BRANCH  22  23
ATOM     23  O   UNL     1      34.885 -20.894 -19.740  0.00  0.00    -0.480 OA
ATOM     24  H   UNL     1      35.624 -20.571 -20.216  0.00  0.00    +0.295 HD
ENDBRANCH  22  23
ENDBRANCH  20  22
ENDBRANCH  19  20
ENDBRANCH  18  19
ENDBRANCH  10  18
TORSDOF 5
ENDMDL
MODEL 8
REMARK VINA RESULT:      -9.8     11.298     14.064
REMARK  Name = 10617
REMARK  5 active torsions:
REMARK  status: ('A' for Active; 'I' for Inactive)
REMARK    1  A    between atoms: C_10  and  C_18
REMARK    2  A    between atoms: C_18  and  C_19
REMARK    3  A    between atoms: C_19  and  C_20
REMARK    4  A    between atoms: C_20  and  C_22
REMARK    5  A    between atoms: C_22  and  O_23
REMARK                            x       y       z     vdW  Elec       q    Type
REMARK                         _______ _______ _______ _____ _____    ______ ____
ROOT
ATOM      1  C   UNL     1      32.349  -9.923 -21.692  0.00  0.00    +0.000 C 
ATOM      2  C   UNL     1      32.651 -11.884 -22.851  0.00  0.00    +0.000 C 
ATOM      3  C   UNL     1      32.137 -11.294 -21.623  0.00  0.00    +0.000 C 
ATOM      4  C   UNL     1      32.967  -9.590 -22.889  0.00  0.00    +0.000 C 
ATOM      5  C   UNL     1      33.170 -10.820 -23.642  0.00  0.00    +0.000 C 
ATOM      6  C   UNL     1      31.992  -9.012 -20.700  0.00  0.00    +0.000 C 
ATOM      7  C   UNL     1      32.695 -13.192 -23.295  0.00  0.00    +0.003 C 
ATOM      8  C   UNL     1      33.734 -11.057 -24.881  0.00  0.00    +0.000 C 
ATOM      9  C   UNL     1      31.530 -11.826 -20.502  0.00  0.00    +0.000 C 
ATOM     10  C   UNL     1      33.265 -13.434 -24.549  0.00  0.00    +0.035 C 
ATOM     11  C   UNL     1      33.264  -8.264 -23.147  0.00  0.00    +0.000 C 
ATOM     12  C   UNL     1      33.777 -12.381 -25.331  0.00  0.00    +0.003 C 
ATOM     13  C   UNL     1      31.372  -9.559 -19.559  0.00  0.00    +0.000 C 
ATOM     14  C   UNL     1      32.296  -7.663 -20.968  0.00  0.00    +0.000 C 
ATOM     15  C   UNL     1      31.148 -10.950 -19.469  0.00  0.00    +0.000 C 
ATOM     16  C   UNL     1      32.924  -7.303 -22.179  0.00  0.00    +0.000 C 
ENDROOT
BRANCH  10  18
ATOM     17  O   UNL     1      32.766 -15.108 -26.122  0.00  0.00    -0.291 OA
ATOM     18  C   UNL     1      33.331 -14.797 -25.055  0.00  0.00    +0.174 C 
BRANCH  18  19
ATOM     19  C   UNL     1      34.108 -15.870 -24.272  0.00  0.00    +0.081 C 
BRANCH  19  20
ATOM     20  C   UNL     1      34.477 -17.086 -25.115  0.00  0.00    +0.117 C 
BRANCH  20  22
ATOM     21  O   UNL     1      34.699 -19.364 -24.347  0.00  0.00    -0.250 OA
ATOM     22  C   UNL     1      35.033 -18.190 -24.254  0.00  0.00    +0.314 C 
BRANCH  22  23
ATOM     23  O   UNL     1      35.939 -17.740 -23.352  0.00  0.00    -0.480 OA
ATOM     24  H   UNL     1      36.698 -18.253 -23.153  0.00  0.00    +0.295 HD
ENDBRANCH  22  23
ENDBRANCH  20  22
ENDBRANCH  19  20
ENDBRANCH  18  19
ENDBRANCH  10  18
TORSDOF 5
ENDMDL
MODEL 9
REMARK VINA RESULT:      -9.8      5.059      7.757
REMARK  Name = 10617
REMARK  5 active torsions:
REMARK  status: ('A' for Active; 'I' for Inactive)
REMARK    1  A    between atoms: C_10  and  C_18
REMARK    2  A    between atoms: C_18  and  C_19
REMARK    3  A    between atoms: C_19  and  C_20
REMARK    4  A    between atoms: C_20  and  C_22
REMARK    5  A    between atoms: C_22  and  O_23
REMARK                            x       y       z     vdW  Elec       q    Type
REMARK                         _______ _______ _______ _____ _____    ______ ____
ROOT
ATOM      1  C   UNL     1      35.087 -20.686 -19.811  0.00  0.00    +0.000 C 
ATOM      2  C   UNL     1      36.116 -21.766 -18.063  0.00  0.00    +0.000 C 
ATOM      3  C   UNL     1      36.317 -20.870 -19.194  0.00  0.00    +0.000 C 
ATOM      4  C   UNL     1      34.102 -21.406 -19.150  0.00  0.00    +0.000 C 
ATOM      5  C   UNL     1      34.732 -22.102 -18.036  0.00  0.00    +0.000 C 
ATOM      6  C   UNL     1      34.872 -19.890 -20.934  0.00  0.00    +0.000 C 
ATOM      7  C   UNL     1      36.993 -22.274 -17.124  0.00  0.00    +0.003 C 
ATOM      8  C   UNL     1      34.219 -22.944 -17.069  0.00  0.00    +0.000 C 
ATOM      9  C   UNL     1      37.431 -20.233 -19.707  0.00  0.00    +0.000 C 
ATOM     10  C   UNL     1      36.476 -23.128 -16.145  0.00  0.00    +0.035 C 
ATOM     11  C   UNL     1      32.802 -21.351 -19.615  0.00  0.00    +0.000 C 
ATOM     12  C   UNL     1      35.107 -23.458 -16.118  0.00  0.00    +0.003 C 
ATOM     13  C   UNL     1      36.010 -19.241 -21.453  0.00  0.00    +0.000 C 
ATOM     14  C   UNL     1      33.546 -19.837 -21.404  0.00  0.00    +0.000 C 
ATOM     15  C   UNL     1      37.271 -19.416 -20.841  0.00  0.00    +0.000 C 
ATOM     16  C   UNL     1      32.530 -20.562 -20.747  0.00  0.00    +0.000 C 
ENDROOT
BRANCH  10  18
ATOM     17  O   UNL     1      37.831 -22.964 -14.231  0.00  0.00    -0.291 OA
ATOM     18  C   UNL     1      37.364 -23.684 -15.136  0.00  0.00    +0.174 C 
BRANCH  18  19
ATOM     19  C   UNL     1      37.733 -25.178 -15.178  0.00  0.00    +0.081 C 
BRANCH  19  20
ATOM     20  C   UNL     1      38.860 -25.550 -14.221  0.00  0.00    +0.117 C 
BRANCH  20  22
ATOM     21  O   UNL     1      40.530 -26.087 -15.879  0.00  0.00    -0.250 OA
ATOM     22  C   UNL     1      40.202 -25.435 -14.897  0.00  0.00    +0.314 C 
BRANCH  22  23
ATOM     23  O   UNL     1      41.015 -24.537 -14.289  0.00  0.00    -0.480 OA
ATOM     24  H   UNL     1      41.367 -23.818 -14.775  0.00  0.00    +0.295 HD
ENDBRANCH  22  23
ENDBRANCH  20  22
ENDBRANCH  19  20
ENDBRANCH  18  19
ENDBRANCH  10  18
TORSDOF 5
ENDMDL
