MODEL 1
REMARK VINA RESULT:     -12.3      0.000      0.000
REMARK  Name = 5287728
REMARK  9 active torsions:
REMARK  status: ('A' for Active; 'I' for Inactive)
REMARK    1  A    between atoms: S_1  and  N_4
REMARK    2  A    between atoms: S_1  and  N_22
REMARK    3  A    between atoms: C_5  and  N_10
REMARK    4  A    between atoms: N_10  and  C_13
REMARK    5  A    between atoms: C_13  and  C_14
REMARK    6  A    between atoms: C_15  and  O_20
REMARK    7  A    between atoms: N_22  and  C_24
REMARK    8  A    between atoms: C_27  and  O_30
REMARK    9  A    between atoms: O_30  and  C_32
REMARK                            x       y       z     vdW  Elec       q    Type
REMARK                         _______ _______ _______ _____ _____    ______ ____
ROOT
ATOM      1  S   UNL     1      33.013 -12.951 -23.652  0.00  0.00    +0.113 S 
ATOM      2  O   UNL     1      33.910 -11.824 -23.470  0.00  0.00    -0.138 OA
ATOM      3  O   UNL     1      32.642 -13.378 -24.989  0.00  0.00    -0.138 OA
ENDROOT
BRANCH   1   4
ATOM      4  N   UNL     1      33.671 -14.295 -22.814  0.00  0.00    -0.143 NA
ATOM      5  C   UNL     1      34.305 -16.918 -21.730  0.00  0.00    -0.059 C 
ATOM      6  C   UNL     1      33.574 -15.854 -20.905  0.00  0.00    -0.002 C 
ATOM      7  C   UNL     1      35.175 -16.252 -22.802  0.00  0.00    -0.002 C 
ATOM      8  C   UNL     1      32.767 -14.921 -21.805  0.00  0.00    +0.095 C 
ATOM      9  C   UNL     1      34.345 -15.313 -23.674  0.00  0.00    +0.095 C 
BRANCH   5  10
ATOM     10  N   UNL     1      35.133 -17.747 -20.858  0.00  0.00    +0.388 N 
ATOM     11  H   UNL     1      34.656 -17.874 -19.965  0.00  0.00    -0.084 HD
ATOM     12  H   UNL     1      36.030 -17.281 -20.717  0.00  0.00    -0.084 HD
BRANCH  10  13
ATOM     13  C   UNL     1      35.373 -19.050 -21.460  0.00  0.00    -0.051 C 
BRANCH  13  14
ATOM     14  C   UNL     1      35.044 -20.174 -20.514  0.00  0.00    -0.010 C 
ATOM     15  C   UNL     1      33.721 -20.528 -20.279  0.00  0.00    +0.128 C 
ATOM     16  C   UNL     1      36.084 -20.846 -19.885  0.00  0.00    -0.003 C 
ATOM     17  C   UNL     1      33.434 -21.571 -19.399  0.00  0.00    +0.036 C 
ATOM     18  C   UNL     1      35.796 -21.889 -19.004  0.00  0.00    -0.000 C 
ATOM     19  C   UNL     1      34.472 -22.251 -18.762  0.00  0.00    +0.003 C 
BRANCH  15  20
ATOM     20  O   UNL     1      32.696 -19.873 -20.893  0.00  0.00    -0.506 OA
ATOM     21  H   UNL     1      32.543 -18.966 -20.711  0.00  0.00    +0.292 HD
ENDBRANCH  15  20
ENDBRANCH  13  14
ENDBRANCH  10  13
ENDBRANCH   5  10
ENDBRANCH   1   4
BRANCH   1  22
ATOM     22  N   UNL     1      31.598 -12.649 -22.711  0.00  0.00    -0.205 N 
ATOM     23  H   UNL     1      30.774 -13.175 -22.834  0.00  0.00    +0.175 HD
BRANCH  22  24
ATOM     24  C   UNL     1      31.679 -11.592 -21.737  0.00  0.00    +0.069 C 
ATOM     25  C   UNL     1      31.612 -10.268 -22.155  0.00  0.00    +0.053 C 
ATOM     26  C   UNL     1      31.823 -11.907 -20.392  0.00  0.00    +0.016 C 
ATOM     27  C   UNL     1      31.691  -9.244 -21.211  0.00  0.00    +0.147 C 
ATOM     28  C   UNL     1      31.902 -10.883 -19.450  0.00  0.00    +0.004 C 
ATOM     29  C   UNL     1      31.836  -9.552 -19.858  0.00  0.00    +0.038 C 
BRANCH  27  30
ATOM     30  O   UNL     1      31.628  -7.944 -21.611  0.00  0.00    -0.453 OA
BRANCH  30  32
ATOM     31  F   UNL     1      35.115  -6.305 -25.522  0.00  0.00    -0.204 F 
ATOM     32  C   UNL     1      32.508  -7.531 -22.597  0.00  0.00    +0.145 C 
ATOM     33  C   UNL     1      32.036  -6.748 -23.636  0.00  0.00    +0.040 C 
ATOM     34  C   UNL     1      33.835  -7.911 -22.519  0.00  0.00    +0.040 C 
ATOM     35  C   UNL     1      32.922  -6.331 -24.629  0.00  0.00    +0.033 C 
ATOM     36  C   UNL     1      34.721  -7.496 -23.512  0.00  0.00    +0.033 C 
ATOM     37  C   UNL     1      34.264  -6.705 -24.567  0.00  0.00    +0.140 C 
ENDBRANCH  30  32
ENDBRANCH  27  30
ENDBRANCH  22  24
ENDBRANCH   1  22
TORSDOF 9
ENDMDL
MODEL 2
REMARK VINA RESULT:     -12.2      0.928      1.451
REMARK  Name = 5287728
REMARK  9 active torsions:
REMARK  status: ('A' for Active; 'I' for Inactive)
REMARK    1  A    between atoms: S_1  and  N_4
REMARK    2  A    between atoms: S_1  and  N_22
REMARK    3  A    between atoms: C_5  and  N_10
REMARK    4  A    between atoms: N_10  and  C_13
REMARK    5  A    between atoms: C_13  and  C_14
REMARK    6  A    between atoms: C_15  and  O_20
REMARK    7  A    between atoms: N_22  and  C_24
REMARK    8  A    between atoms: C_27  and  O_30
REMARK    9  A    between atoms: O_30  and  C_32
REMARK                            x       y       z     vdW  Elec       q    Type
REMARK                         _______ _______ _______ _____ _____    ______ ____
ROOT
ATOM      1  S   UNL     1      33.041 -13.322 -23.675  0.00  0.00    +0.113 S 
ATOM      2  O   UNL     1      33.946 -12.205 -23.474  0.00  0.00    -0.138 OA
ATOM      3  O   UNL     1      32.699 -13.748 -25.020  0.00  0.00    -0.138 OA
ENDROOT
BRANCH   1   4
ATOM      4  N   UNL     1      33.664 -14.671 -22.819  0.00  0.00    -0.143 NA
ATOM      5  C   UNL     1      35.321 -16.691 -21.543  0.00  0.00    -0.059 C 
ATOM      6  C   UNL     1      34.574 -16.963 -22.853  0.00  0.00    -0.002 C 
ATOM      7  C   UNL     1      34.598 -15.607 -20.736  0.00  0.00    -0.002 C 
ATOM      8  C   UNL     1      34.385 -15.677 -23.653  0.00  0.00    +0.095 C 
ATOM      9  C   UNL     1      34.407 -14.341 -21.567  0.00  0.00    +0.095 C 
BRANCH   5  10
ATOM     10  N   UNL     1      35.419 -17.919 -20.757  0.00  0.00    +0.388 N 
ATOM     11  H   UNL     1      34.999 -17.764 -19.840  0.00  0.00    -0.084 HD
ATOM     12  H   UNL     1      36.403 -18.168 -20.660  0.00  0.00    -0.084 HD
BRANCH  10  13
ATOM     13  C   UNL     1      34.724 -19.012 -21.421  0.00  0.00    -0.051 C 
BRANCH  13  14
ATOM     14  C   UNL     1      34.497 -20.177 -20.495  0.00  0.00    -0.010 C 
ATOM     15  C   UNL     1      35.576 -20.890 -19.988  0.00  0.00    +0.128 C 
ATOM     16  C   UNL     1      33.194 -20.521 -20.158  0.00  0.00    -0.003 C 
ATOM     17  C   UNL     1      35.348 -21.966 -19.131  0.00  0.00    +0.036 C 
ATOM     18  C   UNL     1      32.966 -21.598 -19.302  0.00  0.00    -0.000 C 
ATOM     19  C   UNL     1      34.043 -22.320 -18.788  0.00  0.00    +0.003 C 
BRANCH  15  20
ATOM     20  O   UNL     1      36.857 -20.558 -20.313  0.00  0.00    -0.506 OA
ATOM     21  H   UNL     1      37.020 -19.890 -20.951  0.00  0.00    +0.292 HD
ENDBRANCH  15  20
ENDBRANCH  13  14
ENDBRANCH  10  13
ENDBRANCH   5  10
ENDBRANCH   1   4
BRANCH   1  22
ATOM     22  N   UNL     1      31.607 -13.002 -22.771  0.00  0.00    -0.205 N 
ATOM     23  H   UNL     1      30.786 -13.532 -22.900  0.00  0.00    +0.175 HD
BRANCH  22  24
ATOM     24  C   UNL     1      31.666 -11.924 -21.819  0.00  0.00    +0.069 C 
ATOM     25  C   UNL     1      31.520 -10.614 -22.256  0.00  0.00    +0.053 C 
ATOM     26  C   UNL     1      31.868 -12.207 -20.474  0.00  0.00    +0.016 C 
ATOM     27  C   UNL     1      31.579  -9.570 -21.333  0.00  0.00    +0.147 C 
ATOM     28  C   UNL     1      31.926 -11.163 -19.551  0.00  0.00    +0.004 C 
ATOM     29  C   UNL     1      31.781  -9.845 -19.981  0.00  0.00    +0.038 C 
BRANCH  27  30
ATOM     30  O   UNL     1      31.439  -8.282 -21.753  0.00  0.00    -0.453 OA
BRANCH  30  32
ATOM     31  F   UNL     1      35.170  -6.327 -25.275  0.00  0.00    -0.204 F 
ATOM     32  C   UNL     1      32.380  -7.789 -22.641  0.00  0.00    +0.145 C 
ATOM     33  C   UNL     1      31.962  -6.990 -23.690  0.00  0.00    +0.040 C 
ATOM     34  C   UNL     1      33.713  -8.107 -22.456  0.00  0.00    +0.040 C 
ATOM     35  C   UNL     1      32.910  -6.493 -24.584  0.00  0.00    +0.033 C 
ATOM     36  C   UNL     1      34.661  -7.612 -23.351  0.00  0.00    +0.033 C 
ATOM     37  C   UNL     1      34.259  -6.804 -24.415  0.00  0.00    +0.140 C 
ENDBRANCH  30  32
ENDBRANCH  27  30
ENDBRANCH  22  24
ENDBRANCH   1  22
TORSDOF 9
ENDMDL
MODEL 3
REMARK VINA RESULT:     -12.1      3.623     11.655
REMARK  Name = 5287728
REMARK  9 active torsions:
REMARK  status: ('A' for Active; 'I' for Inactive)
REMARK    1  A    between atoms: S_1  and  N_4
REMARK    2  A    between atoms: S_1  and  N_22
REMARK    3  A    between atoms: C_5  and  N_10
REMARK    4  A    between atoms: N_10  and  C_13
REMARK    5  A    between atoms: C_13  and  C_14
REMARK    6  A    between atoms: C_15  and  O_20
REMARK    7  A    between atoms: N_22  and  C_24
REMARK    8  A    between atoms: C_27  and  O_30
REMARK    9  A    between atoms: O_30  and  C_32
REMARK                            x       y       z     vdW  Elec       q    Type
REMARK                         _______ _______ _______ _____ _____    ______ ____
ROOT
ATOM      1  S   UNL     1      32.936 -13.909 -23.465  0.00  0.00    +0.113 S 
ATOM      2  O   UNL     1      32.275 -14.419 -22.278  0.00  0.00    -0.138 OA
ATOM      3  O   UNL     1      32.357 -14.138 -24.777  0.00  0.00    -0.138 OA
ENDROOT
BRANCH   1   4
ATOM      4  N   UNL     1      33.169 -12.222 -23.260  0.00  0.00    -0.143 NA
ATOM      5  C   UNL     1      33.093  -9.319 -23.401  0.00  0.00    -0.059 C 
ATOM      6  C   UNL     1      34.250 -10.130 -23.994  0.00  0.00    -0.002 C 
ATOM      7  C   UNL     1      32.438 -10.093 -22.251  0.00  0.00    -0.002 C 
ATOM      8  C   UNL     1      33.782 -11.518 -24.425  0.00  0.00    +0.095 C 
ATOM      9  C   UNL     1      31.998 -11.481 -22.707  0.00  0.00    +0.095 C 
BRANCH   5  10
ATOM     10  N   UNL     1      33.580  -8.027 -22.923  0.00  0.00    +0.388 N 
ATOM     11  H   UNL     1      34.157  -7.598 -23.647  0.00  0.00    -0.084 HD
ATOM     12  H   UNL     1      34.127  -8.177 -22.075  0.00  0.00    -0.084 HD
BRANCH  10  13
ATOM     13  C   UNL     1      32.469  -7.141 -22.611  0.00  0.00    -0.051 C 
BRANCH  13  14
ATOM     14  C   UNL     1      32.254  -6.112 -23.689  0.00  0.00    -0.010 C 
ATOM     15  C   UNL     1      31.224  -5.186 -23.580  0.00  0.00    +0.128 C 
ATOM     16  C   UNL     1      33.102  -6.108 -24.789  0.00  0.00    -0.003 C 
ATOM     17  C   UNL     1      31.039  -4.240 -24.588  0.00  0.00    +0.036 C 
ATOM     18  C   UNL     1      32.916  -5.161 -25.798  0.00  0.00    -0.000 C 
ATOM     19  C   UNL     1      31.886  -4.228 -25.697  0.00  0.00    +0.003 C 
BRANCH  15  20
ATOM     20  O   UNL     1      30.388  -5.185 -22.504  0.00  0.00    -0.506 OA
ATOM     21  H   UNL     1      29.893  -5.952 -22.294  0.00  0.00    +0.292 HD
ENDBRANCH  15  20
ENDBRANCH  13  14
ENDBRANCH  10  13
ENDBRANCH   5  10
ENDBRANCH   1   4
BRANCH   1  22
ATOM     22  N   UNL     1      34.569 -14.465 -23.434  0.00  0.00    -0.205 N 
ATOM     23  H   UNL     1      35.325 -13.841 -23.333  0.00  0.00    +0.175 HD
BRANCH  22  24
ATOM     24  C   UNL     1      34.775 -15.884 -23.562  0.00  0.00    +0.069 C 
ATOM     25  C   UNL     1      35.342 -16.592 -22.509  0.00  0.00    +0.053 C 
ATOM     26  C   UNL     1      34.405 -16.528 -24.736  0.00  0.00    +0.016 C 
ATOM     27  C   UNL     1      35.542 -17.967 -22.635  0.00  0.00    +0.147 C 
ATOM     28  C   UNL     1      34.605 -17.902 -24.860  0.00  0.00    +0.004 C 
ATOM     29  C   UNL     1      35.173 -18.622 -23.810  0.00  0.00    +0.038 C 
BRANCH  27  30
ATOM     30  O   UNL     1      36.098 -18.670 -21.610  0.00  0.00    -0.453 OA
BRANCH  30  32
ATOM     31  F   UNL     1      32.897 -22.227 -18.918  0.00  0.00    -0.204 F 
ATOM     32  C   UNL     1      35.291 -19.567 -20.931  0.00  0.00    +0.145 C 
ATOM     33  C   UNL     1      33.919 -19.389 -20.953  0.00  0.00    +0.040 C 
ATOM     34  C   UNL     1      35.876 -20.618 -20.249  0.00  0.00    +0.040 C 
ATOM     35  C   UNL     1      33.106 -20.293 -20.269  0.00  0.00    +0.033 C 
ATOM     36  C   UNL     1      35.064 -21.521 -19.564  0.00  0.00    +0.033 C 
ATOM     37  C   UNL     1      33.678 -21.358 -19.575  0.00  0.00    +0.140 C 
ENDBRANCH  30  32
ENDBRANCH  27  30
ENDBRANCH  22  24
ENDBRANCH   1  22
TORSDOF 9
ENDMDL
MODEL 4
REMARK VINA RESULT:     -12.0      3.555     11.221
REMARK  Name = 5287728
REMARK  9 active torsions:
REMARK  status: ('A' for Active; 'I' for Inactive)
REMARK    1  A    between atoms: S_1  and  N_4
REMARK    2  A    between atoms: S_1  and  N_22
REMARK    3  A    between atoms: C_5  and  N_10
REMARK    4  A    between atoms: N_10  and  C_13
REMARK    5  A    between atoms: C_13  and  C_14
REMARK    6  A    between atoms: C_15  and  O_20
REMARK    7  A    between atoms: N_22  and  C_24
REMARK    8  A    between atoms: C_27  and  O_30
REMARK    9  A    between atoms: O_30  and  C_32
REMARK                            x       y       z     vdW  Elec       q    Type
REMARK                         _______ _______ _______ _____ _____    ______ ____
ROOT
ATOM      1  S   UNL     1      33.372 -14.492 -21.587  0.00  0.00    +0.113 S 
ATOM      2  O   UNL     1      34.327 -14.529 -20.495  0.00  0.00    -0.138 OA
ATOM      3  O   UNL     1      32.190 -15.335 -21.550  0.00  0.00    -0.138 OA
ENDROOT
BRANCH   1   4
ATOM      4  N   UNL     1      32.874 -12.865 -21.804  0.00  0.00    -0.143 NA
ATOM      5  C   UNL     1      31.499 -10.395 -22.484  0.00  0.00    -0.059 C 
ATOM      6  C   UNL     1      32.746 -10.864 -23.241  0.00  0.00    -0.002 C 
ATOM      7  C   UNL     1      31.503 -10.955 -21.057  0.00  0.00    -0.002 C 
ATOM      8  C   UNL     1      32.860 -12.387 -23.218  0.00  0.00    +0.095 C 
ATOM      9  C   UNL     1      31.637 -12.475 -21.066  0.00  0.00    +0.095 C 
BRANCH   5  10
ATOM     10  N   UNL     1      31.454  -8.935 -22.450  0.00  0.00    +0.388 N 
ATOM     11  H   UNL     1      30.890  -8.636 -21.654  0.00  0.00    -0.084 HD
ATOM     12  H   UNL     1      31.043  -8.600 -23.322  0.00  0.00    -0.084 HD
BRANCH  10  13
ATOM     13  C   UNL     1      32.793  -8.381 -22.321  0.00  0.00    -0.051 C 
BRANCH  13  14
ATOM     14  C   UNL     1      33.111  -7.418 -23.434  0.00  0.00    -0.010 C 
ATOM     15  C   UNL     1      32.204  -6.426 -23.783  0.00  0.00    +0.128 C 
ATOM     16  C   UNL     1      34.323  -7.542 -24.101  0.00  0.00    -0.003 C 
ATOM     17  C   UNL     1      32.514  -5.542 -24.816  0.00  0.00    +0.036 C 
ATOM     18  C   UNL     1      34.632  -6.659 -25.136  0.00  0.00    -0.000 C 
ATOM     19  C   UNL     1      33.728  -5.659 -25.493  0.00  0.00    +0.003 C 
BRANCH  15  20
ATOM     20  O   UNL     1      31.013  -6.298 -23.132  0.00  0.00    -0.506 OA
ATOM     21  H   UNL     1      30.845  -5.540 -22.608  0.00  0.00    +0.292 HD
ENDBRANCH  15  20
ENDBRANCH  13  14
ENDBRANCH  10  13
ENDBRANCH   5  10
ENDBRANCH   1   4
BRANCH   1  22
ATOM     22  N   UNL     1      34.244 -14.758 -23.053  0.00  0.00    -0.205 N 
ATOM     23  H   UNL     1      34.501 -14.014 -23.643  0.00  0.00    +0.175 HD
BRANCH  22  24
ATOM     24  C   UNL     1      34.577 -16.123 -23.371  0.00  0.00    +0.069 C 
ATOM     25  C   UNL     1      35.182 -16.923 -22.410  0.00  0.00    +0.053 C 
ATOM     26  C   UNL     1      34.290 -16.621 -24.636  0.00  0.00    +0.016 C 
ATOM     27  C   UNL     1      35.505 -18.245 -22.720  0.00  0.00    +0.147 C 
ATOM     28  C   UNL     1      34.614 -17.942 -24.945  0.00  0.00    +0.004 C 
ATOM     29  C   UNL     1      35.220 -18.754 -23.987  0.00  0.00    +0.038 C 
BRANCH  27  30
ATOM     30  O   UNL     1      36.099 -19.036 -21.786  0.00  0.00    -0.453 OA
BRANCH  30  32
ATOM     31  F   UNL     1      32.854 -22.180 -18.667  0.00  0.00    -0.204 F 
ATOM     32  C   UNL     1      35.280 -19.830 -20.999  0.00  0.00    +0.145 C 
ATOM     33  C   UNL     1      33.914 -19.611 -21.015  0.00  0.00    +0.040 C 
ATOM     34  C   UNL     1      35.849 -20.819 -20.219  0.00  0.00    +0.040 C 
ATOM     35  C   UNL     1      33.090 -20.410 -20.223  0.00  0.00    +0.033 C 
ATOM     36  C   UNL     1      35.026 -21.617 -19.426  0.00  0.00    +0.033 C 
ATOM     37  C   UNL     1      33.646 -21.413 -19.428  0.00  0.00    +0.140 C 
ENDBRANCH  30  32
ENDBRANCH  27  30
ENDBRANCH  22  24
ENDBRANCH   1  22
TORSDOF 9
ENDMDL
MODEL 5
REMARK VINA RESULT:     -12.0      6.007     12.929
REMARK  Name = 5287728
REMARK  9 active torsions:
REMARK  status: ('A' for Active; 'I' for Inactive)
REMARK    1  A    between atoms: S_1  and  N_4
REMARK    2  A    between atoms: S_1  and  N_22
REMARK    3  A    between atoms: C_5  and  N_10
REMARK    4  A    between atoms: N_10  and  C_13
REMARK    5  A    between atoms: C_13  and  C_14
REMARK    6  A    between atoms: C_15  and  O_20
REMARK    7  A    between atoms: N_22  and  C_24
REMARK    8  A    between atoms: C_27  and  O_30
REMARK    9  A    between atoms: O_30  and  C_32
REMARK                            x       y       z     vdW  Elec       q    Type
REMARK                         _______ _______ _______ _____ _____    ______ ____
ROOT
ATOM      1  S   UNL     1      33.789 -22.714 -18.238  0.00  0.00    +0.113 S 
ATOM      2  O   UNL     1      32.569 -22.378 -17.528  0.00  0.00    -0.138 OA
ATOM      3  O   UNL     1      33.885 -23.964 -18.970  0.00  0.00    -0.138 OA
ENDROOT
BRANCH   1   4
ATOM      4  N   UNL     1      34.153 -21.425 -19.309  0.00  0.00    -0.143 NA
ATOM      5  C   UNL     1      34.712 -19.725 -21.601  0.00  0.00    -0.059 C 
ATOM      6  C   UNL     1      35.817 -20.190 -20.647  0.00  0.00    -0.002 C 
ATOM      7  C   UNL     1      33.364 -19.687 -20.873  0.00  0.00    -0.002 C 
ATOM      8  C   UNL     1      35.464 -21.533 -20.013  0.00  0.00    +0.095 C 
ATOM      9  C   UNL     1      33.048 -21.037 -20.235  0.00  0.00    +0.095 C 
BRANCH   5  10
ATOM     10  N   UNL     1      35.032 -18.402 -22.133  0.00  0.00    +0.388 N 
ATOM     11  H   UNL     1      34.376 -18.174 -22.880  0.00  0.00    -0.084 HD
ATOM     12  H   UNL     1      35.987 -18.415 -22.490  0.00  0.00    -0.084 HD
BRANCH  10  13
ATOM     13  C   UNL     1      34.938 -17.392 -21.090  0.00  0.00    -0.051 C 
BRANCH  13  14
ATOM     14  C   UNL     1      34.248 -16.146 -21.578  0.00  0.00    -0.010 C 
ATOM     15  C   UNL     1      34.659 -15.531 -22.754  0.00  0.00    +0.128 C 
ATOM     16  C   UNL     1      33.198 -15.626 -20.832  0.00  0.00    -0.003 C 
ATOM     17  C   UNL     1      34.009 -14.378 -23.192  0.00  0.00    +0.036 C 
ATOM     18  C   UNL     1      32.548 -14.471 -21.270  0.00  0.00    -0.000 C 
ATOM     19  C   UNL     1      32.953 -13.848 -22.449  0.00  0.00    +0.003 C 
BRANCH  15  20
ATOM     20  O   UNL     1      35.688 -16.037 -23.491  0.00  0.00    -0.506 OA
ATOM     21  H   UNL     1      36.132 -16.811 -23.206  0.00  0.00    +0.292 HD
ENDBRANCH  15  20
ENDBRANCH  13  14
ENDBRANCH  10  13
ENDBRANCH   5  10
ENDBRANCH   1   4
BRANCH   1  22
ATOM     22  N   UNL     1      35.098 -22.580 -17.120  0.00  0.00    -0.205 N 
ATOM     23  H   UNL     1      35.912 -22.071 -17.338  0.00  0.00    +0.175 HD
BRANCH  22  24
ATOM     24  C   UNL     1      34.942 -23.248 -15.854  0.00  0.00    +0.069 C 
ATOM     25  C   UNL     1      33.712 -23.212 -15.207  0.00  0.00    +0.053 C 
ATOM     26  C   UNL     1      36.021 -23.919 -15.295  0.00  0.00    +0.016 C 
ATOM     27  C   UNL     1      33.563 -23.859 -13.980  0.00  0.00    +0.147 C 
ATOM     28  C   UNL     1      35.870 -24.565 -14.069  0.00  0.00    +0.004 C 
ATOM     29  C   UNL     1      34.641 -24.535 -13.411  0.00  0.00    +0.038 C 
BRANCH  27  30
ATOM     30  O   UNL     1      32.363 -23.828 -13.338  0.00  0.00    -0.453 OA
BRANCH  30  32
ATOM     31  F   UNL     1      27.818 -24.176 -16.398  0.00  0.00    -0.204 F 
ATOM     32  C   UNL     1      31.216 -23.915 -14.110  0.00  0.00    +0.145 C 
ATOM     33  C   UNL     1      30.619 -22.753 -14.564  0.00  0.00    +0.040 C 
ATOM     34  C   UNL     1      30.699 -25.163 -14.408  0.00  0.00    +0.040 C 
ATOM     35  C   UNL     1      29.465 -22.842 -15.341  0.00  0.00    +0.033 C 
ATOM     36  C   UNL     1      29.544 -25.252 -15.184  0.00  0.00    +0.033 C 
ATOM     37  C   UNL     1      28.927 -24.091 -15.651  0.00  0.00    +0.140 C 
ENDBRANCH  30  32
ENDBRANCH  27  30
ENDBRANCH  22  24
ENDBRANCH   1  22
TORSDOF 9
ENDMDL
MODEL 6
REMARK VINA RESULT:     -11.9      4.348     11.943
REMARK  Name = 5287728
REMARK  9 active torsions:
REMARK  status: ('A' for Active; 'I' for Inactive)
REMARK    1  A    between atoms: S_1  and  N_4
REMARK    2  A    between atoms: S_1  and  N_22
REMARK    3  A    between atoms: C_5  and  N_10
REMARK    4  A    between atoms: N_10  and  C_13
REMARK    5  A    between atoms: C_13  and  C_14
REMARK    6  A    between atoms: C_15  and  O_20
REMARK    7  A    between atoms: N_22  and  C_24
REMARK    8  A    between atoms: C_27  and  O_30
REMARK    9  A    between atoms: O_30  and  C_32
REMARK                            x       y       z     vdW  Elec       q    Type
REMARK                         _______ _______ _______ _____ _____    ______ ____
ROOT
ATOM      1  S   UNL     1      34.926 -17.301 -21.543  0.00  0.00    +0.113 S 
ATOM      2  O   UNL     1      35.669 -17.467 -22.779  0.00  0.00    -0.138 OA
ATOM      3  O   UNL     1      35.632 -17.169 -20.281  0.00  0.00    -0.138 OA
ENDROOT
BRANCH   1   4
ATOM      4  N   UNL     1      33.882 -15.953 -21.727  0.00  0.00    -0.143 NA
ATOM      5  C   UNL     1      32.696 -13.318 -22.054  0.00  0.00    -0.059 C 
ATOM      6  C   UNL     1      32.674 -14.057 -20.712  0.00  0.00    -0.002 C 
ATOM      7  C   UNL     1      32.775 -14.322 -23.210  0.00  0.00    -0.002 C 
ATOM      8  C   UNL     1      33.872 -14.995 -20.583  0.00  0.00    +0.095 C 
ATOM      9  C   UNL     1      33.970 -15.256 -23.044  0.00  0.00    +0.095 C 
BRANCH   5  10
ATOM     10  N   UNL     1      31.501 -12.490 -22.190  0.00  0.00    +0.388 N 
ATOM     11  H   UNL     1      30.689 -13.093 -22.327  0.00  0.00    -0.084 HD
ATOM     12  H   UNL     1      31.621 -11.869 -22.990  0.00  0.00    -0.084 HD
BRANCH  10  13
ATOM     13  C   UNL     1      31.297 -11.680 -20.997  0.00  0.00    -0.051 C 
BRANCH  13  14
ATOM     14  C   UNL     1      31.638 -10.234 -21.237  0.00  0.00    -0.010 C 
ATOM     15  C   UNL     1      32.069  -9.431 -20.189  0.00  0.00    +0.128 C 
ATOM     16  C   UNL     1      31.512  -9.721 -22.522  0.00  0.00    -0.003 C 
ATOM     17  C   UNL     1      32.380  -8.094 -20.428  0.00  0.00    +0.036 C 
ATOM     18  C   UNL     1      31.823  -8.382 -22.761  0.00  0.00    -0.000 C 
ATOM     19  C   UNL     1      32.257  -7.569 -21.715  0.00  0.00    +0.003 C 
BRANCH  15  20
ATOM     20  O   UNL     1      32.194  -9.928 -18.926  0.00  0.00    -0.506 OA
ATOM     21  H   UNL     1      32.966  -9.748 -18.426  0.00  0.00    +0.292 HD
ENDBRANCH  15  20
ENDBRANCH  13  14
ENDBRANCH  10  13
ENDBRANCH   5  10
ENDBRANCH   1   4
BRANCH   1  22
ATOM     22  N   UNL     1      33.777 -18.586 -21.447  0.00  0.00    -0.205 N 
ATOM     23  H   UNL     1      32.881 -18.508 -21.848  0.00  0.00    +0.175 HD
BRANCH  22  24
ATOM     24  C   UNL     1      34.192 -19.777 -20.752  0.00  0.00    +0.069 C 
ATOM     25  C   UNL     1      33.235 -20.597 -20.167  0.00  0.00    +0.053 C 
ATOM     26  C   UNL     1      35.542 -20.092 -20.675  0.00  0.00    +0.016 C 
ATOM     27  C   UNL     1      33.637 -21.750 -19.493  0.00  0.00    +0.147 C 
ATOM     28  C   UNL     1      35.943 -21.245 -20.001  0.00  0.00    +0.004 C 
ATOM     29  C   UNL     1      34.991 -22.074 -19.411  0.00  0.00    +0.038 C 
BRANCH  27  30
ATOM     30  O   UNL     1      32.707 -22.559 -18.915  0.00  0.00    -0.453 OA
BRANCH  30  32
ATOM     31  F   UNL     1      33.245 -23.651 -13.561  0.00  0.00    -0.204 F 
ATOM     32  C   UNL     1      32.843 -22.834 -17.564  0.00  0.00    +0.145 C 
ATOM     33  C   UNL     1      34.104 -23.077 -17.050  0.00  0.00    +0.040 C 
ATOM     34  C   UNL     1      31.714 -22.859 -16.766  0.00  0.00    +0.040 C 
ATOM     35  C   UNL     1      34.240 -23.354 -15.690  0.00  0.00    +0.033 C 
ATOM     36  C   UNL     1      31.850 -23.138 -15.406  0.00  0.00    +0.033 C 
ATOM     37  C   UNL     1      33.113 -23.385 -14.868  0.00  0.00    +0.140 C 
ENDBRANCH  30  32
ENDBRANCH  27  30
ENDBRANCH  22  24
ENDBRANCH   1  22
TORSDOF 9
ENDMDL
MODEL 7
REMARK VINA RESULT:     -11.8      5.959     13.049
REMARK  Name = 5287728
REMARK  9 active torsions:
REMARK  status: ('A' for Active; 'I' for Inactive)
REMARK    1  A    between atoms: S_1  and  N_4
REMARK    2  A    between atoms: S_1  and  N_22
REMARK    3  A    between atoms: C_5  and  N_10
REMARK    4  A    between atoms: N_10  and  C_13
REMARK    5  A    between atoms: C_13  and  C_14
REMARK    6  A    between atoms: C_15  and  O_20
REMARK    7  A    between atoms: N_22  and  C_24
REMARK    8  A    between atoms: C_27  and  O_30
REMARK    9  A    between atoms: O_30  and  C_32
REMARK                            x       y       z     vdW  Elec       q    Type
REMARK                         _______ _______ _______ _____ _____    ______ ____
ROOT
ATOM      1  S   UNL     1      34.013 -22.780 -18.291  0.00  0.00    +0.113 S 
ATOM      2  O   UNL     1      33.844 -23.977 -19.096  0.00  0.00    -0.138 OA
ATOM      3  O   UNL     1      35.053 -22.724 -17.279  0.00  0.00    -0.138 OA
ENDROOT
BRANCH   1   4
ATOM      4  N   UNL     1      34.214 -21.449 -19.353  0.00  0.00    -0.143 NA
ATOM      5  C   UNL     1      34.517 -19.673 -21.635  0.00  0.00    -0.059 C 
ATOM      6  C   UNL     1      35.702 -20.056 -20.743  0.00  0.00    -0.002 C 
ATOM      7  C   UNL     1      33.207 -19.761 -20.844  0.00  0.00    -0.002 C 
ATOM      8  C   UNL     1      35.495 -21.434 -20.119  0.00  0.00    +0.095 C 
ATOM      9  C   UNL     1      33.038 -21.143 -20.219  0.00  0.00    +0.095 C 
BRANCH   5  10
ATOM     10  N   UNL     1      34.698 -18.320 -22.155  0.00  0.00    +0.388 N 
ATOM     11  H   UNL     1      33.933 -18.101 -22.794  0.00  0.00    -0.084 HD
ATOM     12  H   UNL     1      35.593 -18.273 -22.643  0.00  0.00    -0.084 HD
BRANCH  10  13
ATOM     13  C   UNL     1      34.707 -17.348 -21.071  0.00  0.00    -0.051 C 
BRANCH  13  14
ATOM     14  C   UNL     1      34.126 -16.027 -21.499  0.00  0.00    -0.010 C 
ATOM     15  C   UNL     1      34.585 -15.397 -22.649  0.00  0.00    +0.128 C 
ATOM     16  C   UNL     1      33.126 -15.453 -20.724  0.00  0.00    -0.003 C 
ATOM     17  C   UNL     1      34.036 -14.174 -23.030  0.00  0.00    +0.036 C 
ATOM     18  C   UNL     1      32.577 -14.228 -21.106  0.00  0.00    -0.000 C 
ATOM     19  C   UNL     1      33.032 -13.590 -22.258  0.00  0.00    +0.003 C 
BRANCH  15  20
ATOM     20  O   UNL     1      35.566 -15.955 -23.414  0.00  0.00    -0.506 OA
ATOM     21  H   UNL     1      36.049 -16.691 -23.093  0.00  0.00    +0.292 HD
ENDBRANCH  15  20
ENDBRANCH  13  14
ENDBRANCH  10  13
ENDBRANCH   5  10
ENDBRANCH   1   4
BRANCH   1  22
ATOM     22  N   UNL     1      32.483 -22.402 -17.589  0.00  0.00    -0.205 N 
ATOM     23  H   UNL     1      31.891 -21.718 -17.979  0.00  0.00    +0.175 HD
BRANCH  22  24
ATOM     24  C   UNL     1      32.112 -23.133 -16.405  0.00  0.00    +0.069 C 
ATOM     25  C   UNL     1      33.036 -23.291 -15.379  0.00  0.00    +0.053 C 
ATOM     26  C   UNL     1      30.836 -23.673 -16.303  0.00  0.00    +0.016 C 
ATOM     27  C   UNL     1      32.676 -24.001 -14.233  0.00  0.00    +0.147 C 
ATOM     28  C   UNL     1      30.478 -24.382 -15.157  0.00  0.00    +0.004 C 
ATOM     29  C   UNL     1      31.397 -24.545 -14.123  0.00  0.00    +0.038 C 
BRANCH  27  30
ATOM     30  O   UNL     1      33.575 -24.162 -13.224  0.00  0.00    -0.453 OA
BRANCH  30  32
ATOM     31  F   UNL     1      38.879 -24.603 -14.572  0.00  0.00    -0.204 F 
ATOM     32  C   UNL     1      34.913 -24.273 -13.564  0.00  0.00    +0.145 C 
ATOM     33  C   UNL     1      35.279 -25.125 -14.591  0.00  0.00    +0.040 C 
ATOM     34  C   UNL     1      35.849 -23.530 -12.868  0.00  0.00    +0.040 C 
ATOM     35  C   UNL     1      36.626 -25.236 -14.934  0.00  0.00    +0.033 C 
ATOM     36  C   UNL     1      37.196 -23.642 -13.210  0.00  0.00    +0.033 C 
ATOM     37  C   UNL     1      37.585 -24.496 -14.243  0.00  0.00    +0.140 C 
ENDBRANCH  30  32
ENDBRANCH  27  30
ENDBRANCH  22  24
ENDBRANCH   1  22
TORSDOF 9
ENDMDL
MODEL 8
REMARK VINA RESULT:     -11.7      3.631     11.637
REMARK  Name = 5287728
REMARK  9 active torsions:
REMARK  status: ('A' for Active; 'I' for Inactive)
REMARK    1  A    between atoms: S_1  and  N_4
REMARK    2  A    between atoms: S_1  and  N_22
REMARK    3  A    between atoms: C_5  and  N_10
REMARK    4  A    between atoms: N_10  and  C_13
REMARK    5  A    between atoms: C_13  and  C_14
REMARK    6  A    between atoms: C_15  and  O_20
REMARK    7  A    between atoms: N_22  and  C_24
REMARK    8  A    between atoms: C_27  and  O_30
REMARK    9  A    between atoms: O_30  and  C_32
REMARK                            x       y       z     vdW  Elec       q    Type
REMARK                         _______ _______ _______ _____ _____    ______ ____
ROOT
ATOM      1  S   UNL     1      33.233 -14.287 -22.272  0.00  0.00    +0.113 S 
ATOM      2  O   UNL     1      34.422 -14.150 -21.450  0.00  0.00    -0.138 OA
ATOM      3  O   UNL     1      32.108 -15.073 -21.799  0.00  0.00    -0.138 OA
ENDROOT
BRANCH   1   4
ATOM      4  N   UNL     1      32.674 -12.714 -22.663  0.00  0.00    -0.143 NA
ATOM      5  C   UNL     1      32.165  -9.857 -22.843  0.00  0.00    -0.059 C 
ATOM      6  C   UNL     1      31.177 -10.816 -22.170  0.00  0.00    -0.002 C 
ATOM      7  C   UNL     1      32.992 -10.601 -23.897  0.00  0.00    -0.002 C 
ATOM      8  C   UNL     1      31.902 -12.027 -21.586  0.00  0.00    +0.095 C 
ATOM      9  C   UNL     1      33.688 -11.816 -23.289  0.00  0.00    +0.095 C 
BRANCH   5  10
ATOM     10  N   UNL     1      31.442  -8.749 -23.463  0.00  0.00    +0.388 N 
ATOM     11  H   UNL     1      30.451  -8.984 -23.517  0.00  0.00    -0.084 HD
ATOM     12  H   UNL     1      31.822  -8.592 -24.397  0.00  0.00    -0.084 HD
BRANCH  10  13
ATOM     13  C   UNL     1      31.601  -7.530 -22.684  0.00  0.00    -0.051 C 
BRANCH  13  14
ATOM     14  C   UNL     1      31.756  -6.319 -23.564  0.00  0.00    -0.010 C 
ATOM     15  C   UNL     1      31.028  -5.165 -23.305  0.00  0.00    +0.128 C 
ATOM     16  C   UNL     1      32.638  -6.378 -24.636  0.00  0.00    -0.003 C 
ATOM     17  C   UNL     1      31.184  -4.052 -24.130  0.00  0.00    +0.036 C 
ATOM     18  C   UNL     1      32.793  -5.265 -25.462  0.00  0.00    -0.000 C 
ATOM     19  C   UNL     1      32.067  -4.103 -25.209  0.00  0.00    +0.003 C 
BRANCH  15  20
ATOM     20  O   UNL     1      30.161  -5.099 -22.255  0.00  0.00    -0.506 OA
ATOM     21  H   UNL     1      29.244  -4.986 -22.411  0.00  0.00    +0.292 HD
ENDBRANCH  15  20
ENDBRANCH  13  14
ENDBRANCH  10  13
ENDBRANCH   5  10
ENDBRANCH   1   4
BRANCH   1  22
ATOM     22  N   UNL     1      33.734 -14.845 -23.826  0.00  0.00    -0.205 N 
ATOM     23  H   UNL     1      33.684 -14.269 -24.623  0.00  0.00    +0.175 HD
BRANCH  22  24
ATOM     24  C   UNL     1      34.229 -16.196 -23.903  0.00  0.00    +0.069 C 
ATOM     25  C   UNL     1      34.834 -16.769 -22.792  0.00  0.00    +0.053 C 
ATOM     26  C   UNL     1      34.094 -16.909 -25.088  0.00  0.00    +0.016 C 
ATOM     27  C   UNL     1      35.314 -18.076 -22.868  0.00  0.00    +0.147 C 
ATOM     28  C   UNL     1      34.574 -18.216 -25.163  0.00  0.00    +0.004 C 
ATOM     29  C   UNL     1      35.183 -18.800 -24.053  0.00  0.00    +0.038 C 
BRANCH  27  30
ATOM     30  O   UNL     1      35.910 -18.646 -21.785  0.00  0.00    -0.453 OA
BRANCH  30  32
ATOM     31  F   UNL     1      32.970 -22.228 -18.841  0.00  0.00    -0.204 F 
ATOM     32  C   UNL     1      35.169 -19.549 -21.042  0.00  0.00    +0.145 C 
ATOM     33  C   UNL     1      35.823 -20.563 -20.365  0.00  0.00    +0.040 C 
ATOM     34  C   UNL     1      33.793 -19.415 -20.996  0.00  0.00    +0.040 C 
ATOM     35  C   UNL     1      35.076 -21.473 -19.618  0.00  0.00    +0.033 C 
ATOM     36  C   UNL     1      33.046 -20.325 -20.249  0.00  0.00    +0.033 C 
ATOM     37  C   UNL     1      33.688 -21.354 -19.560  0.00  0.00    +0.140 C 
ENDBRANCH  30  32
ENDBRANCH  27  30
ENDBRANCH  22  24
ENDBRANCH   1  22
TORSDOF 9
ENDMDL
MODEL 9
REMARK VINA RESULT:     -11.7      4.449     12.024
REMARK  Name = 5287728
REMARK  9 active torsions:
REMARK  status: ('A' for Active; 'I' for Inactive)
REMARK    1  A    between atoms: S_1  and  N_4
REMARK    2  A    between atoms: S_1  and  N_22
REMARK    3  A    between atoms: C_5  and  N_10
REMARK    4  A    between atoms: N_10  and  C_13
REMARK    5  A    between atoms: C_13  and  C_14
REMARK    6  A    between atoms: C_15  and  O_20
REMARK    7  A    between atoms: N_22  and  C_24
REMARK    8  A    between atoms: C_27  and  O_30
REMARK    9  A    between atoms: O_30  and  C_32
REMARK                            x       y       z     vdW  Elec       q    Type
REMARK                         _______ _______ _______ _____ _____    ______ ____
ROOT
ATOM      1  S   UNL     1      34.854 -18.312 -22.437  0.00  0.00    +0.113 S 
ATOM      2  O   UNL     1      34.407 -19.138 -23.544  0.00  0.00    -0.138 OA
ATOM      3  O   UNL     1      36.267 -18.222 -22.119  0.00  0.00    -0.138 OA
ENDROOT
BRANCH   1   4
ATOM      4  N   UNL     1      34.248 -16.726 -22.679  0.00  0.00    -0.143 NA
ATOM      5  C   UNL     1      33.814 -13.854 -22.811  0.00  0.00    -0.059 C 
ATOM      6  C   UNL     1      33.107 -14.734 -21.775  0.00  0.00    -0.002 C 
ATOM      7  C   UNL     1      34.171 -14.678 -24.053  0.00  0.00    -0.002 C 
ATOM      8  C   UNL     1      33.949 -15.961 -21.433  0.00  0.00    +0.095 C 
ATOM      9  C   UNL     1      34.996 -15.905 -23.677  0.00  0.00    +0.095 C 
BRANCH   5  10
ATOM     10  N   UNL     1      32.957 -12.731 -23.183  0.00  0.00    +0.388 N 
ATOM     11  H   UNL     1      32.785 -12.154 -22.359  0.00  0.00    -0.084 HD
ATOM     12  H   UNL     1      32.078 -13.097 -23.550  0.00  0.00    -0.084 HD
BRANCH  10  13
ATOM     13  C   UNL     1      33.590 -11.918 -24.211  0.00  0.00    -0.051 C 
BRANCH  13  14
ATOM     14  C   UNL     1      33.674 -10.470 -23.807  0.00  0.00    -0.010 C 
ATOM     15  C   UNL     1      34.719  -9.676 -24.259  0.00  0.00    +0.128 C 
ATOM     16  C   UNL     1      32.689  -9.948 -22.978  0.00  0.00    -0.003 C 
ATOM     17  C   UNL     1      34.782  -8.336 -23.876  0.00  0.00    +0.036 C 
ATOM     18  C   UNL     1      32.753  -8.608 -22.593  0.00  0.00    -0.000 C 
ATOM     19  C   UNL     1      33.798  -7.803 -23.042  0.00  0.00    +0.003 C 
BRANCH  15  20
ATOM     20  O   UNL     1      35.688 -10.181 -25.074  0.00  0.00    -0.506 OA
ATOM     21  H   UNL     1      35.665 -10.006 -25.994  0.00  0.00    +0.292 HD
ENDBRANCH  15  20
ENDBRANCH  13  14
ENDBRANCH  10  13
ENDBRANCH   5  10
ENDBRANCH   1   4
BRANCH   1  22
ATOM     22  N   UNL     1      33.961 -18.785 -21.038  0.00  0.00    -0.205 N 
ATOM     23  H   UNL     1      33.207 -18.249 -20.700  0.00  0.00    +0.175 HD
BRANCH  22  24
ATOM     24  C   UNL     1      34.371 -20.003 -20.387  0.00  0.00    +0.069 C 
ATOM     25  C   UNL     1      33.408 -20.875 -19.894  0.00  0.00    +0.053 C 
ATOM     26  C   UNL     1      35.724 -20.290 -20.259  0.00  0.00    +0.016 C 
ATOM     27  C   UNL     1      33.806 -22.053 -19.262  0.00  0.00    +0.147 C 
ATOM     28  C   UNL     1      36.121 -21.469 -19.628  0.00  0.00    +0.004 C 
ATOM     29  C   UNL     1      35.162 -22.350 -19.130  0.00  0.00    +0.038 C 
BRANCH  27  30
ATOM     30  O   UNL     1      32.870 -22.913 -18.774  0.00  0.00    -0.453 OA
BRANCH  30  32
ATOM     31  F   UNL     1      32.357 -23.301 -13.322  0.00  0.00    -0.204 F 
ATOM     32  C   UNL     1      32.740 -23.011 -17.399  0.00  0.00    +0.145 C 
ATOM     33  C   UNL     1      31.500 -22.804 -16.822  0.00  0.00    +0.040 C 
ATOM     34  C   UNL     1      33.854 -23.313 -16.638  0.00  0.00    +0.040 C 
ATOM     35  C   UNL     1      31.370 -22.904 -15.438  0.00  0.00    +0.033 C 
ATOM     36  C   UNL     1      33.725 -23.411 -15.252  0.00  0.00    +0.033 C 
ATOM     37  C   UNL     1      32.482 -23.206 -14.653  0.00  0.00    +0.140 C 
ENDBRANCH  30  32
ENDBRANCH  27  30
ENDBRANCH  22  24
ENDBRANCH   1  22
TORSDOF 9
ENDMDL
