MODEL 1
REMARK VINA RESULT:      -8.2      0.000      0.000
REMARK  Name = 33624
REMARK  7 active torsions:
REMARK  status: ('A' for Active; 'I' for Inactive)
REMARK    1  A    between atoms: O_1  and  C_12
REMARK    2  A    between atoms: O_1  and  C_13
REMARK    3  A    between atoms: C_13  and  C_14
REMARK    4  A    between atoms: C_14  and  O_15
REMARK    5  A    between atoms: C_14  and  C_17
REMARK    6  A    between atoms: C_17  and  N_18
REMARK    7  A    between atoms: N_18  and  C_21
REMARK                            x       y       z     vdW  Elec       q    Type
REMARK                         _______ _______ _______ _____ _____    ______ ____
ROOT
ATOM      1  O   UNL     1      32.208 -14.720 -21.754  0.00  0.00    -0.455 OA
ENDROOT
BRANCH   1  12
ATOM      2  S   UNL     1      32.087 -11.059 -22.107  0.00  0.00    +0.121 S 
ATOM      3  O   UNL     1      33.960 -15.742 -26.279  0.00  0.00    -0.350 OA
ATOM      4  N   UNL     1      33.248 -13.825 -24.347  0.00  0.00    -0.284 N 
ATOM      5  N   UNL     1      32.742 -11.621 -23.546  0.00  0.00    -0.172 NA
ATOM      6  N   UNL     1      31.849 -12.509 -21.297  0.00  0.00    -0.153 NA
ATOM      7  C   UNL     1      34.224 -14.873 -24.025  0.00  0.00    +0.124 C 
ATOM      8  C   UNL     1      33.152 -13.515 -25.780  0.00  0.00    +0.124 C 
ATOM      9  C   UNL     1      33.959 -16.097 -24.895  0.00  0.00    +0.164 C 
ATOM     10  C   UNL     1      32.923 -14.802 -26.562  0.00  0.00    +0.164 C 
ATOM     11  C   UNL     1      32.777 -12.947 -23.395  0.00  0.00    +0.195 A 
ATOM     12  C   UNL     1      32.283 -13.414 -22.158  0.00  0.00    +0.266 A 
ENDBRANCH   1  12
BRANCH   1  13
ATOM     13  C   UNL     1      32.873 -15.052 -20.537  0.00  0.00    +0.234 C 
BRANCH  13  14
ATOM     14  C   UNL     1      34.195 -15.741 -20.871  0.00  0.00    +0.133 C 
BRANCH  14  15
ATOM     15  O   UNL     1      35.019 -15.741 -19.703  0.00  0.00    -0.383 OA
ATOM     16  H   UNL     1      34.512 -16.077 -18.948  0.00  0.00    +0.210 HD
ENDBRANCH  14  15
BRANCH  14  17
ATOM     17  C   UNL     1      34.022 -17.190 -21.332  0.00  0.00    -0.048 C 
BRANCH  17  18
ATOM     18  N   UNL     1      35.055 -18.062 -20.797  0.00  0.00    +0.388 N 
ATOM     19  H   UNL     1      35.962 -17.763 -21.154  0.00  0.00    -0.084 HD
ATOM     20  H   UNL     1      35.039 -18.004 -19.779  0.00  0.00    -0.084 HD
BRANCH  18  21
ATOM     21  C   UNL     1      34.813 -19.452 -21.196  0.00  0.00    -0.046 C 
ATOM     22  C   UNL     1      35.858 -20.360 -20.536  0.00  0.00    -0.022 C 
ATOM     23  C   UNL     1      34.920 -19.548 -22.722  0.00  0.00    -0.022 C 
ATOM     24  C   UNL     1      33.406 -19.853 -20.741  0.00  0.00    -0.022 C 
ENDBRANCH  18  21
ENDBRANCH  17  18
ENDBRANCH  14  17
ENDBRANCH  13  14
ENDBRANCH   1  13
TORSDOF 7
ENDMDL
MODEL 2
REMARK VINA RESULT:      -8.1      6.700     10.574
REMARK  Name = 33624
REMARK  7 active torsions:
REMARK  status: ('A' for Active; 'I' for Inactive)
REMARK    1  A    between atoms: O_1  and  C_12
REMARK    2  A    between atoms: O_1  and  C_13
REMARK    3  A    between atoms: C_13  and  C_14
REMARK    4  A    between atoms: C_14  and  O_15
REMARK    5  A    between atoms: C_14  and  C_17
REMARK    6  A    between atoms: C_17  and  N_18
REMARK    7  A    between atoms: N_18  and  C_21
REMARK                            x       y       z     vdW  Elec       q    Type
REMARK                         _______ _______ _______ _____ _____    ______ ____
ROOT
ATOM      1  O   UNL     1      33.164 -23.016 -17.899  0.00  0.00    -0.455 OA
ENDROOT
BRANCH   1  12
ATOM      2  S   UNL     1      35.600 -23.373 -15.163  0.00  0.00    +0.121 S 
ATOM      3  O   UNL     1      29.131 -24.362 -15.345  0.00  0.00    -0.350 OA
ATOM      4  N   UNL     1      31.884 -23.777 -15.371  0.00  0.00    -0.284 N 
ATOM      5  N   UNL     1      34.109 -23.720 -14.477  0.00  0.00    -0.172 NA
ATOM      6  N   UNL     1      35.136 -23.051 -16.744  0.00  0.00    -0.153 NA
ATOM      7  C   UNL     1      30.914 -22.794 -15.866  0.00  0.00    +0.124 C 
ATOM      8  C   UNL     1      31.330 -24.728 -14.398  0.00  0.00    +0.124 C 
ATOM      9  C   UNL     1      29.667 -23.517 -16.366  0.00  0.00    +0.164 C 
ATOM     10  C   UNL     1      30.074 -25.369 -14.975  0.00  0.00    +0.164 C 
ATOM     11  C   UNL     1      33.243 -23.584 -15.484  0.00  0.00    +0.195 A 
ATOM     12  C   UNL     1      33.824 -23.219 -16.717  0.00  0.00    +0.266 A 
ENDBRANCH   1  12
BRANCH   1  13
ATOM     13  C   UNL     1      33.972 -22.843 -19.061  0.00  0.00    +0.234 C 
BRANCH  13  14
ATOM     14  C   UNL     1      33.454 -21.640 -19.847  0.00  0.00    +0.133 C 
BRANCH  14  15
ATOM     15  O   UNL     1      32.424 -21.005 -19.086  0.00  0.00    -0.383 OA
ATOM     16  H   UNL     1      31.564 -21.387 -19.322  0.00  0.00    +0.210 HD
ENDBRANCH  14  15
BRANCH  14  17
ATOM     17  C   UNL     1      34.537 -20.601 -20.145  0.00  0.00    -0.048 C 
BRANCH  17  18
ATOM     18  N   UNL     1      34.002 -19.435 -20.829  0.00  0.00    +0.388 N 
ATOM     19  H   UNL     1      33.339 -19.740 -21.542  0.00  0.00    -0.084 HD
ATOM     20  H   UNL     1      33.536 -18.838 -20.146  0.00  0.00    -0.084 HD
BRANCH  18  21
ATOM     21  C   UNL     1      35.080 -18.673 -21.468  0.00  0.00    -0.046 C 
ATOM     22  C   UNL     1      35.015 -18.874 -22.987  0.00  0.00    -0.022 C 
ATOM     23  C   UNL     1      36.422 -19.178 -20.926  0.00  0.00    -0.022 C 
ATOM     24  C   UNL     1      34.898 -17.190 -21.126  0.00  0.00    -0.022 C 
ENDBRANCH  18  21
ENDBRANCH  17  18
ENDBRANCH  14  17
ENDBRANCH  13  14
ENDBRANCH   1  13
TORSDOF 7
ENDMDL
MODEL 3
REMARK VINA RESULT:      -7.9      6.796     10.971
REMARK  Name = 33624
REMARK  7 active torsions:
REMARK  status: ('A' for Active; 'I' for Inactive)
REMARK    1  A    between atoms: O_1  and  C_12
REMARK    2  A    between atoms: O_1  and  C_13
REMARK    3  A    between atoms: C_13  and  C_14
REMARK    4  A    between atoms: C_14  and  O_15
REMARK    5  A    between atoms: C_14  and  C_17
REMARK    6  A    between atoms: C_17  and  N_18
REMARK    7  A    between atoms: N_18  and  C_21
REMARK                            x       y       z     vdW  Elec       q    Type
REMARK                         _______ _______ _______ _____ _____    ______ ____
ROOT
ATOM      1  O   UNL     1      34.260 -23.566 -17.363  0.00  0.00    -0.455 OA
ENDROOT
BRANCH   1  12
ATOM      2  S   UNL     1      31.266 -23.080 -15.280  0.00  0.00    +0.121 S 
ATOM      3  O   UNL     1      37.438 -24.572 -13.690  0.00  0.00    -0.350 OA
ATOM      4  N   UNL     1      34.799 -24.055 -14.520  0.00  0.00    -0.284 N 
ATOM      5  N   UNL     1      32.483 -23.516 -14.211  0.00  0.00    -0.172 NA
ATOM      6  N   UNL     1      32.112 -23.110 -16.730  0.00  0.00    -0.153 NA
ATOM      7  C   UNL     1      35.562 -25.156 -15.121  0.00  0.00    +0.124 C 
ATOM      8  C   UNL     1      35.246 -23.682 -13.171  0.00  0.00    +0.124 C 
ATOM      9  C   UNL     1      37.053 -24.845 -15.039  0.00  0.00    +0.164 C 
ATOM     10  C   UNL     1      36.748 -23.427 -13.188  0.00  0.00    +0.164 C 
ATOM     11  C   UNL     1      33.556 -23.687 -14.986  0.00  0.00    +0.195 A 
ATOM     12  C   UNL     1      33.334 -23.460 -16.361  0.00  0.00    +0.266 A 
ENDBRANCH   1  12
BRANCH   1  13
ATOM     13  C   UNL     1      34.834 -22.350 -17.836  0.00  0.00    +0.234 C 
BRANCH  13  14
ATOM     14  C   UNL     1      34.486 -22.182 -19.314  0.00  0.00    +0.133 C 
BRANCH  14  15
ATOM     15  O   UNL     1      33.069 -22.036 -19.437  0.00  0.00    -0.383 OA
ATOM     16  H   UNL     1      32.649 -22.910 -19.407  0.00  0.00    +0.210 HD
ENDBRANCH  14  15
BRANCH  14  17
ATOM     17  C   UNL     1      35.149 -20.963 -19.957  0.00  0.00    -0.048 C 
BRANCH  17  18
ATOM     18  N   UNL     1      34.203 -20.164 -20.718  0.00  0.00    +0.388 N 
ATOM     19  H   UNL     1      33.724 -20.763 -21.390  0.00  0.00    -0.084 HD
ATOM     20  H   UNL     1      33.531 -19.747 -20.074  0.00  0.00    -0.084 HD
BRANCH  18  21
ATOM     21  C   UNL     1      34.897 -19.091 -21.438  0.00  0.00    -0.046 C 
ATOM     22  C   UNL     1      34.822 -19.358 -22.946  0.00  0.00    -0.022 C 
ATOM     23  C   UNL     1      36.360 -19.062 -20.980  0.00  0.00    -0.022 C 
ATOM     24  C   UNL     1      34.215 -17.759 -21.105  0.00  0.00    -0.022 C 
ENDBRANCH  18  21
ENDBRANCH  17  18
ENDBRANCH  14  17
ENDBRANCH  13  14
ENDBRANCH   1  13
TORSDOF 7
ENDMDL
MODEL 4
REMARK VINA RESULT:      -7.8     10.545     12.841
REMARK  Name = 33624
REMARK  7 active torsions:
REMARK  status: ('A' for Active; 'I' for Inactive)
REMARK    1  A    between atoms: O_1  and  C_12
REMARK    2  A    between atoms: O_1  and  C_13
REMARK    3  A    between atoms: C_13  and  C_14
REMARK    4  A    between atoms: C_14  and  O_15
REMARK    5  A    between atoms: C_14  and  C_17
REMARK    6  A    between atoms: C_17  and  N_18
REMARK    7  A    between atoms: N_18  and  C_21
REMARK                            x       y       z     vdW  Elec       q    Type
REMARK                         _______ _______ _______ _____ _____    ______ ____
ROOT
ATOM      1  O   UNL     1      34.467 -24.059 -15.271  0.00  0.00    -0.455 OA
ENDROOT
BRANCH   1  12
ATOM      2  S   UNL     1      36.911 -22.024 -17.123  0.00  0.00    +0.121 S 
ATOM      3  O   UNL     1      37.465 -25.449 -11.573  0.00  0.00    -0.350 OA
ATOM      4  N   UNL     1      37.055 -23.915 -13.896  0.00  0.00    -0.284 N 
ATOM      5  N   UNL     1      37.721 -22.548 -15.751  0.00  0.00    -0.172 NA
ATOM      6  N   UNL     1      35.410 -22.736 -16.878  0.00  0.00    -0.153 NA
ATOM      7  C   UNL     1      36.147 -23.782 -12.751  0.00  0.00    +0.124 C 
ATOM      8  C   UNL     1      38.398 -24.394 -13.543  0.00  0.00    +0.124 C 
ATOM      9  C   UNL     1      36.138 -25.083 -11.955  0.00  0.00    +0.164 C 
ATOM     10  C   UNL     1      38.281 -25.673 -12.723  0.00  0.00    +0.164 C 
ATOM     11  C   UNL     1      36.818 -23.282 -15.096  0.00  0.00    +0.195 A 
ATOM     12  C   UNL     1      35.560 -23.373 -15.728  0.00  0.00    +0.266 A 
ENDBRANCH   1  12
BRANCH   1  13
ATOM     13  C   UNL     1      33.295 -23.292 -15.007  0.00  0.00    +0.234 C 
BRANCH  13  14
ATOM     14  C   UNL     1      32.556 -23.913 -13.823  0.00  0.00    +0.133 C 
BRANCH  14  15
ATOM     15  O   UNL     1      32.565 -22.982 -12.738  0.00  0.00    -0.383 OA
ATOM     16  H   UNL     1      32.273 -23.426 -11.928  0.00  0.00    +0.210 HD
ENDBRANCH  14  15
BRANCH  14  17
ATOM     17  C   UNL     1      31.100 -24.265 -14.137  0.00  0.00    -0.048 C 
BRANCH  17  18
ATOM     18  N   UNL     1      30.281 -23.081 -14.335  0.00  0.00    +0.388 N 
ATOM     19  H   UNL     1      29.653 -22.971 -13.539  0.00  0.00    -0.084 HD
ATOM     20  H   UNL     1      30.892 -22.268 -14.417  0.00  0.00    -0.084 HD
BRANCH  18  21
ATOM     21  C   UNL     1      29.487 -23.203 -15.562  0.00  0.00    -0.046 C 
ATOM     22  C   UNL     1      28.241 -22.316 -15.453  0.00  0.00    -0.022 C 
ATOM     23  C   UNL     1      29.077 -24.670 -15.735  0.00  0.00    -0.022 C 
ATOM     24  C   UNL     1      30.349 -22.755 -16.747  0.00  0.00    -0.022 C 
ENDBRANCH  18  21
ENDBRANCH  17  18
ENDBRANCH  14  17
ENDBRANCH  13  14
ENDBRANCH   1  13
TORSDOF 7
ENDMDL
MODEL 5
REMARK VINA RESULT:      -7.7      2.874      6.560
REMARK  Name = 33624
REMARK  7 active torsions:
REMARK  status: ('A' for Active; 'I' for Inactive)
REMARK    1  A    between atoms: O_1  and  C_12
REMARK    2  A    between atoms: O_1  and  C_13
REMARK    3  A    between atoms: C_13  and  C_14
REMARK    4  A    between atoms: C_14  and  O_15
REMARK    5  A    between atoms: C_14  and  C_17
REMARK    6  A    between atoms: C_17  and  N_18
REMARK    7  A    between atoms: N_18  and  C_21
REMARK                            x       y       z     vdW  Elec       q    Type
REMARK                         _______ _______ _______ _____ _____    ______ ____
ROOT
ATOM      1  O   UNL     1      32.964 -14.519 -22.873  0.00  0.00    -0.455 OA
ENDROOT
BRANCH   1  12
ATOM      2  S   UNL     1      33.209 -14.725 -26.539  0.00  0.00    +0.121 S 
ATOM      3  O   UNL     1      35.419 -18.700 -21.831  0.00  0.00    -0.350 OA
ATOM      4  N   UNL     1      34.527 -16.843 -23.748  0.00  0.00    -0.284 N 
ATOM      5  N   UNL     1      34.066 -16.047 -25.963  0.00  0.00    -0.172 NA
ATOM      6  N   UNL     1      32.710 -14.036 -25.093  0.00  0.00    -0.153 NA
ATOM      7  C   UNL     1      35.339 -16.399 -22.608  0.00  0.00    +0.124 C 
ATOM      8  C   UNL     1      34.719 -18.255 -24.106  0.00  0.00    +0.124 C 
ATOM      9  C   UNL     1      35.137 -17.356 -21.438  0.00  0.00    +0.164 C 
ATOM     10  C   UNL     1      34.531 -19.121 -22.868  0.00  0.00    +0.164 C 
ATOM     11  C   UNL     1      33.964 -15.953 -24.635  0.00  0.00    +0.195 A 
ATOM     12  C   UNL     1      33.218 -14.845 -24.178  0.00  0.00    +0.266 A 
ENDBRANCH   1  12
BRANCH   1  13
ATOM     13  C   UNL     1      33.136 -13.151 -22.511  0.00  0.00    +0.234 C 
BRANCH  13  14
ATOM     14  C   UNL     1      31.895 -12.681 -21.755  0.00  0.00    +0.133 C 
BRANCH  14  15
ATOM     15  O   UNL     1      32.164 -12.737 -20.352  0.00  0.00    -0.383 OA
ATOM     16  H   UNL     1      31.722 -11.998 -19.908  0.00  0.00    +0.210 HD
ENDBRANCH  14  15
BRANCH  14  17
ATOM     17  C   UNL     1      31.480 -11.250 -22.105  0.00  0.00    -0.048 C 
BRANCH  17  18
ATOM     18  N   UNL     1      32.479 -10.573 -22.915  0.00  0.00    +0.388 N 
ATOM     19  H   UNL     1      33.403 -10.937 -22.680  0.00  0.00    -0.084 HD
ATOM     20  H   UNL     1      32.273 -10.741 -23.900  0.00  0.00    -0.084 HD
BRANCH  18  21
ATOM     21  C   UNL     1      32.453  -9.129 -22.664  0.00  0.00    -0.046 C 
ATOM     22  C   UNL     1      31.253  -8.508 -23.390  0.00  0.00    -0.022 C 
ATOM     23  C   UNL     1      33.758  -8.518 -23.186  0.00  0.00    -0.022 C 
ATOM     24  C   UNL     1      32.331  -8.897 -21.154  0.00  0.00    -0.022 C 
ENDBRANCH  18  21
ENDBRANCH  17  18
ENDBRANCH  14  17
ENDBRANCH  13  14
ENDBRANCH   1  13
TORSDOF 7
ENDMDL
MODEL 6
REMARK VINA RESULT:      -7.7     10.392     12.028
REMARK  Name = 33624
REMARK  7 active torsions:
REMARK  status: ('A' for Active; 'I' for Inactive)
REMARK    1  A    between atoms: O_1  and  C_12
REMARK    2  A    between atoms: O_1  and  C_13
REMARK    3  A    between atoms: C_13  and  C_14
REMARK    4  A    between atoms: C_14  and  O_15
REMARK    5  A    between atoms: C_14  and  C_17
REMARK    6  A    between atoms: C_17  and  N_18
REMARK    7  A    between atoms: N_18  and  C_21
REMARK                            x       y       z     vdW  Elec       q    Type
REMARK                         _______ _______ _______ _____ _____    ______ ____
ROOT
ATOM      1  O   UNL     1      33.270 -23.885 -14.648  0.00  0.00    -0.455 OA
ENDROOT
BRANCH   1  12
ATOM      2  S   UNL     1      34.072 -22.661 -18.024  0.00  0.00    +0.121 S 
ATOM      3  O   UNL     1      28.331 -23.828 -15.104  0.00  0.00    -0.350 OA
ATOM      4  N   UNL     1      30.864 -23.491 -16.281  0.00  0.00    -0.284 N 
ATOM      5  N   UNL     1      32.400 -22.792 -17.987  0.00  0.00    -0.172 NA
ATOM      6  N   UNL     1      34.450 -23.172 -16.470  0.00  0.00    -0.153 NA
ATOM      7  C   UNL     1      30.520 -24.752 -15.616  0.00  0.00    +0.124 C 
ATOM      8  C   UNL     1      29.704 -22.736 -16.773  0.00  0.00    +0.124 C 
ATOM      9  C   UNL     1      29.467 -24.490 -14.544  0.00  0.00    +0.164 C 
ATOM     10  C   UNL     1      28.699 -22.558 -15.642  0.00  0.00    +0.164 C 
ATOM     11  C   UNL     1      32.132 -23.236 -16.756  0.00  0.00    +0.195 A 
ATOM     12  C   UNL     1      33.267 -23.438 -15.941  0.00  0.00    +0.266 A 
ENDBRANCH   1  12
BRANCH   1  13
ATOM     13  C   UNL     1      34.373 -24.698 -14.254  0.00  0.00    +0.234 C 
BRANCH  13  14
ATOM     14  C   UNL     1      35.020 -24.083 -13.015  0.00  0.00    +0.133 C 
BRANCH  14  15
ATOM     15  O   UNL     1      34.813 -24.962 -11.906  0.00  0.00    -0.383 OA
ATOM     16  H   UNL     1      35.211 -25.825 -12.098  0.00  0.00    +0.210 HD
ENDBRANCH  14  15
BRANCH  14  17
ATOM     17  C   UNL     1      36.526 -23.857 -13.169  0.00  0.00    -0.048 C 
BRANCH  17  18
ATOM     18  N   UNL     1      37.032 -24.379 -14.427  0.00  0.00    +0.388 N 
ATOM     19  H   UNL     1      36.252 -24.731 -14.981  0.00  0.00    -0.084 HD
ATOM     20  H   UNL     1      37.509 -23.629 -14.927  0.00  0.00    -0.084 HD
BRANCH  18  21
ATOM     21  C   UNL     1      37.983 -25.469 -14.187  0.00  0.00    -0.046 C 
ATOM     22  C   UNL     1      38.216 -25.619 -12.679  0.00  0.00    -0.022 C 
ATOM     23  C   UNL     1      39.302 -25.131 -14.893  0.00  0.00    -0.022 C 
ATOM     24  C   UNL     1      37.397 -26.764 -14.759  0.00  0.00    -0.022 C 
ENDBRANCH  18  21
ENDBRANCH  17  18
ENDBRANCH  14  17
ENDBRANCH  13  14
ENDBRANCH   1  13
TORSDOF 7
ENDMDL
MODEL 7
REMARK VINA RESULT:      -7.7      2.512      4.212
REMARK  Name = 33624
REMARK  7 active torsions:
REMARK  status: ('A' for Active; 'I' for Inactive)
REMARK    1  A    between atoms: O_1  and  C_12
REMARK    2  A    between atoms: O_1  and  C_13
REMARK    3  A    between atoms: C_13  and  C_14
REMARK    4  A    between atoms: C_14  and  O_15
REMARK    5  A    between atoms: C_14  and  C_17
REMARK    6  A    between atoms: C_17  and  N_18
REMARK    7  A    between atoms: N_18  and  C_21
REMARK                            x       y       z     vdW  Elec       q    Type
REMARK                         _______ _______ _______ _____ _____    ______ ____
ROOT
ATOM      1  O   UNL     1      33.106 -13.499 -22.355  0.00  0.00    -0.455 OA
ENDROOT
BRANCH   1  12
ATOM      2  S   UNL     1      33.975 -11.452 -25.286  0.00  0.00    +0.121 S 
ATOM      3  O   UNL     1      31.067  -9.887 -19.635  0.00  0.00    -0.350 OA
ATOM      4  N   UNL     1      32.209 -10.720 -22.068  0.00  0.00    -0.284 N 
ATOM      5  N   UNL     1      33.182 -10.410 -24.238  0.00  0.00    -0.172 NA
ATOM      6  N   UNL     1      33.927 -12.873 -24.393  0.00  0.00    -0.153 NA
ATOM      7  C   UNL     1      31.046 -11.424 -21.517  0.00  0.00    +0.124 C 
ATOM      8  C   UNL     1      32.332  -9.326 -21.622  0.00  0.00    +0.124 C 
ATOM      9  C   UNL     1      31.029 -11.268 -20.000  0.00  0.00    +0.164 C 
ATOM     10  C   UNL     1      32.269  -9.273 -20.101  0.00  0.00    +0.164 C 
ATOM     11  C   UNL     1      32.877 -11.171 -23.185  0.00  0.00    +0.195 A 
ATOM     12  C   UNL     1      33.293 -12.516 -23.288  0.00  0.00    +0.266 A 
ENDBRANCH   1  12
BRANCH   1  13
ATOM     13  C   UNL     1      34.279 -14.120 -21.835  0.00  0.00    +0.234 C 
BRANCH  13  14
ATOM     14  C   UNL     1      34.340 -15.560 -22.340  0.00  0.00    +0.133 C 
BRANCH  14  15
ATOM     15  O   UNL     1      35.254 -15.622 -23.438  0.00  0.00    -0.383 OA
ATOM     16  H   UNL     1      35.751 -14.791 -23.493  0.00  0.00    +0.210 HD
ENDBRANCH  14  15
BRANCH  14  17
ATOM     17  C   UNL     1      34.805 -16.555 -21.275  0.00  0.00    -0.048 C 
BRANCH  17  18
ATOM     18  N   UNL     1      33.956 -17.734 -21.221  0.00  0.00    +0.388 N 
ATOM     19  H   UNL     1      33.541 -17.805 -20.293  0.00  0.00    -0.084 HD
ATOM     20  H   UNL     1      33.227 -17.647 -21.929  0.00  0.00    -0.084 HD
BRANCH  18  21
ATOM     21  C   UNL     1      34.738 -18.945 -21.494  0.00  0.00    -0.046 C 
ATOM     22  C   UNL     1      34.169 -20.113 -20.679  0.00  0.00    -0.022 C 
ATOM     23  C   UNL     1      36.196 -18.685 -21.095  0.00  0.00    -0.022 C 
ATOM     24  C   UNL     1      34.650 -19.256 -22.992  0.00  0.00    -0.022 C 
ENDBRANCH  18  21
ENDBRANCH  17  18
ENDBRANCH  14  17
ENDBRANCH  13  14
ENDBRANCH   1  13
TORSDOF 7
ENDMDL
MODEL 8
REMARK VINA RESULT:      -7.5      3.360      7.070
REMARK  Name = 33624
REMARK  7 active torsions:
REMARK  status: ('A' for Active; 'I' for Inactive)
REMARK    1  A    between atoms: O_1  and  C_12
REMARK    2  A    between atoms: O_1  and  C_13
REMARK    3  A    between atoms: C_13  and  C_14
REMARK    4  A    between atoms: C_14  and  O_15
REMARK    5  A    between atoms: C_14  and  C_17
REMARK    6  A    between atoms: C_17  and  N_18
REMARK    7  A    between atoms: N_18  and  C_21
REMARK                            x       y       z     vdW  Elec       q    Type
REMARK                         _______ _______ _______ _____ _____    ______ ____
ROOT
ATOM      1  O   UNL     1      34.002 -12.707 -24.552  0.00  0.00    -0.455 OA
ENDROOT
BRANCH   1  12
ATOM      2  S   UNL     1      31.864 -12.535 -21.562  0.00  0.00    +0.121 S 
ATOM      3  O   UNL     1      35.178 -17.514 -24.222  0.00  0.00    -0.350 OA
ATOM      4  N   UNL     1      33.701 -15.323 -23.257  0.00  0.00    -0.284 N 
ATOM      5  N   UNL     1      32.325 -14.143 -21.685  0.00  0.00    -0.172 NA
ATOM      6  N   UNL     1      32.652 -11.893 -22.898  0.00  0.00    -0.153 NA
ATOM      7  C   UNL     1      33.600 -15.719 -24.666  0.00  0.00    +0.124 C 
ATOM      8  C   UNL     1      34.102 -16.410 -22.355  0.00  0.00    +0.124 C 
ATOM      9  C   UNL     1      34.889 -16.416 -25.090  0.00  0.00    +0.164 C 
ATOM     10  C   UNL     1      35.374 -17.062 -22.882  0.00  0.00    +0.164 C 
ATOM     11  C   UNL     1      33.097 -14.183 -22.773  0.00  0.00    +0.195 A 
ATOM     12  C   UNL     1      33.265 -12.941 -23.423  0.00  0.00    +0.266 A 
ENDBRANCH   1  12
BRANCH   1  13
ATOM     13  C   UNL     1      33.804 -11.451 -25.196  0.00  0.00    +0.234 C 
BRANCH  13  14
ATOM     14  C   UNL     1      35.099 -10.645 -25.112  0.00  0.00    +0.133 C 
BRANCH  14  15
ATOM     15  O   UNL     1      35.552 -10.367 -26.439  0.00  0.00    -0.383 OA
ATOM     16  H   UNL     1      36.489 -10.119 -26.416  0.00  0.00    +0.210 HD
ENDBRANCH  14  15
BRANCH  14  17
ATOM     17  C   UNL     1      34.936  -9.314 -24.375  0.00  0.00    -0.048 C 
BRANCH  17  18
ATOM     18  N   UNL     1      33.734  -9.285 -23.558  0.00  0.00    +0.388 N 
ATOM     19  H   UNL     1      33.013  -9.852 -24.003  0.00  0.00    -0.084 HD
ATOM     20  H   UNL     1      33.955  -9.657 -22.634  0.00  0.00    -0.084 HD
BRANCH  18  21
ATOM     21  C   UNL     1      33.245  -7.911 -23.410  0.00  0.00    -0.046 C 
ATOM     22  C   UNL     1      31.799  -7.827 -23.915  0.00  0.00    -0.022 C 
ATOM     23  C   UNL     1      34.144  -6.980 -24.231  0.00  0.00    -0.022 C 
ATOM     24  C   UNL     1      33.305  -7.528 -21.927  0.00  0.00    -0.022 C 
ENDBRANCH  18  21
ENDBRANCH  17  18
ENDBRANCH  14  17
ENDBRANCH  13  14
ENDBRANCH   1  13
TORSDOF 7
ENDMDL
MODEL 9
REMARK VINA RESULT:      -7.4      3.193      7.115
REMARK  Name = 33624
REMARK  7 active torsions:
REMARK  status: ('A' for Active; 'I' for Inactive)
REMARK    1  A    between atoms: O_1  and  C_12
REMARK    2  A    between atoms: O_1  and  C_13
REMARK    3  A    between atoms: C_13  and  C_14
REMARK    4  A    between atoms: C_14  and  O_15
REMARK    5  A    between atoms: C_14  and  C_17
REMARK    6  A    between atoms: C_17  and  N_18
REMARK    7  A    between atoms: N_18  and  C_21
REMARK                            x       y       z     vdW  Elec       q    Type
REMARK                         _______ _______ _______ _____ _____    ______ ____
ROOT
ATOM      1  O   UNL     1      32.388 -13.474 -23.061  0.00  0.00    -0.455 OA
ENDROOT
BRANCH   1  12
ATOM      2  S   UNL     1      33.186 -14.895 -26.361  0.00  0.00    +0.121 S 
ATOM      3  O   UNL     1      35.059 -16.642 -20.337  0.00  0.00    -0.350 OA
ATOM      4  N   UNL     1      34.282 -15.707 -22.874  0.00  0.00    -0.284 N 
ATOM      5  N   UNL     1      34.074 -15.800 -25.262  0.00  0.00    -0.172 NA
ATOM      6  N   UNL     1      32.416 -13.827 -25.319  0.00  0.00    -0.153 NA
ATOM      7  C   UNL     1      34.871 -14.787 -21.895  0.00  0.00    +0.124 C 
ATOM      8  C   UNL     1      34.660 -17.113 -22.678  0.00  0.00    +0.124 C 
ATOM      9  C   UNL     1      34.594 -15.299 -20.486  0.00  0.00    +0.164 C 
ATOM     10  C   UNL     1      34.378 -17.517 -21.237  0.00  0.00    +0.164 C 
ATOM     11  C   UNL     1      33.771 -15.268 -24.076  0.00  0.00    +0.195 A 
ATOM     12  C   UNL     1      32.861 -14.190 -24.127  0.00  0.00    +0.266 A 
ENDBRANCH   1  12
BRANCH   1  13
ATOM     13  C   UNL     1      32.699 -12.083 -23.037  0.00  0.00    +0.234 C 
BRANCH  13  14
ATOM     14  C   UNL     1      31.655 -11.359 -22.189  0.00  0.00    +0.133 C 
BRANCH  14  15
ATOM     15  O   UNL     1      31.669 -11.916 -20.872  0.00  0.00    -0.383 OA
ATOM     16  H   UNL     1      30.961 -12.573 -20.792  0.00  0.00    +0.210 HD
ENDBRANCH  14  15
BRANCH  14  17
ATOM     17  C   UNL     1      31.907  -9.854 -22.074  0.00  0.00    -0.048 C 
BRANCH  17  18
ATOM     18  N   UNL     1      32.705  -9.347 -23.178  0.00  0.00    +0.388 N 
ATOM     19  H   UNL     1      33.529  -9.936 -23.294  0.00  0.00    -0.084 HD
ATOM     20  H   UNL     1      32.139  -9.361 -24.026  0.00  0.00    -0.084 HD
BRANCH  18  21
ATOM     21  C   UNL     1      33.130  -7.968 -22.915  0.00  0.00    -0.046 C 
ATOM     22  C   UNL     1      32.229  -7.000 -23.692  0.00  0.00    -0.022 C 
ATOM     23  C   UNL     1      34.586  -7.811 -23.369  0.00  0.00    -0.022 C 
ATOM     24  C   UNL     1      33.016  -7.700 -21.411  0.00  0.00    -0.022 C 
ENDBRANCH  18  21
ENDBRANCH  17  18
ENDBRANCH  14  17
ENDBRANCH  13  14
ENDBRANCH   1  13
TORSDOF 7
ENDMDL
