MODEL 1
REMARK VINA RESULT:      -8.3      0.000      0.000
REMARK  Name = 6862
REMARK  3 active torsions:
REMARK  status: ('A' for Active; 'I' for Inactive)
REMARK    1  A    between atoms: C_2  and  C_11
REMARK    2  A    between atoms: C_11  and  C_13
REMARK    3  A    between atoms: C_13  and  O_14
REMARK                            x       y       z     vdW  Elec       q    Type
REMARK                         _______ _______ _______ _____ _____    ______ ____
ROOT
ATOM      1  C   UNL     1      35.376 -20.042 -20.501  0.00  0.00    -0.003 C 
ATOM      2  C   UNL     1      35.392 -21.138 -19.624  0.00  0.00    -0.011 C 
ATOM      3  C   UNL     1      34.135 -19.536 -20.953  0.00  0.00    -0.000 C 
ATOM      4  C   UNL     1      34.202 -21.726 -19.198  0.00  0.00    -0.004 C 
ATOM      5  C   UNL     1      36.566 -19.437 -20.940  0.00  0.00    -0.000 C 
ATOM      6  C   UNL     1      32.946 -20.140 -20.515  0.00  0.00    -0.000 C 
ATOM      7  C   UNL     1      34.119 -18.439 -21.831  0.00  0.00    -0.000 C 
ATOM      8  C   UNL     1      32.980 -21.228 -19.642  0.00  0.00    -0.000 C 
ATOM      9  C   UNL     1      36.531 -18.349 -21.813  0.00  0.00    -0.000 C 
ATOM     10  C   UNL     1      35.310 -17.851 -22.257  0.00  0.00    -0.000 C 
ENDROOT
BRANCH   2  11
ATOM     11  C   UNL     1      36.671 -21.723 -19.107  0.00  0.00    +0.136 C 
BRANCH  11  13
ATOM     12  O   UNL     1      36.407 -22.647 -16.869  0.00  0.00    -0.250 OA
ATOM     13  C   UNL     1      36.759 -21.728 -17.596  0.00  0.00    +0.318 C 
BRANCH  13  14
ATOM     14  O   UNL     1      37.284 -20.568 -17.122  0.00  0.00    -0.480 OA
ATOM     15  H   UNL     1      38.212 -20.442 -17.113  0.00  0.00    +0.295 HD
ENDBRANCH  13  14
ENDBRANCH  11  13
ENDBRANCH   2  11
TORSDOF 3
ENDMDL
MODEL 2
REMARK VINA RESULT:      -8.1      2.810      4.367
REMARK  Name = 6862
REMARK  3 active torsions:
REMARK  status: ('A' for Active; 'I' for Inactive)
REMARK    1  A    between atoms: C_2  and  C_11
REMARK    2  A    between atoms: C_11  and  C_13
REMARK    3  A    between atoms: C_13  and  O_14
REMARK                            x       y       z     vdW  Elec       q    Type
REMARK                         _______ _______ _______ _____ _____    ______ ____
ROOT
ATOM      1  C   UNL     1      34.708 -17.253 -22.188  0.00  0.00    -0.003 C 
ATOM      2  C   UNL     1      34.862 -18.647 -22.243  0.00  0.00    -0.011 C 
ATOM      3  C   UNL     1      34.546 -16.527 -23.391  0.00  0.00    -0.000 C 
ATOM      4  C   UNL     1      34.857 -19.316 -23.466  0.00  0.00    -0.004 C 
ATOM      5  C   UNL     1      34.711 -16.563 -20.964  0.00  0.00    -0.000 C 
ATOM      6  C   UNL     1      34.542 -17.216 -24.614  0.00  0.00    -0.000 C 
ATOM      7  C   UNL     1      34.391 -15.131 -23.336  0.00  0.00    -0.000 C 
ATOM      8  C   UNL     1      34.697 -18.602 -24.651  0.00  0.00    -0.000 C 
ATOM      9  C   UNL     1      34.557 -15.177 -20.928  0.00  0.00    -0.000 C 
ATOM     10  C   UNL     1      34.397 -14.463 -22.112  0.00  0.00    -0.000 C 
ENDROOT
BRANCH   2  11
ATOM     11  C   UNL     1      35.039 -19.476 -21.007  0.00  0.00    +0.136 C 
BRANCH  11  13
ATOM     12  O   UNL     1      32.627 -19.740 -20.785  0.00  0.00    -0.250 OA
ATOM     13  C   UNL     1      33.759 -20.139 -20.544  0.00  0.00    +0.318 C 
BRANCH  13  14
ATOM     14  O   UNL     1      34.010 -21.255 -19.811  0.00  0.00    -0.480 OA
ATOM     15  H   UNL     1      33.533 -22.043 -19.978  0.00  0.00    +0.295 HD
ENDBRANCH  13  14
ENDBRANCH  11  13
ENDBRANCH   2  11
TORSDOF 3
ENDMDL
MODEL 3
REMARK VINA RESULT:      -7.8      2.977      5.122
REMARK  Name = 6862
REMARK  3 active torsions:
REMARK  status: ('A' for Active; 'I' for Inactive)
REMARK    1  A    between atoms: C_2  and  C_11
REMARK    2  A    between atoms: C_11  and  C_13
REMARK    3  A    between atoms: C_13  and  O_14
REMARK                            x       y       z     vdW  Elec       q    Type
REMARK                         _______ _______ _______ _____ _____    ______ ____
ROOT
ATOM      1  C   UNL     1      34.621 -19.921 -20.653  0.00  0.00    -0.003 C 
ATOM      2  C   UNL     1      35.227 -18.909 -21.414  0.00  0.00    -0.011 C 
ATOM      3  C   UNL     1      35.435 -20.822 -19.926  0.00  0.00    -0.000 C 
ATOM      4  C   UNL     1      36.615 -18.785 -21.456  0.00  0.00    -0.004 C 
ATOM      5  C   UNL     1      33.224 -20.061 -20.599  0.00  0.00    -0.000 C 
ATOM      6  C   UNL     1      36.831 -20.683 -19.980  0.00  0.00    -0.000 C 
ATOM      7  C   UNL     1      34.828 -21.835 -19.165  0.00  0.00    -0.000 C 
ATOM      8  C   UNL     1      37.417 -19.670 -20.740  0.00  0.00    -0.000 C 
ATOM      9  C   UNL     1      32.639 -21.074 -19.838  0.00  0.00    -0.000 C 
ATOM     10  C   UNL     1      33.439 -21.959 -19.123  0.00  0.00    -0.000 C 
ENDROOT
BRANCH   2  11
ATOM     11  C   UNL     1      34.425 -17.923 -22.207  0.00  0.00    +0.136 C 
BRANCH  11  13
ATOM     12  O   UNL     1      34.873 -15.796 -21.109  0.00  0.00    -0.250 OA
ATOM     13  C   UNL     1      34.946 -16.506 -22.102  0.00  0.00    +0.318 C 
BRANCH  13  14
ATOM     14  O   UNL     1      35.519 -16.096 -23.265  0.00  0.00    -0.480 OA
ATOM     15  H   UNL     1      36.385 -16.375 -23.485  0.00  0.00    +0.295 HD
ENDBRANCH  13  14
ENDBRANCH  11  13
ENDBRANCH   2  11
TORSDOF 3
ENDMDL
MODEL 4
REMARK VINA RESULT:      -7.7      3.085      4.805
REMARK  Name = 6862
REMARK  3 active torsions:
REMARK  status: ('A' for Active; 'I' for Inactive)
REMARK    1  A    between atoms: C_2  and  C_11
REMARK    2  A    between atoms: C_11  and  C_13
REMARK    3  A    between atoms: C_13  and  O_14
REMARK                            x       y       z     vdW  Elec       q    Type
REMARK                         _______ _______ _______ _____ _____    ______ ____
ROOT
ATOM      1  C   UNL     1      34.658 -16.674 -22.982  0.00  0.00    -0.003 C 
ATOM      2  C   UNL     1      35.069 -17.061 -21.697  0.00  0.00    -0.011 C 
ATOM      3  C   UNL     1      33.982 -15.442 -23.151  0.00  0.00    -0.000 C 
ATOM      4  C   UNL     1      34.818 -16.246 -20.594  0.00  0.00    -0.004 C 
ATOM      5  C   UNL     1      34.902 -17.482 -24.105  0.00  0.00    -0.000 C 
ATOM      6  C   UNL     1      33.738 -14.634 -22.029  0.00  0.00    -0.000 C 
ATOM      7  C   UNL     1      33.570 -15.055 -24.437  0.00  0.00    -0.000 C 
ATOM      8  C   UNL     1      34.154 -15.034 -20.759  0.00  0.00    -0.000 C 
ATOM      9  C   UNL     1      34.485 -17.082 -25.375  0.00  0.00    -0.000 C 
ATOM     10  C   UNL     1      33.821 -15.870 -25.540  0.00  0.00    -0.000 C 
ENDROOT
BRANCH   2  11
ATOM     11  C   UNL     1      35.788 -18.352 -21.449  0.00  0.00    +0.136 C 
BRANCH  11  13
ATOM     12  O   UNL     1      33.762 -19.703 -21.408  0.00  0.00    -0.250 OA
ATOM     13  C   UNL     1      34.877 -19.461 -20.967  0.00  0.00    +0.318 C 
BRANCH  13  14
ATOM     14  O   UNL     1      35.449 -20.177 -19.963  0.00  0.00    -0.480 OA
ATOM     15  H   UNL     1      36.187 -20.725 -20.139  0.00  0.00    +0.295 HD
ENDBRANCH  13  14
ENDBRANCH  11  13
ENDBRANCH   2  11
TORSDOF 3
ENDMDL
MODEL 5
REMARK VINA RESULT:      -7.6      5.616      7.347
REMARK  Name = 6862
REMARK  3 active torsions:
REMARK  status: ('A' for Active; 'I' for Inactive)
REMARK    1  A    between atoms: C_2  and  C_11
REMARK    2  A    between atoms: C_11  and  C_13
REMARK    3  A    between atoms: C_13  and  O_14
REMARK                            x       y       z     vdW  Elec       q    Type
REMARK                         _______ _______ _______ _____ _____    ______ ____
ROOT
ATOM      1  C   UNL     1      34.397 -16.352 -23.447  0.00  0.00    -0.003 C 
ATOM      2  C   UNL     1      34.155 -15.005 -23.131  0.00  0.00    -0.011 C 
ATOM      3  C   UNL     1      34.754 -17.251 -22.414  0.00  0.00    -0.000 C 
ATOM      4  C   UNL     1      34.262 -14.552 -21.817  0.00  0.00    -0.004 C 
ATOM      5  C   UNL     1      34.293 -16.827 -24.765  0.00  0.00    -0.000 C 
ATOM      6  C   UNL     1      34.859 -16.777 -21.097  0.00  0.00    -0.000 C 
ATOM      7  C   UNL     1      34.997 -18.598 -22.729  0.00  0.00    -0.000 C 
ATOM      8  C   UNL     1      34.613 -15.435 -20.801  0.00  0.00    -0.000 C 
ATOM      9  C   UNL     1      34.538 -18.168 -25.060  0.00  0.00    -0.000 C 
ATOM     10  C   UNL     1      34.889 -19.052 -24.044  0.00  0.00    -0.000 C 
ENDROOT
BRANCH   2  11
ATOM     11  C   UNL     1      33.773 -14.002 -24.176  0.00  0.00    +0.136 C 
BRANCH  11  13
ATOM     12  O   UNL     1      32.444 -12.389 -22.924  0.00  0.00    -0.250 OA
ATOM     13  C   UNL     1      33.429 -12.643 -23.603  0.00  0.00    +0.318 C 
BRANCH  13  14
ATOM     14  O   UNL     1      34.361 -11.711 -23.935  0.00  0.00    -0.480 OA
ATOM     15  H   UNL     1      35.261 -11.849 -23.717  0.00  0.00    +0.295 HD
ENDBRANCH  13  14
ENDBRANCH  11  13
ENDBRANCH   2  11
TORSDOF 3
ENDMDL
MODEL 6
REMARK VINA RESULT:      -7.5     11.911     13.912
REMARK  Name = 6862
REMARK  3 active torsions:
REMARK  status: ('A' for Active; 'I' for Inactive)
REMARK    1  A    between atoms: C_2  and  C_11
REMARK    2  A    between atoms: C_11  and  C_13
REMARK    3  A    between atoms: C_13  and  O_14
REMARK                            x       y       z     vdW  Elec       q    Type
REMARK                         _______ _______ _______ _____ _____    ______ ____
ROOT
ATOM      1  C   UNL     1      32.911  -6.734 -22.578  0.00  0.00    -0.003 C 
ATOM      2  C   UNL     1      32.230  -6.751 -21.350  0.00  0.00    -0.011 C 
ATOM      3  C   UNL     1      32.388  -5.971 -23.648  0.00  0.00    -0.000 C 
ATOM      4  C   UNL     1      31.050  -6.027 -21.181  0.00  0.00    -0.004 C 
ATOM      5  C   UNL     1      34.101  -7.457 -22.767  0.00  0.00    -0.000 C 
ATOM      6  C   UNL     1      31.199  -5.248 -23.460  0.00  0.00    -0.000 C 
ATOM      7  C   UNL     1      33.069  -5.953 -24.877  0.00  0.00    -0.000 C 
ATOM      8  C   UNL     1      30.535  -5.276 -22.233  0.00  0.00    -0.000 C 
ATOM      9  C   UNL     1      34.764  -7.428 -23.994  0.00  0.00    -0.000 C 
ATOM     10  C   UNL     1      34.250  -6.678 -25.046  0.00  0.00    -0.000 C 
ENDROOT
BRANCH   2  11
ATOM     11  C   UNL     1      32.728  -7.538 -20.176  0.00  0.00    +0.136 C 
BRANCH  11  13
ATOM     12  O   UNL     1      31.596  -9.506 -21.057  0.00  0.00    -0.250 OA
ATOM     13  C   UNL     1      32.234  -8.968 -20.162  0.00  0.00    +0.318 C 
BRANCH  13  14
ATOM     14  O   UNL     1      32.585  -9.608 -19.015  0.00  0.00    -0.480 OA
ATOM     15  H   UNL     1      31.923  -9.911 -18.426  0.00  0.00    +0.295 HD
ENDBRANCH  13  14
ENDBRANCH  11  13
ENDBRANCH   2  11
TORSDOF 3
ENDMDL
MODEL 7
REMARK VINA RESULT:      -7.5      3.379      5.254
REMARK  Name = 6862
REMARK  3 active torsions:
REMARK  status: ('A' for Active; 'I' for Inactive)
REMARK    1  A    between atoms: C_2  and  C_11
REMARK    2  A    between atoms: C_11  and  C_13
REMARK    3  A    between atoms: C_13  and  O_14
REMARK                            x       y       z     vdW  Elec       q    Type
REMARK                         _______ _______ _______ _____ _____    ______ ____
ROOT
ATOM      1  C   UNL     1      34.076 -15.981 -22.133  0.00  0.00    -0.003 C 
ATOM      2  C   UNL     1      34.892 -17.104 -22.342  0.00  0.00    -0.011 C 
ATOM      3  C   UNL     1      33.582 -15.267 -23.250  0.00  0.00    -0.000 C 
ATOM      4  C   UNL     1      35.215 -17.518 -23.633  0.00  0.00    -0.004 C 
ATOM      5  C   UNL     1      33.739 -15.549 -20.839  0.00  0.00    -0.000 C 
ATOM      6  C   UNL     1      33.918 -15.698 -24.543  0.00  0.00    -0.000 C 
ATOM      7  C   UNL     1      32.765 -14.143 -23.042  0.00  0.00    -0.000 C 
ATOM      8  C   UNL     1      34.730 -16.817 -24.733  0.00  0.00    -0.000 C 
ATOM      9  C   UNL     1      32.927 -14.431 -20.650  0.00  0.00    -0.000 C 
ATOM     10  C   UNL     1      32.441 -13.729 -21.749  0.00  0.00    -0.000 C 
ENDROOT
BRANCH   2  11
ATOM     11  C   UNL     1      35.448 -17.904 -21.203  0.00  0.00    +0.136 C 
BRANCH  11  13
ATOM     12  O   UNL     1      33.578 -19.456 -21.374  0.00  0.00    -0.250 OA
ATOM     13  C   UNL     1      34.701 -19.198 -20.961  0.00  0.00    +0.318 C 
BRANCH  13  14
ATOM     14  O   UNL     1      35.433 -20.066 -20.213  0.00  0.00    -0.480 OA
ATOM     15  H   UNL     1      35.550 -20.949 -20.501  0.00  0.00    +0.295 HD
ENDBRANCH  13  14
ENDBRANCH  11  13
ENDBRANCH   2  11
TORSDOF 3
ENDMDL
MODEL 8
REMARK VINA RESULT:      -7.5      6.882      8.579
REMARK  Name = 6862
REMARK  3 active torsions:
REMARK  status: ('A' for Active; 'I' for Inactive)
REMARK    1  A    between atoms: C_2  and  C_11
REMARK    2  A    between atoms: C_11  and  C_13
REMARK    3  A    between atoms: C_13  and  O_14
REMARK                            x       y       z     vdW  Elec       q    Type
REMARK                         _______ _______ _______ _____ _____    ______ ____
ROOT
ATOM      1  C   UNL     1      33.409 -14.931 -23.578  0.00  0.00    -0.003 C 
ATOM      2  C   UNL     1      33.429 -15.174 -24.961  0.00  0.00    -0.011 C 
ATOM      3  C   UNL     1      34.187 -15.744 -22.721  0.00  0.00    -0.000 C 
ATOM      4  C   UNL     1      34.206 -16.203 -25.491  0.00  0.00    -0.004 C 
ATOM      5  C   UNL     1      32.633 -13.898 -23.026  0.00  0.00    -0.000 C 
ATOM      6  C   UNL     1      34.963 -16.777 -23.272  0.00  0.00    -0.000 C 
ATOM      7  C   UNL     1      34.166 -15.502 -21.337  0.00  0.00    -0.000 C 
ATOM      8  C   UNL     1      34.972 -17.004 -24.649  0.00  0.00    -0.000 C 
ATOM      9  C   UNL     1      32.624 -13.672 -21.649  0.00  0.00    -0.000 C 
ATOM     10  C   UNL     1      33.389 -14.472 -20.807  0.00  0.00    -0.000 C 
ENDROOT
BRANCH   2  11
ATOM     11  C   UNL     1      32.629 -14.350 -25.923  0.00  0.00    +0.136 C 
BRANCH  11  13
ATOM     12  O   UNL     1      33.926 -13.574 -27.833  0.00  0.00    -0.250 OA
ATOM     13  C   UNL     1      33.470 -13.373 -26.716  0.00  0.00    +0.318 C 
BRANCH  13  14
ATOM     14  O   UNL     1      33.669 -12.215 -26.033  0.00  0.00    -0.480 OA
ATOM     15  H   UNL     1      34.405 -11.672 -26.234  0.00  0.00    +0.295 HD
ENDBRANCH  13  14
ENDBRANCH  11  13
ENDBRANCH   2  11
TORSDOF 3
ENDMDL
MODEL 9
REMARK VINA RESULT:      -7.5      4.404      6.644
REMARK  Name = 6862
REMARK  3 active torsions:
REMARK  status: ('A' for Active; 'I' for Inactive)
REMARK    1  A    between atoms: C_2  and  C_11
REMARK    2  A    between atoms: C_11  and  C_13
REMARK    3  A    between atoms: C_13  and  O_14
REMARK                            x       y       z     vdW  Elec       q    Type
REMARK                         _______ _______ _______ _____ _____    ______ ____
ROOT
ATOM      1  C   UNL     1      34.633 -16.671 -22.822  0.00  0.00    -0.003 C 
ATOM      2  C   UNL     1      34.229 -15.390 -23.231  0.00  0.00    -0.011 C 
ATOM      3  C   UNL     1      34.686 -17.716 -23.774  0.00  0.00    -0.000 C 
ATOM      4  C   UNL     1      33.883 -15.143 -24.559  0.00  0.00    -0.004 C 
ATOM      5  C   UNL     1      34.986 -16.939 -21.489  0.00  0.00    -0.000 C 
ATOM      6  C   UNL     1      34.333 -17.450 -25.107  0.00  0.00    -0.000 C 
ATOM      7  C   UNL     1      35.090 -18.998 -23.366  0.00  0.00    -0.000 C 
ATOM      8  C   UNL     1      33.935 -16.171 -25.496  0.00  0.00    -0.000 C 
ATOM      9  C   UNL     1      35.385 -18.218 -21.101  0.00  0.00    -0.000 C 
ATOM     10  C   UNL     1      35.437 -19.245 -22.037  0.00  0.00    -0.000 C 
ENDROOT
BRANCH   2  11
ATOM     11  C   UNL     1      34.151 -14.239 -22.274  0.00  0.00    +0.136 C 
BRANCH  11  13
ATOM     12  O   UNL     1      32.518 -14.606 -20.505  0.00  0.00    -0.250 OA
ATOM     13  C   UNL     1      32.806 -14.121 -21.590  0.00  0.00    +0.318 C 
BRANCH  13  14
ATOM     14  O   UNL     1      31.928 -13.398 -22.335  0.00  0.00    -0.480 OA
ATOM     15  H   UNL     1      31.071 -13.733 -22.505  0.00  0.00    +0.295 HD
ENDBRANCH  13  14
ENDBRANCH  11  13
ENDBRANCH   2  11
TORSDOF 3
ENDMDL
