MODEL 1
REMARK VINA RESULT:      -7.1      0.000      0.000
REMARK  Name = 6464
REMARK  3 active torsions:
REMARK  status: ('A' for Active; 'I' for Inactive)
REMARK    1  A    between atoms: C_6  and  C_12
REMARK    2  A    between atoms: C_6  and  C_15
REMARK    3  A    between atoms: C_15  and  C_16
REMARK                            x       y       z     vdW  Elec       q    Type
REMARK                         _______ _______ _______ _____ _____    ______ ____
ROOT
ATOM      1  O   UNL     1      38.776 -22.951 -12.108  0.00  0.00    -0.274 OA
ATOM      2  O   UNL     1      35.503 -25.017 -14.767  0.00  0.00    -0.274 OA
ATOM      3  O   UNL     1      35.055 -24.846 -10.203  0.00  0.00    -0.252 OA
ATOM      4  N   UNL     1      36.965 -23.985 -11.151  0.00  0.00    -0.239 N 
ATOM      5  N   UNL     1      35.330 -25.017 -12.480  0.00  0.00    -0.239 N 
ATOM      6  C   UNL     1      37.495 -24.471 -13.497  0.00  0.00    +0.142 C 
ATOM      7  C   UNL     1      37.809 -23.706 -12.215  0.00  0.00    +0.237 C 
ATOM      8  C   UNL     1      36.023 -24.834 -13.667  0.00  0.00    +0.237 C 
ATOM      9  C   UNL     1      35.743 -24.646 -11.206  0.00  0.00    +0.312 C 
ATOM     10  H   UNL     1      37.262 -23.683 -10.263  0.00  0.00    +0.159 HD
ATOM     11  H   UNL     1      34.452 -25.458 -12.546  0.00  0.00    +0.159 HD
ENDROOT
BRANCH   6  12
ATOM     12  C   UNL     1      38.281 -25.793 -13.436  0.00  0.00    +0.017 C 
ATOM     13  C   UNL     1      37.656 -26.823 -14.371  0.00  0.00    +0.001 C 
ATOM     14  C   UNL     1      39.744 -25.556 -13.789  0.00  0.00    +0.001 C 
ENDBRANCH   6  12
BRANCH   6  15
ATOM     15  C   UNL     1      37.966 -23.656 -14.710  0.00  0.00    +0.043 C 
BRANCH  15  16
ATOM     16  C   UNL     1      36.984 -22.583 -15.042  0.00  0.00    -0.025 C 
ATOM     17  C   UNL     1      36.885 -22.014 -16.249  0.00  0.00    -0.005 C 
ENDBRANCH  15  16
ENDBRANCH   6  15
TORSDOF 3
ENDMDL
MODEL 2
REMARK VINA RESULT:      -6.9      1.072      3.360
REMARK  Name = 6464
REMARK  3 active torsions:
REMARK  status: ('A' for Active; 'I' for Inactive)
REMARK    1  A    between atoms: C_6  and  C_12
REMARK    2  A    between atoms: C_6  and  C_15
REMARK    3  A    between atoms: C_15  and  C_16
REMARK                            x       y       z     vdW  Elec       q    Type
REMARK                         _______ _______ _______ _____ _____    ______ ____
ROOT
ATOM      1  O   UNL     1      36.609 -26.285 -13.759  0.00  0.00    -0.274 OA
ATOM      2  O   UNL     1      38.485 -22.330 -12.058  0.00  0.00    -0.274 OA
ATOM      3  O   UNL     1      35.216 -24.565  -9.739  0.00  0.00    -0.252 OA
ATOM      4  N   UNL     1      35.846 -25.370 -11.798  0.00  0.00    -0.239 N 
ATOM      5  N   UNL     1      36.783 -23.395 -10.949  0.00  0.00    -0.239 N 
ATOM      6  C   UNL     1      37.210 -23.982 -13.293  0.00  0.00    +0.142 C 
ATOM      7  C   UNL     1      36.561 -25.328 -12.986  0.00  0.00    +0.237 C 
ATOM      8  C   UNL     1      37.585 -23.170 -12.057  0.00  0.00    +0.237 C 
ATOM      9  C   UNL     1      35.888 -24.443 -10.764  0.00  0.00    +0.312 C 
ATOM     10  H   UNL     1      35.243 -26.139 -11.675  0.00  0.00    +0.159 HD
ATOM     11  H   UNL     1      36.854 -22.743 -10.215  0.00  0.00    +0.159 HD
ENDROOT
BRANCH   6  12
ATOM     12  C   UNL     1      36.177 -23.155 -14.079  0.00  0.00    +0.017 C 
ATOM     13  C   UNL     1      36.774 -22.683 -15.400  0.00  0.00    +0.001 C 
ATOM     14  C   UNL     1      34.914 -23.973 -14.316  0.00  0.00    +0.001 C 
ENDBRANCH   6  12
BRANCH   6  15
ATOM     15  C   UNL     1      38.455 -24.199 -14.163  0.00  0.00    +0.043 C 
BRANCH  15  16
ATOM     16  C   UNL     1      39.350 -25.231 -13.560  0.00  0.00    -0.025 C 
ATOM     17  C   UNL     1      40.338 -25.837 -14.227  0.00  0.00    -0.005 C 
ENDBRANCH  15  16
ENDBRANCH   6  15
TORSDOF 3
ENDMDL
MODEL 3
REMARK VINA RESULT:      -6.8      1.497      3.726
REMARK  Name = 6464
REMARK  3 active torsions:
REMARK  status: ('A' for Active; 'I' for Inactive)
REMARK    1  A    between atoms: C_6  and  C_12
REMARK    2  A    between atoms: C_6  and  C_15
REMARK    3  A    between atoms: C_15  and  C_16
REMARK                            x       y       z     vdW  Elec       q    Type
REMARK                         _______ _______ _______ _____ _____    ______ ____
ROOT
ATOM      1  O   UNL     1      36.108 -25.819 -15.812  0.00  0.00    -0.274 OA
ATOM      2  O   UNL     1      37.858 -22.740 -12.728  0.00  0.00    -0.274 OA
ATOM      3  O   UNL     1      33.554 -24.281 -12.323  0.00  0.00    -0.252 OA
ATOM      4  N   UNL     1      34.802 -24.973 -14.125  0.00  0.00    -0.239 N 
ATOM      5  N   UNL     1      35.677 -23.436 -12.585  0.00  0.00    -0.239 N 
ATOM      6  C   UNL     1      36.905 -23.832 -14.672  0.00  0.00    +0.142 C 
ATOM      7  C   UNL     1      35.936 -24.983 -14.924  0.00  0.00    +0.237 C 
ATOM      8  C   UNL     1      36.891 -23.302 -13.241  0.00  0.00    +0.237 C 
ATOM      9  C   UNL     1      34.598 -24.221 -12.975  0.00  0.00    +0.312 C 
ATOM     10  H   UNL     1      34.064 -25.563 -14.402  0.00  0.00    +0.159 HD
ATOM     11  H   UNL     1      35.566 -22.918 -11.754  0.00  0.00    +0.159 HD
ENDROOT
BRANCH   6  12
ATOM     12  C   UNL     1      36.472 -22.672 -15.586  0.00  0.00    +0.017 C 
ATOM     13  C   UNL     1      37.606 -22.296 -16.534  0.00  0.00    +0.001 C 
ATOM     14  C   UNL     1      35.217 -23.050 -16.363  0.00  0.00    +0.001 C 
ENDBRANCH   6  12
BRANCH   6  15
ATOM     15  C   UNL     1      38.328 -24.268 -15.044  0.00  0.00    +0.043 C 
BRANCH  15  16
ATOM     16  C   UNL     1      38.795 -25.371 -14.153  0.00  0.00    -0.025 C 
ATOM     17  C   UNL     1      40.083 -25.692 -13.981  0.00  0.00    -0.005 C 
ENDBRANCH  15  16
ENDBRANCH   6  15
TORSDOF 3
ENDMDL
MODEL 4
REMARK VINA RESULT:      -6.7     17.979     20.285
REMARK  Name = 6464
REMARK  3 active torsions:
REMARK  status: ('A' for Active; 'I' for Inactive)
REMARK    1  A    between atoms: C_6  and  C_12
REMARK    2  A    between atoms: C_6  and  C_15
REMARK    3  A    between atoms: C_15  and  C_16
REMARK                            x       y       z     vdW  Elec       q    Type
REMARK                         _______ _______ _______ _____ _____    ______ ____
ROOT
ATOM      1  O   UNL     1      30.913  -8.176 -24.270  0.00  0.00    -0.274 OA
ATOM      2  O   UNL     1      33.001  -7.464 -20.125  0.00  0.00    -0.274 OA
ATOM      3  O   UNL     1      30.089  -4.365 -21.850  0.00  0.00    -0.252 OA
ATOM      4  N   UNL     1      30.579  -6.228 -23.105  0.00  0.00    -0.239 N 
ATOM      5  N   UNL     1      31.622  -5.873 -21.034  0.00  0.00    -0.239 N 
ATOM      6  C   UNL     1      32.469  -7.664 -22.481  0.00  0.00    +0.142 C 
ATOM      7  C   UNL     1      31.247  -7.417 -23.360  0.00  0.00    +0.237 C 
ATOM      8  C   UNL     1      32.386  -7.028 -21.097  0.00  0.00    +0.237 C 
ATOM      9  C   UNL     1      30.731  -5.407 -21.994  0.00  0.00    +0.312 C 
ATOM     10  H   UNL     1      29.928  -5.935 -23.783  0.00  0.00    +0.159 HD
ATOM     11  H   UNL     1      31.722  -5.323 -20.223  0.00  0.00    +0.159 HD
ENDROOT
BRANCH   6  12
ATOM     12  C   UNL     1      33.673  -7.027 -23.198  0.00  0.00    +0.017 C 
ATOM     13  C   UNL     1      34.733  -8.083 -23.490  0.00  0.00    +0.001 C 
ATOM     14  C   UNL     1      33.223  -6.340 -24.481  0.00  0.00    +0.001 C 
ENDBRANCH   6  12
BRANCH   6  15
ATOM     15  C   UNL     1      32.703  -9.174 -22.340  0.00  0.00    +0.043 C 
BRANCH  15  16
ATOM     16  C   UNL     1      31.589  -9.814 -21.581  0.00  0.00    -0.025 C 
ATOM     17  C   UNL     1      31.182 -11.073 -21.781  0.00  0.00    -0.005 C 
ENDBRANCH  15  16
ENDBRANCH   6  15
TORSDOF 3
ENDMDL
MODEL 5
REMARK VINA RESULT:      -6.6     17.197     19.153
REMARK  Name = 6464
REMARK  3 active torsions:
REMARK  status: ('A' for Active; 'I' for Inactive)
REMARK    1  A    between atoms: C_6  and  C_12
REMARK    2  A    between atoms: C_6  and  C_15
REMARK    3  A    between atoms: C_15  and  C_16
REMARK                            x       y       z     vdW  Elec       q    Type
REMARK                         _______ _______ _______ _____ _____    ______ ____
ROOT
ATOM      1  O   UNL     1      33.032  -7.554 -19.958  0.00  0.00    -0.274 OA
ATOM      2  O   UNL     1      31.093  -8.148 -24.194  0.00  0.00    -0.274 OA
ATOM      3  O   UNL     1      30.892 -11.469 -21.033  0.00  0.00    -0.252 OA
ATOM      4  N   UNL     1      32.048  -9.546 -20.532  0.00  0.00    -0.239 N 
ATOM      5  N   UNL     1      31.080  -9.842 -22.647  0.00  0.00    -0.239 N 
ATOM      6  C   UNL     1      32.611  -7.954 -22.313  0.00  0.00    +0.142 C 
ATOM      7  C   UNL     1      32.573  -8.296 -20.827  0.00  0.00    +0.237 C 
ATOM      8  C   UNL     1      31.514  -8.620 -23.138  0.00  0.00    +0.237 C 
ATOM      9  C   UNL     1      31.324 -10.370 -21.385  0.00  0.00    +0.312 C 
ATOM     10  H   UNL     1      32.205  -9.884 -19.621  0.00  0.00    +0.159 HD
ATOM     11  H   UNL     1      30.541 -10.395 -23.258  0.00  0.00    +0.159 HD
ENDROOT
BRANCH   6  12
ATOM     12  C   UNL     1      33.957  -8.464 -22.857  0.00  0.00    +0.017 C 
ATOM     13  C   UNL     1      33.733  -9.633 -23.810  0.00  0.00    +0.001 C 
ATOM     14  C   UNL     1      34.709  -7.335 -23.550  0.00  0.00    +0.001 C 
ENDBRANCH   6  12
BRANCH   6  15
ATOM     15  C   UNL     1      32.535  -6.431 -22.491  0.00  0.00    +0.043 C 
BRANCH  15  16
ATOM     16  C   UNL     1      31.267  -5.893 -21.916  0.00  0.00    -0.025 C 
ATOM     17  C   UNL     1      30.669  -4.778 -22.352  0.00  0.00    -0.005 C 
ENDBRANCH  15  16
ENDBRANCH   6  15
TORSDOF 3
ENDMDL
MODEL 6
REMARK VINA RESULT:      -6.6      1.937      2.199
REMARK  Name = 6464
REMARK  3 active torsions:
REMARK  status: ('A' for Active; 'I' for Inactive)
REMARK    1  A    between atoms: C_6  and  C_12
REMARK    2  A    between atoms: C_6  and  C_15
REMARK    3  A    between atoms: C_15  and  C_16
REMARK                            x       y       z     vdW  Elec       q    Type
REMARK                         _______ _______ _______ _____ _____    ______ ____
ROOT
ATOM      1  O   UNL     1      37.900 -23.220 -14.896  0.00  0.00    -0.274 OA
ATOM      2  O   UNL     1      33.935 -24.794 -12.934  0.00  0.00    -0.274 OA
ATOM      3  O   UNL     1      37.132 -22.688 -10.404  0.00  0.00    -0.252 OA
ATOM      4  N   UNL     1      37.557 -23.043 -12.635  0.00  0.00    -0.239 N 
ATOM      5  N   UNL     1      35.576 -23.830 -11.655  0.00  0.00    -0.239 N 
ATOM      6  C   UNL     1      36.136 -24.572 -13.925  0.00  0.00    +0.142 C 
ATOM      7  C   UNL     1      37.259 -23.540 -13.895  0.00  0.00    +0.237 C 
ATOM      8  C   UNL     1      35.095 -24.399 -12.824  0.00  0.00    +0.237 C 
ATOM      9  C   UNL     1      36.787 -23.168 -11.484  0.00  0.00    +0.312 C 
ATOM     10  H   UNL     1      38.404 -22.549 -12.546  0.00  0.00    +0.159 HD
ATOM     11  H   UNL     1      35.000 -23.902 -10.860  0.00  0.00    +0.159 HD
ENDROOT
BRANCH   6  12
ATOM     12  C   UNL     1      36.787 -25.951 -13.717  0.00  0.00    +0.017 C 
ATOM     13  C   UNL     1      36.722 -26.766 -15.004  0.00  0.00    +0.001 C 
ATOM     14  C   UNL     1      38.228 -25.791 -13.249  0.00  0.00    +0.001 C 
ENDBRANCH   6  12
BRANCH   6  15
ATOM     15  C   UNL     1      35.445 -24.539 -15.295  0.00  0.00    +0.043 C 
BRANCH  15  16
ATOM     16  C   UNL     1      34.633 -23.296 -15.449  0.00  0.00    -0.025 C 
ATOM     17  C   UNL     1      33.468 -23.247 -16.104  0.00  0.00    -0.005 C 
ENDBRANCH  15  16
ENDBRANCH   6  15
TORSDOF 3
ENDMDL
MODEL 7
REMARK VINA RESULT:      -6.5      2.571      3.992
REMARK  Name = 6464
REMARK  3 active torsions:
REMARK  status: ('A' for Active; 'I' for Inactive)
REMARK    1  A    between atoms: C_6  and  C_12
REMARK    2  A    between atoms: C_6  and  C_15
REMARK    3  A    between atoms: C_15  and  C_16
REMARK                            x       y       z     vdW  Elec       q    Type
REMARK                         _______ _______ _______ _____ _____    ______ ____
ROOT
ATOM      1  O   UNL     1      37.752 -22.643 -15.137  0.00  0.00    -0.274 OA
ATOM      2  O   UNL     1      37.113 -26.467 -12.488  0.00  0.00    -0.274 OA
ATOM      3  O   UNL     1      40.691 -26.161 -15.345  0.00  0.00    -0.252 OA
ATOM      4  N   UNL     1      39.164 -24.443 -15.311  0.00  0.00    -0.239 N 
ATOM      5  N   UNL     1      38.844 -26.353 -13.988  0.00  0.00    -0.239 N 
ATOM      6  C   UNL     1      37.001 -24.747 -14.193  0.00  0.00    +0.142 C 
ATOM      7  C   UNL     1      37.994 -23.826 -14.895  0.00  0.00    +0.237 C 
ATOM      8  C   UNL     1      37.645 -25.913 -13.449  0.00  0.00    +0.237 C 
ATOM      9  C   UNL     1      39.632 -25.693 -14.924  0.00  0.00    +0.312 C 
ATOM     10  H   UNL     1      39.722 -23.942 -15.949  0.00  0.00    +0.159 HD
ATOM     11  H   UNL     1      39.174 -27.227 -13.675  0.00  0.00    +0.159 HD
ENDROOT
BRANCH   6  12
ATOM     12  C   UNL     1      36.099 -25.351 -15.283  0.00  0.00    +0.017 C 
ATOM     13  C   UNL     1      36.278 -26.863 -15.340  0.00  0.00    +0.001 C 
ATOM     14  C   UNL     1      34.642 -24.986 -15.026  0.00  0.00    +0.001 C 
ENDBRANCH   6  12
BRANCH   6  15
ATOM     15  C   UNL     1      36.142 -23.928 -13.219  0.00  0.00    +0.043 C 
BRANCH  15  16
ATOM     16  C   UNL     1      36.850 -23.738 -11.919  0.00  0.00    -0.025 C 
ATOM     17  C   UNL     1      37.560 -22.645 -11.613  0.00  0.00    -0.005 C 
ENDBRANCH  15  16
ENDBRANCH   6  15
TORSDOF 3
ENDMDL
MODEL 8
REMARK VINA RESULT:      -6.5      2.275      3.793
REMARK  Name = 6464
REMARK  3 active torsions:
REMARK  status: ('A' for Active; 'I' for Inactive)
REMARK    1  A    between atoms: C_6  and  C_12
REMARK    2  A    between atoms: C_6  and  C_15
REMARK    3  A    between atoms: C_15  and  C_16
REMARK                            x       y       z     vdW  Elec       q    Type
REMARK                         _______ _______ _______ _____ _____    ______ ____
ROOT
ATOM      1  O   UNL     1      34.386 -24.389 -14.653  0.00  0.00    -0.274 OA
ATOM      2  O   UNL     1      39.069 -24.101 -14.832  0.00  0.00    -0.274 OA
ATOM      3  O   UNL     1      36.908 -27.974 -16.012  0.00  0.00    -0.252 OA
ATOM      4  N   UNL     1      35.654 -26.210 -15.237  0.00  0.00    -0.239 N 
ATOM      5  N   UNL     1      37.993 -26.065 -15.327  0.00  0.00    -0.239 N 
ATOM      6  C   UNL     1      36.755 -24.310 -14.141  0.00  0.00    +0.142 C 
ATOM      7  C   UNL     1      35.486 -24.937 -14.712  0.00  0.00    +0.237 C 
ATOM      8  C   UNL     1      38.043 -24.780 -14.810  0.00  0.00    +0.237 C 
ATOM      9  C   UNL     1      36.856 -26.836 -15.542  0.00  0.00    +0.312 C 
ATOM     10  H   UNL     1      34.833 -26.724 -15.413  0.00  0.00    +0.159 HD
ATOM     11  H   UNL     1      38.854 -26.477 -15.566  0.00  0.00    +0.159 HD
ENDROOT
BRANCH   6  12
ATOM     12  C   UNL     1      36.836 -24.729 -12.662  0.00  0.00    +0.017 C 
ATOM     13  C   UNL     1      38.033 -24.066 -11.991  0.00  0.00    +0.001 C 
ATOM     14  C   UNL     1      35.543 -24.375 -11.939  0.00  0.00    +0.001 C 
ENDBRANCH   6  12
BRANCH   6  15
ATOM     15  C   UNL     1      36.657 -22.781 -14.230  0.00  0.00    +0.043 C 
BRANCH  15  16
ATOM     16  C   UNL     1      36.321 -22.352 -15.620  0.00  0.00    -0.025 C 
ATOM     17  C   UNL     1      37.166 -21.686 -16.415  0.00  0.00    -0.005 C 
ENDBRANCH  15  16
ENDBRANCH   6  15
TORSDOF 3
ENDMDL
MODEL 9
REMARK VINA RESULT:      -6.4      2.504      4.036
REMARK  Name = 6464
REMARK  3 active torsions:
REMARK  status: ('A' for Active; 'I' for Inactive)
REMARK    1  A    between atoms: C_6  and  C_12
REMARK    2  A    between atoms: C_6  and  C_15
REMARK    3  A    between atoms: C_15  and  C_16
REMARK                            x       y       z     vdW  Elec       q    Type
REMARK                         _______ _______ _______ _____ _____    ______ ____
ROOT
ATOM      1  O   UNL     1      36.713 -27.142 -13.459  0.00  0.00    -0.274 OA
ATOM      2  O   UNL     1      37.548 -22.801 -15.043  0.00  0.00    -0.274 OA
ATOM      3  O   UNL     1      40.792 -26.040 -15.248  0.00  0.00    -0.252 OA
ATOM      4  N   UNL     1      38.782 -26.561 -14.263  0.00  0.00    -0.239 N 
ATOM      5  N   UNL     1      39.199 -24.393 -15.054  0.00  0.00    -0.239 N 
ATOM      6  C   UNL     1      37.201 -24.777 -13.682  0.00  0.00    +0.142 C 
ATOM      7  C   UNL     1      37.507 -26.266 -13.804  0.00  0.00    +0.237 C 
ATOM      8  C   UNL     1      37.963 -23.897 -14.668  0.00  0.00    +0.237 C 
ATOM      9  C   UNL     1      39.676 -25.685 -14.866  0.00  0.00    +0.312 C 
ATOM     10  H   UNL     1      39.086 -27.491 -14.150  0.00  0.00    +0.159 HD
ATOM     11  H   UNL     1      39.803 -23.763 -15.509  0.00  0.00    +0.159 HD
ENDROOT
BRANCH   6  12
ATOM     12  C   UNL     1      37.631 -24.344 -12.268  0.00  0.00    +0.017 C 
ATOM     13  C   UNL     1      37.846 -22.836 -12.220  0.00  0.00    +0.001 C 
ATOM     14  C   UNL     1      36.590 -24.778 -11.243  0.00  0.00    +0.001 C 
ENDBRANCH   6  12
BRANCH   6  15
ATOM     15  C   UNL     1      35.693 -24.547 -13.846  0.00  0.00    +0.043 C 
BRANCH  15  16
ATOM     16  C   UNL     1      35.291 -24.674 -15.278  0.00  0.00    -0.025 C 
ATOM     17  C   UNL     1      34.404 -23.869 -15.874  0.00  0.00    -0.005 C 
ENDBRANCH  15  16
ENDBRANCH   6  15
TORSDOF 3
ENDMDL
