MODEL 1
REMARK VINA RESULT:      -5.8      0.000      0.000
REMARK  Name = 5478865
REMARK  6 active torsions:
REMARK  status: ('A' for Active; 'I' for Inactive)
REMARK    1  A    between atoms: C_1  and  C_2
REMARK    2  A    between atoms: C_1  and  C_8
REMARK    3  A    between atoms: C_2  and  N_5
REMARK    4  A    between atoms: C_8  and  C_9
REMARK    5  A    between atoms: C_9  and  C_10
REMARK    6  A    between atoms: C_10  and  C_11
REMARK                            x       y       z     vdW  Elec       q    Type
REMARK                         _______ _______ _______ _____ _____    ______ ____
ROOT
ATOM      1  C   UNL     1      35.578 -18.632 -22.627  0.00  0.00    +0.020 C 
ENDROOT
BRANCH   1   2
ATOM      2  C   UNL     1      34.780 -17.331 -22.804  0.00  0.00    +0.072 C 
ATOM      3  C   UNL     1      34.840 -16.483 -21.538  0.00  0.00    +0.021 C 
BRANCH   2   5
ATOM      4  O   UNL     1      33.945 -17.511 -25.610  0.00  0.00    -0.265 OA
ATOM      5  N   UNL     1      35.265 -16.565 -23.928  0.00  0.00    -0.299 N 
ATOM      6  C   UNL     1      34.800 -16.730 -25.213  0.00  0.00    +0.299 C 
ATOM      7  H   UNL     1      35.962 -15.889 -23.766  0.00  0.00    +0.150 HD
ENDBRANCH   2   5
ENDBRANCH   1   2
BRANCH   1   8
ATOM      8  C   UNL     1      35.998 -18.872 -21.171  0.00  0.00    +0.002 C 
BRANCH   8   9
ATOM      9  C   UNL     1      35.329 -20.127 -20.604  0.00  0.00    +0.000 C 
BRANCH   9  10
ATOM     10  C   UNL     1      33.798 -20.061 -20.621  0.00  0.00    +0.000 C 
BRANCH  10  11
ATOM     11  C   UNL     1      33.135 -21.053 -19.665  0.00  0.00    +0.000 C 
ATOM     12  C   UNL     1      34.124 -22.099 -19.177  0.00  0.00    +0.000 C 
ENDBRANCH  10  11
ENDBRANCH   9  10
ENDBRANCH   8   9
ENDBRANCH   1   8
TORSDOF 6
ENDMDL
MODEL 2
REMARK VINA RESULT:      -5.7      0.946      1.338
REMARK  Name = 5478865
REMARK  6 active torsions:
REMARK  status: ('A' for Active; 'I' for Inactive)
REMARK    1  A    between atoms: C_1  and  C_2
REMARK    2  A    between atoms: C_1  and  C_8
REMARK    3  A    between atoms: C_2  and  N_5
REMARK    4  A    between atoms: C_8  and  C_9
REMARK    5  A    between atoms: C_9  and  C_10
REMARK    6  A    between atoms: C_10  and  C_11
REMARK                            x       y       z     vdW  Elec       q    Type
REMARK                         _______ _______ _______ _____ _____    ______ ____
ROOT
ATOM      1  C   UNL     1      34.588 -19.057 -22.544  0.00  0.00    +0.020 C 
ENDROOT
BRANCH   1   2
ATOM      2  C   UNL     1      34.520 -17.544 -22.795  0.00  0.00    +0.072 C 
ATOM      3  C   UNL     1      34.953 -16.769 -21.555  0.00  0.00    +0.021 C 
BRANCH   2   5
ATOM      4  O   UNL     1      33.773 -17.459 -25.631  0.00  0.00    -0.265 OA
ATOM      5  N   UNL     1      35.339 -17.159 -23.920  0.00  0.00    -0.299 N 
ATOM      6  C   UNL     1      34.885 -17.155 -25.220  0.00  0.00    +0.299 C 
ATOM      7  H   UNL     1      36.269 -16.885 -23.748  0.00  0.00    +0.150 HD
ENDBRANCH   2   5
ENDBRANCH   1   2
BRANCH   1   8
ATOM      8  C   UNL     1      34.677 -19.404 -21.052  0.00  0.00    +0.002 C 
BRANCH   8   9
ATOM      9  C   UNL     1      33.482 -20.253 -20.611  0.00  0.00    +0.000 C 
BRANCH   9  10
ATOM     10  C   UNL     1      33.842 -21.320 -19.573  0.00  0.00    +0.000 C 
BRANCH  10  11
ATOM     11  C   UNL     1      35.253 -21.884 -19.744  0.00  0.00    +0.000 C 
ATOM     12  C   UNL     1      36.063 -21.751 -18.465  0.00  0.00    +0.000 C 
ENDBRANCH  10  11
ENDBRANCH   9  10
ENDBRANCH   8   9
ENDBRANCH   1   8
TORSDOF 6
ENDMDL
MODEL 3
REMARK VINA RESULT:      -5.6      1.615      2.619
REMARK  Name = 5478865
REMARK  6 active torsions:
REMARK  status: ('A' for Active; 'I' for Inactive)
REMARK    1  A    between atoms: C_1  and  C_2
REMARK    2  A    between atoms: C_1  and  C_8
REMARK    3  A    between atoms: C_2  and  N_5
REMARK    4  A    between atoms: C_8  and  C_9
REMARK    5  A    between atoms: C_9  and  C_10
REMARK    6  A    between atoms: C_10  and  C_11
REMARK                            x       y       z     vdW  Elec       q    Type
REMARK                         _______ _______ _______ _____ _____    ______ ____
ROOT
ATOM      1  C   UNL     1      35.307 -16.359 -23.292  0.00  0.00    +0.020 C 
ENDROOT
BRANCH   1   2
ATOM      2  C   UNL     1      34.671 -16.372 -24.690  0.00  0.00    +0.072 C 
ATOM      3  C   UNL     1      34.304 -17.792 -25.104  0.00  0.00    +0.021 C 
BRANCH   2   5
ATOM      4  O   UNL     1      33.593 -14.917 -26.998  0.00  0.00    -0.265 OA
ATOM      5  N   UNL     1      33.499 -15.530 -24.743  0.00  0.00    -0.299 N 
ATOM      6  C   UNL     1      33.079 -14.890 -25.888  0.00  0.00    +0.299 C 
ATOM      7  H   UNL     1      32.973 -15.409 -23.920  0.00  0.00    +0.150 HD
ENDBRANCH   2   5
ENDBRANCH   1   2
BRANCH   1   8
ATOM      8  C   UNL     1      34.277 -16.577 -22.175  0.00  0.00    +0.002 C 
BRANCH   8   9
ATOM      9  C   UNL     1      34.786 -17.592 -21.148  0.00  0.00    +0.000 C 
BRANCH   9  10
ATOM     10  C   UNL     1      34.811 -19.030 -21.674  0.00  0.00    +0.000 C 
BRANCH  10  11
ATOM     11  C   UNL     1      34.387 -20.067 -20.633  0.00  0.00    +0.000 C 
ATOM     12  C   UNL     1      32.875 -20.114 -20.481  0.00  0.00    +0.000 C 
ENDBRANCH  10  11
ENDBRANCH   9  10
ENDBRANCH   8   9
ENDBRANCH   1   8
TORSDOF 6
ENDMDL
MODEL 4
REMARK VINA RESULT:      -5.5      2.696      4.808
REMARK  Name = 5478865
REMARK  6 active torsions:
REMARK  status: ('A' for Active; 'I' for Inactive)
REMARK    1  A    between atoms: C_1  and  C_2
REMARK    2  A    between atoms: C_1  and  C_8
REMARK    3  A    between atoms: C_2  and  N_5
REMARK    4  A    between atoms: C_8  and  C_9
REMARK    5  A    between atoms: C_9  and  C_10
REMARK    6  A    between atoms: C_10  and  C_11
REMARK                            x       y       z     vdW  Elec       q    Type
REMARK                         _______ _______ _______ _____ _____    ______ ____
ROOT
ATOM      1  C   UNL     1      34.702 -19.221 -23.222  0.00  0.00    +0.020 C 
ENDROOT
BRANCH   1   2
ATOM      2  C   UNL     1      34.784 -19.620 -21.741  0.00  0.00    +0.072 C 
ATOM      3  C   UNL     1      36.025 -19.022 -21.087  0.00  0.00    +0.021 C 
BRANCH   2   5
ATOM      4  O   UNL     1      32.920 -21.292 -20.213  0.00  0.00    -0.265 OA
ATOM      5  N   UNL     1      33.605 -19.206 -21.018  0.00  0.00    -0.299 N 
ATOM      6  C   UNL     1      32.794 -20.079 -20.329  0.00  0.00    +0.299 C 
ATOM      7  H   UNL     1      33.369 -18.250 -21.018  0.00  0.00    +0.150 HD
ENDBRANCH   2   5
ENDBRANCH   1   2
BRANCH   1   8
ATOM      8  C   UNL     1      35.574 -18.002 -23.553  0.00  0.00    +0.002 C 
BRANCH   8   9
ATOM      9  C   UNL     1      34.728 -16.852 -24.104  0.00  0.00    +0.000 C 
BRANCH   9  10
ATOM     10  C   UNL     1      34.748 -15.602 -23.220  0.00  0.00    +0.000 C 
BRANCH  10  11
ATOM     11  C   UNL     1      33.794 -15.683 -22.028  0.00  0.00    +0.000 C 
ATOM     12  C   UNL     1      34.549 -15.640 -20.709  0.00  0.00    +0.000 C 
ENDBRANCH  10  11
ENDBRANCH   9  10
ENDBRANCH   8   9
ENDBRANCH   1   8
TORSDOF 6
ENDMDL
MODEL 5
REMARK VINA RESULT:      -5.5      3.085      4.946
REMARK  Name = 5478865
REMARK  6 active torsions:
REMARK  status: ('A' for Active; 'I' for Inactive)
REMARK    1  A    between atoms: C_1  and  C_2
REMARK    2  A    between atoms: C_1  and  C_8
REMARK    3  A    between atoms: C_2  and  N_5
REMARK    4  A    between atoms: C_8  and  C_9
REMARK    5  A    between atoms: C_9  and  C_10
REMARK    6  A    between atoms: C_10  and  C_11
REMARK                            x       y       z     vdW  Elec       q    Type
REMARK                         _______ _______ _______ _____ _____    ______ ____
ROOT
ATOM      1  C   UNL     1      34.449 -19.089 -22.244  0.00  0.00    +0.020 C 
ENDROOT
BRANCH   1   2
ATOM      2  C   UNL     1      34.222 -19.620 -20.821  0.00  0.00    +0.072 C 
ATOM      3  C   UNL     1      32.754 -19.968 -20.600  0.00  0.00    +0.021 C 
BRANCH   2   5
ATOM      4  O   UNL     1      36.932 -19.698 -19.699  0.00  0.00    -0.265 OA
ATOM      5  N   UNL     1      35.043 -20.779 -20.554  0.00  0.00    -0.299 N 
ATOM      6  C   UNL     1      36.310 -20.702 -20.021  0.00  0.00    +0.299 C 
ATOM      7  H   UNL     1      34.676 -21.668 -20.763  0.00  0.00    +0.150 HD
ENDBRANCH   2   5
ENDBRANCH   1   2
BRANCH   1   8
ATOM      8  C   UNL     1      35.186 -17.744 -22.260  0.00  0.00    +0.002 C 
BRANCH   8   9
ATOM      9  C   UNL     1      34.905 -16.946 -20.985  0.00  0.00    +0.000 C 
BRANCH   9  10
ATOM     10  C   UNL     1      34.679 -15.452 -21.238  0.00  0.00    +0.000 C 
BRANCH  10  11
ATOM     11  C   UNL     1      33.372 -14.925 -20.644  0.00  0.00    +0.000 C 
ATOM     12  C   UNL     1      32.276 -15.977 -20.692  0.00  0.00    +0.000 C 
ENDBRANCH  10  11
ENDBRANCH   9  10
ENDBRANCH   8   9
ENDBRANCH   1   8
TORSDOF 6
ENDMDL
MODEL 6
REMARK VINA RESULT:      -5.5      3.514      5.704
REMARK  Name = 5478865
REMARK  6 active torsions:
REMARK  status: ('A' for Active; 'I' for Inactive)
REMARK    1  A    between atoms: C_1  and  C_2
REMARK    2  A    between atoms: C_1  and  C_8
REMARK    3  A    between atoms: C_2  and  N_5
REMARK    4  A    between atoms: C_8  and  C_9
REMARK    5  A    between atoms: C_9  and  C_10
REMARK    6  A    between atoms: C_10  and  C_11
REMARK                            x       y       z     vdW  Elec       q    Type
REMARK                         _______ _______ _______ _____ _____    ______ ____
ROOT
ATOM      1  C   UNL     1      34.597 -19.616 -20.821  0.00  0.00    +0.020 C 
ENDROOT
BRANCH   1   2
ATOM      2  C   UNL     1      35.033 -21.011 -20.350  0.00  0.00    +0.072 C 
ATOM      3  C   UNL     1      36.522 -21.032 -20.022  0.00  0.00    +0.021 C 
BRANCH   2   5
ATOM      4  O   UNL     1      34.172 -23.730 -19.658  0.00  0.00    -0.265 OA
ATOM      5  N   UNL     1      34.274 -21.439 -19.198  0.00  0.00    -0.299 N 
ATOM      6  C   UNL     1      33.922 -22.750 -18.967  0.00  0.00    +0.299 C 
ATOM      7  H   UNL     1      33.997 -20.759 -18.543  0.00  0.00    +0.150 HD
ENDBRANCH   2   5
ENDBRANCH   1   2
BRANCH   1   8
ATOM      8  C   UNL     1      35.787 -18.721 -21.192  0.00  0.00    +0.002 C 
BRANCH   8   9
ATOM      9  C   UNL     1      35.775 -18.379 -22.683  0.00  0.00    +0.000 C 
BRANCH   9  10
ATOM     10  C   UNL     1      34.830 -19.262 -23.503  0.00  0.00    +0.000 C 
BRANCH  10  11
ATOM     11  C   UNL     1      34.466 -18.666 -24.864  0.00  0.00    +0.000 C 
ATOM     12  C   UNL     1      34.831 -17.193 -24.940  0.00  0.00    +0.000 C 
ENDBRANCH  10  11
ENDBRANCH   9  10
ENDBRANCH   8   9
ENDBRANCH   1   8
TORSDOF 6
ENDMDL
MODEL 7
REMARK VINA RESULT:      -5.5      2.054      2.409
REMARK  Name = 5478865
REMARK  6 active torsions:
REMARK  status: ('A' for Active; 'I' for Inactive)
REMARK    1  A    between atoms: C_1  and  C_2
REMARK    2  A    between atoms: C_1  and  C_8
REMARK    3  A    between atoms: C_2  and  N_5
REMARK    4  A    between atoms: C_8  and  C_9
REMARK    5  A    between atoms: C_9  and  C_10
REMARK    6  A    between atoms: C_10  and  C_11
REMARK                            x       y       z     vdW  Elec       q    Type
REMARK                         _______ _______ _______ _____ _____    ______ ____
ROOT
ATOM      1  C   UNL     1      34.957 -16.856 -21.939  0.00  0.00    +0.020 C 
ENDROOT
BRANCH   1   2
ATOM      2  C   UNL     1      33.909 -15.755 -22.161  0.00  0.00    +0.072 C 
ATOM      3  C   UNL     1      33.149 -15.463 -20.872  0.00  0.00    +0.021 C 
BRANCH   2   5
ATOM      4  O   UNL     1      32.779 -13.794 -24.028  0.00  0.00    -0.265 OA
ATOM      5  N   UNL     1      34.518 -14.541 -22.654  0.00  0.00    -0.299 N 
ATOM      6  C   UNL     1      33.894 -13.685 -23.534  0.00  0.00    +0.299 C 
ATOM      7  H   UNL     1      35.424 -14.314 -22.343  0.00  0.00    +0.150 HD
ENDBRANCH   2   5
ENDBRANCH   1   2
BRANCH   1   8
ATOM      8  C   UNL     1      34.939 -17.917 -23.047  0.00  0.00    +0.002 C 
BRANCH   8   9
ATOM      9  C   UNL     1      34.683 -19.312 -22.471  0.00  0.00    +0.000 C 
BRANCH   9  10
ATOM     10  C   UNL     1      34.361 -19.302 -20.973  0.00  0.00    +0.000 C 
BRANCH  10  11
ATOM     11  C   UNL     1      33.053 -20.015 -20.627  0.00  0.00    +0.000 C 
ATOM     12  C   UNL     1      33.288 -21.164 -19.659  0.00  0.00    +0.000 C 
ENDBRANCH  10  11
ENDBRANCH   9  10
ENDBRANCH   8   9
ENDBRANCH   1   8
TORSDOF 6
ENDMDL
MODEL 8
REMARK VINA RESULT:      -5.4      3.359      5.635
REMARK  Name = 5478865
REMARK  6 active torsions:
REMARK  status: ('A' for Active; 'I' for Inactive)
REMARK    1  A    between atoms: C_1  and  C_2
REMARK    2  A    between atoms: C_1  and  C_8
REMARK    3  A    between atoms: C_2  and  N_5
REMARK    4  A    between atoms: C_8  and  C_9
REMARK    5  A    between atoms: C_9  and  C_10
REMARK    6  A    between atoms: C_10  and  C_11
REMARK                            x       y       z     vdW  Elec       q    Type
REMARK                         _______ _______ _______ _____ _____    ______ ____
ROOT
ATOM      1  C   UNL     1      34.916 -19.771 -21.478  0.00  0.00    +0.020 C 
ENDROOT
BRANCH   1   2
ATOM      2  C   UNL     1      34.377 -20.295 -20.140  0.00  0.00    +0.072 C 
ATOM      3  C   UNL     1      32.859 -20.434 -20.184  0.00  0.00    +0.021 C 
BRANCH   2   5
ATOM      4  O   UNL     1      36.741 -20.788 -18.474  0.00  0.00    -0.265 OA
ATOM      5  N   UNL     1      34.972 -21.564 -19.793  0.00  0.00    -0.299 N 
ATOM      6  C   UNL     1      36.090 -21.684 -18.997  0.00  0.00    +0.299 C 
ATOM      7  H   UNL     1      34.557 -22.385 -20.141  0.00  0.00    +0.150 HD
ENDBRANCH   2   5
ENDBRANCH   1   2
BRANCH   1   8
ATOM      8  C   UNL     1      35.302 -18.286 -21.417  0.00  0.00    +0.002 C 
BRANCH   8   9
ATOM      9  C   UNL     1      35.424 -17.691 -22.822  0.00  0.00    +0.000 C 
BRANCH   9  10
ATOM     10  C   UNL     1      35.159 -18.705 -23.939  0.00  0.00    +0.000 C 
BRANCH  10  11
ATOM     11  C   UNL     1      34.382 -18.122 -25.120  0.00  0.00    +0.000 C 
ATOM     12  C   UNL     1      34.469 -16.604 -25.146  0.00  0.00    +0.000 C 
ENDBRANCH  10  11
ENDBRANCH   9  10
ENDBRANCH   8   9
ENDBRANCH   1   8
TORSDOF 6
ENDMDL
MODEL 9
REMARK VINA RESULT:      -5.4      1.901      2.656
REMARK  Name = 5478865
REMARK  6 active torsions:
REMARK  status: ('A' for Active; 'I' for Inactive)
REMARK    1  A    between atoms: C_1  and  C_2
REMARK    2  A    between atoms: C_1  and  C_8
REMARK    3  A    between atoms: C_2  and  N_5
REMARK    4  A    between atoms: C_8  and  C_9
REMARK    5  A    between atoms: C_9  and  C_10
REMARK    6  A    between atoms: C_10  and  C_11
REMARK                            x       y       z     vdW  Elec       q    Type
REMARK                         _______ _______ _______ _____ _____    ______ ____
ROOT
ATOM      1  C   UNL     1      34.932 -15.647 -23.293  0.00  0.00    +0.020 C 
ENDROOT
BRANCH   1   2
ATOM      2  C   UNL     1      33.476 -15.250 -23.575  0.00  0.00    +0.072 C 
ATOM      3  C   UNL     1      32.877 -14.505 -22.388  0.00  0.00    +0.021 C 
BRANCH   2   5
ATOM      4  O   UNL     1      33.319 -16.137 -26.368  0.00  0.00    -0.265 OA
ATOM      5  N   UNL     1      33.373 -14.436 -24.764  0.00  0.00    -0.299 N 
ATOM      6  C   UNL     1      33.304 -14.958 -26.036  0.00  0.00    +0.299 C 
ATOM      7  H   UNL     1      33.349 -13.457 -24.658  0.00  0.00    +0.150 HD
ENDBRANCH   2   5
ENDBRANCH   1   2
BRANCH   1   8
ATOM      8  C   UNL     1      35.050 -16.713 -22.195  0.00  0.00    +0.002 C 
BRANCH   8   9
ATOM      9  C   UNL     1      35.546 -18.042 -22.769  0.00  0.00    +0.000 C 
BRANCH   9  10
ATOM     10  C   UNL     1      34.587 -19.210 -22.516  0.00  0.00    +0.000 C 
BRANCH  10  11
ATOM     11  C   UNL     1      34.370 -19.510 -21.033  0.00  0.00    +0.000 C 
ATOM     12  C   UNL     1      32.938 -19.941 -20.758  0.00  0.00    +0.000 C 
ENDBRANCH  10  11
ENDBRANCH   9  10
ENDBRANCH   8   9
ENDBRANCH   1   8
TORSDOF 6
ENDMDL
