MODEL 1
REMARK VINA RESULT:     -10.2      0.000      0.000
REMARK  Name = 46937093
REMARK  4 active torsions:
REMARK  status: ('A' for Active; 'I' for Inactive)
REMARK    1  A    between atoms: N_2  and  C_25
REMARK    2  A    between atoms: C_3  and  N_13
REMARK    3  A    between atoms: C_14  and  C_19
REMARK    4  A    between atoms: C_25  and  C_28
REMARK                            x       y       z     vdW  Elec       q    Type
REMARK                         _______ _______ _______ _____ _____    ______ ____
ROOT
ATOM      1  O   UNL     1      32.770 -23.386 -16.638  0.00  0.00    -0.273 OA
ATOM      2  N   UNL     1      33.670 -24.021 -14.586  0.00  0.00    -0.249 N 
ATOM      3  C   UNL     1      35.141 -23.112 -16.350  0.00  0.00    +0.154 C 
ATOM      4  C   UNL     1      35.944 -22.425 -15.261  0.00  0.00    +0.057 C 
ATOM      5  C   UNL     1      35.939 -23.273 -14.023  0.00  0.00    -0.006 C 
ATOM      6  C   UNL     1      34.798 -24.027 -13.699  0.00  0.00    +0.050 C 
ATOM      7  C   UNL     1      33.738 -23.474 -15.879  0.00  0.00    +0.248 C 
ATOM      8  C   UNL     1      37.038 -23.242 -13.153  0.00  0.00    -0.003 C 
ATOM      9  C   UNL     1      34.791 -24.747 -12.493  0.00  0.00    +0.015 C 
ATOM     10  C   UNL     1      37.019 -23.972 -11.968  0.00  0.00    -0.000 C 
ATOM     11  C   UNL     1      35.896 -24.724 -11.638  0.00  0.00    +0.001 C 
ENDROOT
BRANCH   3  13
ATOM     12  O   UNL     1      37.306 -22.085 -18.003  0.00  0.00    -0.268 OA
ATOM     13  N   UNL     1      35.033 -22.270 -17.514  0.00  0.00    -0.293 N 
ATOM     14  C   UNL     1      36.130 -21.834 -18.235  0.00  0.00    +0.272 C 
ATOM     15  H   UNL     1      34.137 -21.994 -17.811  0.00  0.00    +0.150 HD
BRANCH  14  19
ATOM     16 CL   UNL     1      34.591 -19.015 -24.487  0.00  0.00    -0.098 Cl
ATOM     17  S   UNL     1      36.305 -18.407 -22.132  0.00  0.00    -0.062 S 
ATOM     18  N   UNL     1      36.674 -20.123 -19.982  0.00  0.00    -0.395 NA
ATOM     19  C   UNL     1      35.756 -20.987 -19.383  0.00  0.00    +0.167 C 
ATOM     20  C   UNL     1      34.594 -20.060 -20.974  0.00  0.00    +0.018 C 
ATOM     21  C   UNL     1      34.517 -21.000 -19.915  0.00  0.00    +0.093 C 
ATOM     22  C   UNL     1      35.966 -19.577 -20.928  0.00  0.00    +0.154 C 
ATOM     23  C   UNL     1      33.864 -19.508 -21.937  0.00  0.00    +0.000 C 
ATOM     24  C   UNL     1      34.581 -18.497 -22.791  0.00  0.00    +0.155 C 
ENDBRANCH  14  19
ENDBRANCH   3  13
BRANCH   2  25
ATOM     25  C   UNL     1      32.407 -24.593 -14.126  0.00  0.00    +0.183 C 
BRANCH  25  28
ATOM     26  O   UNL     1      31.631 -22.954 -12.520  0.00  0.00    -0.273 OA
ATOM     27  N   UNL     1      30.489 -23.196 -14.501  0.00  0.00    -0.327 N 
ATOM     28  C   UNL     1      31.504 -23.492 -13.617  0.00  0.00    +0.240 C 
ATOM     29  H   UNL     1      29.834 -22.495 -14.281  0.00  0.00    +0.145 HD
ATOM     30  H   UNL     1      30.420 -23.686 -15.352  0.00  0.00    +0.145 HD
ENDBRANCH  25  28
ENDBRANCH   2  25
TORSDOF 4
ENDMDL
MODEL 2
REMARK VINA RESULT:      -9.7      2.100      2.792
REMARK  Name = 46937093
REMARK  4 active torsions:
REMARK  status: ('A' for Active; 'I' for Inactive)
REMARK    1  A    between atoms: N_2  and  C_25
REMARK    2  A    between atoms: C_3  and  N_13
REMARK    3  A    between atoms: C_14  and  C_19
REMARK    4  A    between atoms: C_25  and  C_28
REMARK                            x       y       z     vdW  Elec       q    Type
REMARK                         _______ _______ _______ _____ _____    ______ ____
ROOT
ATOM      1  O   UNL     1      32.663 -22.129 -18.960  0.00  0.00    -0.273 OA
ATOM      2  N   UNL     1      33.563 -23.273 -17.142  0.00  0.00    -0.249 N 
ATOM      3  C   UNL     1      35.049 -22.030 -18.675  0.00  0.00    +0.154 C 
ATOM      4  C   UNL     1      35.898 -21.658 -17.474  0.00  0.00    +0.057 C 
ATOM      5  C   UNL     1      35.872 -22.777 -16.474  0.00  0.00    -0.006 C 
ATOM      6  C   UNL     1      34.702 -23.539 -16.311  0.00  0.00    +0.050 C 
ATOM      7  C   UNL     1      33.637 -22.436 -18.268  0.00  0.00    +0.248 C 
ATOM      8  C   UNL     1      36.984 -23.000 -15.649  0.00  0.00    -0.003 C 
ATOM      9  C   UNL     1      34.680 -24.525 -15.311  0.00  0.00    +0.015 C 
ATOM     10  C   UNL     1      36.949 -23.992 -14.673  0.00  0.00    -0.000 C 
ATOM     11  C   UNL     1      35.797 -24.753 -14.504  0.00  0.00    +0.001 C 
ENDROOT
BRANCH   3  13
ATOM     12  O   UNL     1      37.083 -21.131 -20.553  0.00  0.00    -0.268 OA
ATOM     13  N   UNL     1      34.963 -20.931 -19.601  0.00  0.00    -0.293 N 
ATOM     14  C   UNL     1      35.991 -20.582 -20.458  0.00  0.00    +0.272 C 
ATOM     15  H   UNL     1      34.133 -20.403 -19.627  0.00  0.00    +0.150 HD
BRANCH  14  19
ATOM     16 CL   UNL     1      33.094 -15.147 -23.844  0.00  0.00    -0.098 Cl
ATOM     17  S   UNL     1      34.578 -17.642 -24.498  0.00  0.00    -0.062 S 
ATOM     18  N   UNL     1      35.267 -19.585 -22.638  0.00  0.00    -0.395 NA
ATOM     19  C   UNL     1      35.657 -19.424 -21.307  0.00  0.00    +0.167 C 
ATOM     20  C   UNL     1      35.318 -17.379 -21.971  0.00  0.00    +0.018 C 
ATOM     21  C   UNL     1      35.708 -18.157 -20.851  0.00  0.00    +0.093 C 
ATOM     22  C   UNL     1      35.069 -18.357 -23.020  0.00  0.00    +0.154 C 
ATOM     23  C   UNL     1      35.118 -16.122 -22.352  0.00  0.00    +0.000 C 
ATOM     24  C   UNL     1      34.679 -15.942 -23.780  0.00  0.00    +0.155 C 
ENDBRANCH  14  19
ENDBRANCH   3  13
BRANCH   2  25
ATOM     25  C   UNL     1      32.282 -23.886 -16.799  0.00  0.00    +0.183 C 
BRANCH  25  28
ATOM     26  O   UNL     1      31.626 -22.566 -14.878  0.00  0.00    -0.273 OA
ATOM     27  N   UNL     1      30.367 -22.437 -16.797  0.00  0.00    -0.327 N 
ATOM     28  C   UNL     1      31.427 -22.894 -16.045  0.00  0.00    +0.240 C 
ATOM     29  H   UNL     1      29.737 -21.785 -16.414  0.00  0.00    +0.145 HD
ATOM     30  H   UNL     1      30.240 -22.763 -17.717  0.00  0.00    +0.145 HD
ENDBRANCH  25  28
ENDBRANCH   2  25
TORSDOF 4
ENDMDL
MODEL 3
REMARK VINA RESULT:      -9.3      6.520     11.352
REMARK  Name = 46937093
REMARK  4 active torsions:
REMARK  status: ('A' for Active; 'I' for Inactive)
REMARK    1  A    between atoms: N_2  and  C_25
REMARK    2  A    between atoms: C_3  and  N_13
REMARK    3  A    between atoms: C_14  and  C_19
REMARK    4  A    between atoms: C_25  and  C_28
REMARK                            x       y       z     vdW  Elec       q    Type
REMARK                         _______ _______ _______ _____ _____    ______ ____
ROOT
ATOM      1  O   UNL     1      31.946 -14.322 -20.185  0.00  0.00    -0.273 OA
ATOM      2  N   UNL     1      32.132 -12.540 -21.672  0.00  0.00    -0.249 N 
ATOM      3  C   UNL     1      33.788 -14.372 -21.729  0.00  0.00    +0.154 C 
ATOM      4  C   UNL     1      33.832 -14.221 -23.239  0.00  0.00    +0.057 C 
ATOM      5  C   UNL     1      33.624 -12.782 -23.606  0.00  0.00    -0.006 C 
ATOM      6  C   UNL     1      32.761 -11.983 -22.835  0.00  0.00    +0.050 C 
ATOM      7  C   UNL     1      32.514 -13.782 -21.137  0.00  0.00    +0.248 C 
ATOM      8  C   UNL     1      34.222 -12.264 -24.764  0.00  0.00    -0.003 C 
ATOM      9  C   UNL     1      32.521 -10.663 -23.250  0.00  0.00    +0.015 C 
ATOM     10  C   UNL     1      33.984 -10.949 -25.152  0.00  0.00    -0.000 C 
ATOM     11  C   UNL     1      33.134 -10.150 -24.396  0.00  0.00    +0.001 C 
ENDROOT
BRANCH   3  13
ATOM     12  O   UNL     1      35.663 -16.368 -22.715  0.00  0.00    -0.268 OA
ATOM     13  N   UNL     1      33.872 -15.759 -21.351  0.00  0.00    -0.293 N 
ATOM     14  C   UNL     1      34.806 -16.632 -21.880  0.00  0.00    +0.272 C 
ATOM     15  H   UNL     1      33.237 -16.102 -20.683  0.00  0.00    +0.150 HD
BRANCH  14  19
ATOM     16 CL   UNL     1      34.000 -22.430 -17.991  0.00  0.00    -0.098 Cl
ATOM     17  S   UNL     1      35.951 -21.308 -19.937  0.00  0.00    -0.062 S 
ATOM     18  N   UNL     1      35.816 -18.741 -20.984  0.00  0.00    -0.395 NA
ATOM     19  C   UNL     1      34.688 -17.994 -21.330  0.00  0.00    +0.167 C 
ATOM     20  C   UNL     1      33.838 -19.860 -20.600  0.00  0.00    +0.018 C 
ATOM     21  C   UNL     1      33.496 -18.591 -21.130  0.00  0.00    +0.093 C 
ATOM     22  C   UNL     1      35.292 -19.851 -20.551  0.00  0.00    +0.154 C 
ATOM     23  C   UNL     1      33.295 -20.991 -20.160  0.00  0.00    +0.000 C 
ATOM     24  C   UNL     1      34.271 -22.040 -19.700  0.00  0.00    +0.155 C 
ENDBRANCH  14  19
ENDBRANCH   3  13
BRANCH   2  25
ATOM     25  C   UNL     1      31.051 -11.795 -21.030  0.00  0.00    +0.183 C 
BRANCH  25  28
ATOM     26  O   UNL     1      31.630 -11.427 -18.707  0.00  0.00    -0.273 OA
ATOM     27  N   UNL     1      32.011  -9.745 -20.227  0.00  0.00    -0.327 N 
ATOM     28  C   UNL     1      31.599 -11.008 -19.861  0.00  0.00    +0.240 C 
ATOM     29  H   UNL     1      32.387  -9.135 -19.553  0.00  0.00    +0.145 HD
ATOM     30  H   UNL     1      31.929  -9.453 -21.164  0.00  0.00    +0.145 HD
ENDBRANCH  25  28
ENDBRANCH   2  25
TORSDOF 4
ENDMDL
MODEL 4
REMARK VINA RESULT:      -9.2      5.704     11.228
REMARK  Name = 46937093
REMARK  4 active torsions:
REMARK  status: ('A' for Active; 'I' for Inactive)
REMARK    1  A    between atoms: N_2  and  C_25
REMARK    2  A    between atoms: C_3  and  N_13
REMARK    3  A    between atoms: C_14  and  C_19
REMARK    4  A    between atoms: C_25  and  C_28
REMARK                            x       y       z     vdW  Elec       q    Type
REMARK                         _______ _______ _______ _____ _____    ______ ____
ROOT
ATOM      1  O   UNL     1      33.966 -14.819 -20.973  0.00  0.00    -0.273 OA
ATOM      2  N   UNL     1      33.700 -13.539 -22.901  0.00  0.00    -0.249 N 
ATOM      3  C   UNL     1      34.389 -15.905 -23.076  0.00  0.00    +0.154 C 
ATOM      4  C   UNL     1      33.550 -16.006 -24.337  0.00  0.00    +0.057 C 
ATOM      5  C   UNL     1      33.574 -14.694 -25.063  0.00  0.00    -0.006 C 
ATOM      6  C   UNL     1      33.620 -13.493 -24.332  0.00  0.00    +0.050 C 
ATOM      7  C   UNL     1      33.963 -14.730 -22.203  0.00  0.00    +0.248 C 
ATOM      8  C   UNL     1      33.463 -14.668 -26.460  0.00  0.00    -0.003 C 
ATOM      9  C   UNL     1      33.559 -12.278 -25.036  0.00  0.00    +0.015 C 
ATOM     10  C   UNL     1      33.417 -13.455 -27.142  0.00  0.00    -0.000 C 
ATOM     11  C   UNL     1      33.464 -12.261 -26.429  0.00  0.00    +0.001 C 
ENDROOT
BRANCH   3  13
ATOM     12  O   UNL     1      36.516 -17.802 -22.483  0.00  0.00    -0.268 OA
ATOM     13  N   UNL     1      34.295 -17.114 -22.300  0.00  0.00    -0.293 N 
ATOM     14  C   UNL     1      35.370 -17.953 -22.074  0.00  0.00    +0.272 C 
ATOM     15  H   UNL     1      33.423 -17.354 -21.911  0.00  0.00    +0.150 HD
BRANCH  14  19
ATOM     16 CL   UNL     1      33.204 -22.521 -17.191  0.00  0.00    -0.098 Cl
ATOM     17  S   UNL     1      35.644 -21.977 -18.804  0.00  0.00    -0.062 S 
ATOM     18  N   UNL     1      35.967 -19.771 -20.458  0.00  0.00    -0.395 NA
ATOM     19  C   UNL     1      35.017 -19.123 -21.249  0.00  0.00    +0.167 C 
ATOM     20  C   UNL     1      33.871 -20.720 -20.313  0.00  0.00    +0.018 C 
ATOM     21  C   UNL     1      33.768 -19.627 -21.211  0.00  0.00    +0.093 C 
ATOM     22  C   UNL     1      35.269 -20.721 -19.907  0.00  0.00    +0.154 C 
ATOM     23  C   UNL     1      33.151 -21.687 -19.756  0.00  0.00    +0.000 C 
ATOM     24  C   UNL     1      33.903 -22.595 -18.820  0.00  0.00    +0.155 C 
ENDBRANCH  14  19
ENDBRANCH   3  13
BRANCH   2  25
ATOM     25  C   UNL     1      33.492 -12.307 -22.143  0.00  0.00    +0.183 C 
BRANCH  25  28
ATOM     26  O   UNL     1      31.131 -11.832 -22.393  0.00  0.00    -0.273 OA
ATOM     27  N   UNL     1      31.901 -12.597 -20.367  0.00  0.00    -0.327 N 
ATOM     28  C   UNL     1      32.053 -12.227 -21.686  0.00  0.00    +0.240 C 
ATOM     29  H   UNL     1      31.008 -12.586 -19.953  0.00  0.00    +0.145 HD
ATOM     30  H   UNL     1      32.685 -12.873 -19.839  0.00  0.00    +0.145 HD
ENDBRANCH  25  28
ENDBRANCH   2  25
TORSDOF 4
ENDMDL
MODEL 5
REMARK VINA RESULT:      -9.1      1.855      2.064
REMARK  Name = 46937093
REMARK  4 active torsions:
REMARK  status: ('A' for Active; 'I' for Inactive)
REMARK    1  A    between atoms: N_2  and  C_25
REMARK    2  A    between atoms: C_3  and  N_13
REMARK    3  A    between atoms: C_14  and  C_19
REMARK    4  A    between atoms: C_25  and  C_28
REMARK                            x       y       z     vdW  Elec       q    Type
REMARK                         _______ _______ _______ _____ _____    ______ ____
ROOT
ATOM      1  O   UNL     1      33.532 -22.567 -15.505  0.00  0.00    -0.273 OA
ATOM      2  N   UNL     1      34.790 -23.842 -14.017  0.00  0.00    -0.249 N 
ATOM      3  C   UNL     1      35.639 -23.413 -16.296  0.00  0.00    +0.154 C 
ATOM      4  C   UNL     1      37.036 -23.328 -15.709  0.00  0.00    +0.057 C 
ATOM      5  C   UNL     1      37.149 -24.267 -14.545  0.00  0.00    -0.006 C 
ATOM      6  C   UNL     1      36.038 -24.482 -13.711  0.00  0.00    +0.050 C 
ATOM      7  C   UNL     1      34.564 -23.189 -15.240  0.00  0.00    +0.248 C 
ATOM      8  C   UNL     1      38.385 -24.858 -14.244  0.00  0.00    -0.003 C 
ATOM      9  C   UNL     1      36.197 -25.302 -12.582  0.00  0.00    +0.015 C 
ATOM     10  C   UNL     1      38.520 -25.679 -13.128  0.00  0.00    -0.000 C 
ATOM     11  C   UNL     1      37.427 -25.900 -12.298  0.00  0.00    +0.001 C 
ENDROOT
BRANCH   3  13
ATOM     12  O   UNL     1      33.956 -23.638 -18.661  0.00  0.00    -0.268 OA
ATOM     13  N   UNL     1      35.465 -22.441 -17.345  0.00  0.00    -0.293 N 
ATOM     14  C   UNL     1      34.636 -22.644 -18.433  0.00  0.00    +0.272 C 
ATOM     15  H   UNL     1      35.958 -21.592 -17.284  0.00  0.00    +0.150 HD
BRANCH  14  19
ATOM     16 CL   UNL     1      34.920 -16.414 -21.673  0.00  0.00    -0.098 Cl
ATOM     17  S   UNL     1      33.067 -18.733 -21.467  0.00  0.00    -0.062 S 
ATOM     18  N   UNL     1      33.438 -20.881 -19.749  0.00  0.00    -0.395 NA
ATOM     19  C   UNL     1      34.628 -21.501 -19.364  0.00  0.00    +0.167 C 
ATOM     20  C   UNL     1      35.303 -19.930 -20.711  0.00  0.00    +0.018 C 
ATOM     21  C   UNL     1      35.760 -20.993 -19.892  0.00  0.00    +0.093 C 
ATOM     22  C   UNL     1      33.857 -19.948 -20.552  0.00  0.00    +0.154 C 
ATOM     23  C   UNL     1      35.740 -18.979 -21.531  0.00  0.00    +0.000 C 
ATOM     24  C   UNL     1      34.673 -18.108 -22.136  0.00  0.00    +0.155 C 
ENDBRANCH  14  19
ENDBRANCH   3  13
BRANCH   2  25
ATOM     25  C   UNL     1      33.724 -23.864 -13.018  0.00  0.00    +0.183 C 
BRANCH  25  28
ATOM     26  O   UNL     1      32.395 -25.584 -14.086  0.00  0.00    -0.273 OA
ATOM     27  N   UNL     1      31.428 -23.545 -13.649  0.00  0.00    -0.327 N 
ATOM     28  C   UNL     1      32.469 -24.448 -13.625  0.00  0.00    +0.240 C 
ATOM     29  H   UNL     1      30.556 -23.808 -14.021  0.00  0.00    +0.145 HD
ATOM     30  H   UNL     1      31.558 -22.635 -13.294  0.00  0.00    +0.145 HD
ENDBRANCH  25  28
ENDBRANCH   2  25
TORSDOF 4
ENDMDL
MODEL 6
REMARK VINA RESULT:      -8.8      4.296      9.639
REMARK  Name = 46937093
REMARK  4 active torsions:
REMARK  status: ('A' for Active; 'I' for Inactive)
REMARK    1  A    between atoms: N_2  and  C_25
REMARK    2  A    between atoms: C_3  and  N_13
REMARK    3  A    between atoms: C_14  and  C_19
REMARK    4  A    between atoms: C_25  and  C_28
REMARK                            x       y       z     vdW  Elec       q    Type
REMARK                         _______ _______ _______ _____ _____    ______ ____
ROOT
ATOM      1  O   UNL     1      35.279 -16.988 -19.701  0.00  0.00    -0.273 OA
ATOM      2  N   UNL     1      34.863 -16.449 -21.927  0.00  0.00    -0.249 N 
ATOM      3  C   UNL     1      35.517 -18.751 -21.318  0.00  0.00    +0.154 C 
ATOM      4  C   UNL     1      34.575 -19.254 -22.397  0.00  0.00    +0.057 C 
ATOM      5  C   UNL     1      34.548 -18.277 -23.535  0.00  0.00    -0.006 C 
ATOM      6  C   UNL     1      34.664 -16.900 -23.275  0.00  0.00    +0.050 C 
ATOM      7  C   UNL     1      35.174 -17.332 -20.880  0.00  0.00    +0.248 C 
ATOM      8  C   UNL     1      34.321 -18.734 -24.841  0.00  0.00    -0.003 C 
ATOM      9  C   UNL     1      34.553 -16.004 -24.351  0.00  0.00    +0.015 C 
ATOM     10  C   UNL     1      34.227 -17.832 -25.897  0.00  0.00    -0.000 C 
ATOM     11  C   UNL     1      34.343 -16.468 -25.651  0.00  0.00    +0.001 C 
ENDROOT
BRANCH   3  13
ATOM     12  O   UNL     1      37.185 -21.076 -20.782  0.00  0.00    -0.268 OA
ATOM     13  N   UNL     1      35.479 -19.612 -20.164  0.00  0.00    -0.293 N 
ATOM     14  C   UNL     1      36.319 -20.698 -20.002  0.00  0.00    +0.272 C 
ATOM     15  H   UNL     1      34.823 -19.417 -19.456  0.00  0.00    +0.150 HD
BRANCH  14  19
ATOM     16 CL   UNL     1      35.908 -25.217 -14.635  0.00  0.00    -0.098 Cl
ATOM     17  S   UNL     1      34.095 -23.462 -16.211  0.00  0.00    -0.062 S 
ATOM     18  N   UNL     1      34.865 -22.042 -18.468  0.00  0.00    -0.395 NA
ATOM     19  C   UNL     1      36.084 -21.416 -18.736  0.00  0.00    +0.167 C 
ATOM     20  C   UNL     1      36.392 -22.267 -16.757  0.00  0.00    +0.018 C 
ATOM     21  C   UNL     1      37.024 -21.509 -17.775  0.00  0.00    +0.093 C 
ATOM     22  C   UNL     1      35.065 -22.544 -17.285  0.00  0.00    +0.154 C 
ATOM     23  C   UNL     1      36.604 -22.777 -15.547  0.00  0.00    +0.000 C 
ATOM     24  C   UNL     1      35.447 -23.534 -14.954  0.00  0.00    +0.155 C 
ENDBRANCH  14  19
ENDBRANCH   3  13
BRANCH   2  25
ATOM     25  C   UNL     1      34.728 -15.024 -21.634  0.00  0.00    +0.183 C 
BRANCH  25  28
ATOM     26  O   UNL     1      32.599 -14.042 -22.241  0.00  0.00    -0.273 OA
ATOM     27  N   UNL     1      32.789 -15.119 -20.219  0.00  0.00    -0.327 N 
ATOM     28  C   UNL     1      33.270 -14.680 -21.434  0.00  0.00    +0.240 C 
ATOM     29  H   UNL     1      31.851 -14.954 -19.973  0.00  0.00    +0.145 HD
ATOM     30  H   UNL     1      33.385 -15.597 -19.598  0.00  0.00    +0.145 HD
ENDBRANCH  25  28
ENDBRANCH   2  25
TORSDOF 4
ENDMDL
MODEL 7
REMARK VINA RESULT:      -8.7     11.045     14.646
REMARK  Name = 46937093
REMARK  4 active torsions:
REMARK  status: ('A' for Active; 'I' for Inactive)
REMARK    1  A    between atoms: N_2  and  C_25
REMARK    2  A    between atoms: C_3  and  N_13
REMARK    3  A    between atoms: C_14  and  C_19
REMARK    4  A    between atoms: C_25  and  C_28
REMARK                            x       y       z     vdW  Elec       q    Type
REMARK                         _______ _______ _______ _____ _____    ______ ____
ROOT
ATOM      1  O   UNL     1      33.997 -11.489 -25.757  0.00  0.00    -0.273 OA
ATOM      2  N   UNL     1      33.743 -13.383 -24.426  0.00  0.00    -0.249 N 
ATOM      3  C   UNL     1      33.495 -11.135 -23.432  0.00  0.00    +0.154 C 
ATOM      4  C   UNL     1      32.398 -11.699 -22.548  0.00  0.00    +0.057 C 
ATOM      5  C   UNL     1      32.706 -13.129 -22.216  0.00  0.00    -0.006 C 
ATOM      6  C   UNL     1      33.343 -13.944 -23.168  0.00  0.00    +0.050 C 
ATOM      7  C   UNL     1      33.731 -11.999 -24.666  0.00  0.00    +0.248 C 
ATOM      8  C   UNL     1      32.279 -13.668 -20.994  0.00  0.00    -0.003 C 
ATOM      9  C   UNL     1      33.545 -15.301 -22.860  0.00  0.00    +0.015 C 
ATOM     10  C   UNL     1      32.499 -15.012 -20.701  0.00  0.00    -0.000 C 
ATOM     11  C   UNL     1      33.131 -15.826 -21.634  0.00  0.00    +0.001 C 
ENDROOT
BRANCH   3  13
ATOM     12  O   UNL     1      35.286  -8.847 -23.606  0.00  0.00    -0.268 OA
ATOM     13  N   UNL     1      33.172  -9.799 -23.860  0.00  0.00    -0.293 N 
ATOM     14  C   UNL     1      34.101  -8.775 -23.908  0.00  0.00    +0.272 C 
ATOM     15  H   UNL     1      32.247  -9.605 -24.132  0.00  0.00    +0.150 HD
BRANCH  14  19
ATOM     16 CL   UNL     1      32.215  -2.119 -25.147  0.00  0.00    -0.098 Cl
ATOM     17  S   UNL     1      30.911  -4.740 -24.617  0.00  0.00    -0.062 S 
ATOM     18  N   UNL     1      32.278  -7.057 -23.935  0.00  0.00    -0.395 NA
ATOM     19  C   UNL     1      33.523  -7.504 -24.381  0.00  0.00    +0.167 C 
ATOM     20  C   UNL     1      33.269  -5.618 -25.437  0.00  0.00    +0.018 C 
ATOM     21  C   UNL     1      34.159  -6.708 -25.264  0.00  0.00    +0.093 C 
ATOM     22  C   UNL     1      32.141  -5.932 -24.574  0.00  0.00    +0.154 C 
ATOM     23  C   UNL     1      33.137  -4.470 -26.095  0.00  0.00    +0.000 C 
ATOM     24  C   UNL     1      31.861  -3.718 -25.829  0.00  0.00    +0.155 C 
ENDBRANCH  14  19
ENDBRANCH   3  13
BRANCH   2  25
ATOM     25  C   UNL     1      34.168 -14.282 -25.496  0.00  0.00    +0.183 C 
BRANCH  25  28
ATOM     26  O   UNL     1      32.757 -16.040 -26.384  0.00  0.00    -0.273 OA
ATOM     27  N   UNL     1      32.120 -13.851 -26.675  0.00  0.00    -0.327 N 
ATOM     28  C   UNL     1      32.955 -14.841 -26.205  0.00  0.00    +0.240 C 
ATOM     29  H   UNL     1      31.295 -14.089 -27.156  0.00  0.00    +0.145 HD
ATOM     30  H   UNL     1      32.349 -12.904 -26.530  0.00  0.00    +0.145 HD
ENDBRANCH  25  28
ENDBRANCH   2  25
TORSDOF 4
ENDMDL
MODEL 8
REMARK VINA RESULT:      -8.5      6.453     11.725
REMARK  Name = 46937093
REMARK  4 active torsions:
REMARK  status: ('A' for Active; 'I' for Inactive)
REMARK    1  A    between atoms: N_2  and  C_25
REMARK    2  A    between atoms: C_3  and  N_13
REMARK    3  A    between atoms: C_14  and  C_19
REMARK    4  A    between atoms: C_25  and  C_28
REMARK                            x       y       z     vdW  Elec       q    Type
REMARK                         _______ _______ _______ _____ _____    ______ ____
ROOT
ATOM      1  O   UNL     1      34.118 -15.405 -24.298  0.00  0.00    -0.273 OA
ATOM      2  N   UNL     1      33.456 -13.188 -24.037  0.00  0.00    -0.249 N 
ATOM      3  C   UNL     1      32.627 -14.914 -22.477  0.00  0.00    +0.154 C 
ATOM      4  C   UNL     1      32.709 -13.882 -21.367  0.00  0.00    +0.057 C 
ATOM      5  C   UNL     1      32.405 -12.522 -21.921  0.00  0.00    -0.006 C 
ATOM      6  C   UNL     1      32.807 -12.196 -23.228  0.00  0.00    +0.050 C 
ATOM      7  C   UNL     1      33.506 -14.542 -23.664  0.00  0.00    +0.248 C 
ATOM      8  C   UNL     1      31.798 -11.556 -21.106  0.00  0.00    -0.003 C 
ATOM      9  C   UNL     1      32.582 -10.889 -23.692  0.00  0.00    +0.015 C 
ATOM     10  C   UNL     1      31.571 -10.270 -21.586  0.00  0.00    -0.000 C 
ATOM     11  C   UNL     1      31.964  -9.937 -22.878  0.00  0.00    +0.001 C 
ENDROOT
BRANCH   3  13
ATOM     12  O   UNL     1      35.122 -15.635 -21.162  0.00  0.00    -0.268 OA
ATOM     13  N   UNL     1      33.023 -16.213 -21.999  0.00  0.00    -0.293 N 
ATOM     14  C   UNL     1      34.238 -16.454 -21.383  0.00  0.00    +0.272 C 
ATOM     15  H   UNL     1      32.400 -16.965 -22.115  0.00  0.00    +0.150 HD
BRANCH  14  19
ATOM     16 CL   UNL     1      34.703 -22.673 -18.143  0.00  0.00    -0.098 Cl
ATOM     17  S   UNL     1      36.331 -20.995 -19.983  0.00  0.00    -0.062 S 
ATOM     18  N   UNL     1      35.666 -18.408 -20.739  0.00  0.00    -0.395 NA
ATOM     19  C   UNL     1      34.405 -17.864 -20.984  0.00  0.00    +0.167 C 
ATOM     20  C   UNL     1      33.956 -19.926 -20.451  0.00  0.00    +0.018 C 
ATOM     21  C   UNL     1      33.357 -18.699 -20.834  0.00  0.00    +0.093 C 
ATOM     22  C   UNL     1      35.382 -19.638 -20.423  0.00  0.00    +0.154 C 
ATOM     23  C   UNL     1      33.656 -21.180 -20.130  0.00  0.00    +0.000 C 
ATOM     24  C   UNL     1      34.832 -22.061 -19.802  0.00  0.00    +0.155 C 
ENDBRANCH  14  19
ENDBRANCH   3  13
BRANCH   2  25
ATOM     25  C   UNL     1      34.094 -12.773 -25.284  0.00  0.00    +0.183 C 
BRANCH  25  28
ATOM     26  O   UNL     1      33.789 -13.358 -27.615  0.00  0.00    -0.273 OA
ATOM     27  N   UNL     1      32.191 -13.997 -26.090  0.00  0.00    -0.327 N 
ATOM     28  C   UNL     1      33.380 -13.405 -26.457  0.00  0.00    +0.240 C 
ATOM     29  H   UNL     1      31.633 -14.443 -26.768  0.00  0.00    +0.145 HD
ATOM     30  H   UNL     1      31.899 -13.973 -25.150  0.00  0.00    +0.145 HD
ENDBRANCH  25  28
ENDBRANCH   2  25
TORSDOF 4
ENDMDL
MODEL 9
REMARK VINA RESULT:      -8.4      7.836     12.547
REMARK  Name = 46937093
REMARK  4 active torsions:
REMARK  status: ('A' for Active; 'I' for Inactive)
REMARK    1  A    between atoms: N_2  and  C_25
REMARK    2  A    between atoms: C_3  and  N_13
REMARK    3  A    between atoms: C_14  and  C_19
REMARK    4  A    between atoms: C_25  and  C_28
REMARK                            x       y       z     vdW  Elec       q    Type
REMARK                         _______ _______ _______ _____ _____    ______ ____
ROOT
ATOM      1  O   UNL     1      32.968 -13.079 -23.830  0.00  0.00    -0.273 OA
ATOM      2  N   UNL     1      32.590 -10.927 -23.025  0.00  0.00    -0.249 N 
ATOM      3  C   UNL     1      31.977 -12.884 -21.648  0.00  0.00    +0.154 C 
ATOM      4  C   UNL     1      32.401 -12.096 -20.423  0.00  0.00    +0.057 C 
ATOM      5  C   UNL     1      32.107 -10.641 -20.635  0.00  0.00    -0.006 C 
ATOM      6  C   UNL     1      32.234 -10.084 -21.920  0.00  0.00    +0.050 C 
ATOM      7  C   UNL     1      32.597 -12.328 -22.924  0.00  0.00    +0.248 C 
ATOM      8  C   UNL     1      31.792  -9.826 -19.538  0.00  0.00    -0.003 C 
ATOM      9  C   UNL     1      32.032  -8.702 -22.073  0.00  0.00    +0.015 C 
ATOM     10  C   UNL     1      31.582  -8.461 -19.712  0.00  0.00    -0.000 C 
ATOM     11  C   UNL     1      31.703  -7.900 -20.978  0.00  0.00    +0.001 C 
ENDROOT
BRANCH   3  13
ATOM     12  O   UNL     1      34.590 -13.962 -20.953  0.00  0.00    -0.268 OA
ATOM     13  N   UNL     1      32.349 -14.270 -21.520  0.00  0.00    -0.293 N 
ATOM     14  C   UNL     1      33.625 -14.682 -21.183  0.00  0.00    +0.272 C 
ATOM     15  H   UNL     1      31.662 -14.956 -21.679  0.00  0.00    +0.150 HD
BRANCH  14  19
ATOM     16 CL   UNL     1      34.188 -21.458 -19.406  0.00  0.00    -0.098 Cl
ATOM     17  S   UNL     1      35.574 -19.495 -21.160  0.00  0.00    -0.062 S 
ATOM     18  N   UNL     1      34.989 -16.782 -21.238  0.00  0.00    -0.395 NA
ATOM     19  C   UNL     1      33.750 -16.149 -21.114  0.00  0.00    +0.167 C 
ATOM     20  C   UNL     1      33.246 -18.258 -20.925  0.00  0.00    +0.018 C 
ATOM     21  C   UNL     1      32.686 -16.955 -20.929  0.00  0.00    +0.093 C 
ATOM     22  C   UNL     1      34.671 -18.039 -21.124  0.00  0.00    +0.154 C 
ATOM     23  C   UNL     1      32.913 -19.539 -20.808  0.00  0.00    +0.000 C 
ATOM     24  C   UNL     1      34.055 -20.515 -20.902  0.00  0.00    +0.155 C 
ENDBRANCH  14  19
ENDBRANCH   3  13
BRANCH   2  25
ATOM     25  C   UNL     1      32.966 -10.307 -24.293  0.00  0.00    +0.183 C 
BRANCH  25  28
ATOM     26  O   UNL     1      35.079  -9.271 -23.719  0.00  0.00    -0.273 OA
ATOM     27  N   UNL     1      35.066 -11.007 -25.225  0.00  0.00    -0.327 N 
ATOM     28  C   UNL     1      34.467 -10.129 -24.348  0.00  0.00    +0.240 C 
ATOM     29  H   UNL     1      36.042 -10.989 -25.350  0.00  0.00    +0.145 HD
ATOM     30  H   UNL     1      34.517 -11.652 -25.728  0.00  0.00    +0.145 HD
ENDBRANCH  25  28
ENDBRANCH   2  25
TORSDOF 4
ENDMDL
