MODEL 1
REMARK VINA RESULT:      -7.8      0.000      0.000
REMARK  Name = 23573
REMARK  5 active torsions:
REMARK  status: ('A' for Active; 'I' for Inactive)
REMARK    1  A    between atoms: C_2  and  C_12
REMARK    2  A    between atoms: C_2  and  C_18
REMARK    3  A    between atoms: C_18  and  C_19
REMARK    4  A    between atoms: C_19  and  C_20
REMARK    5  A    between atoms: C_20  and  N_21
REMARK                            x       y       z     vdW  Elec       q    Type
REMARK                         _______ _______ _______ _____ _____    ______ ____
ROOT
ATOM      1  O   UNL     1      35.263 -23.005 -13.771  0.00  0.00    -0.351 OA
ATOM      2  C   UNL     1      35.001 -23.843 -14.942  0.00  0.00    +0.130 C 
ATOM      3  C   UNL     1      36.139 -23.674 -12.824  0.00  0.00    +0.112 C 
ATOM      4  C   UNL     1      35.895 -25.031 -14.737  0.00  0.00    +0.004 C 
ATOM      5  C   UNL     1      36.554 -24.928 -13.518  0.00  0.00    +0.001 C 
ATOM      6  C   UNL     1      35.339 -23.954 -11.551  0.00  0.00    +0.034 C 
ATOM      7  C   UNL     1      37.318 -22.749 -12.530  0.00  0.00    +0.034 C 
ATOM      8  C   UNL     1      36.095 -26.132 -15.559  0.00  0.00    -0.002 C 
ATOM      9  C   UNL     1      37.436 -25.911 -13.093  0.00  0.00    -0.002 C 
ATOM     10  C   UNL     1      36.984 -27.127 -15.144  0.00  0.00    -0.000 C 
ATOM     11  C   UNL     1      37.652 -27.016 -13.917  0.00  0.00    -0.000 C 
ENDROOT
BRANCH   2  12
ATOM     12  C   UNL     1      35.324 -23.061 -16.215  0.00  0.00    +0.006 C 
ATOM     13  C   UNL     1      36.554 -22.421 -16.345  0.00  0.00    -0.002 C 
ATOM     14  C   UNL     1      34.385 -22.989 -17.244  0.00  0.00    -0.002 C 
ATOM     15  C   UNL     1      36.849 -21.706 -17.506  0.00  0.00    -0.000 C 
ATOM     16  C   UNL     1      34.681 -22.275 -18.405  0.00  0.00    -0.000 C 
ATOM     17  C   UNL     1      35.912 -21.633 -18.536  0.00  0.00    -0.000 C 
ENDBRANCH   2  12
BRANCH   2  18
ATOM     18  C   UNL     1      33.519 -24.239 -14.839  0.00  0.00    +0.034 C 
BRANCH  18  19
ATOM     19  C   UNL     1      32.708 -23.176 -14.101  0.00  0.00    -0.020 C 
BRANCH  19  20
ATOM     20  C   UNL     1      31.250 -23.606 -13.946  0.00  0.00    -0.082 C 
BRANCH  20  21
ATOM     21  N   UNL     1      31.139 -25.059 -14.011  0.00  0.00    +0.382 N 
ATOM     22  C   UNL     1      30.034 -25.457 -14.870  0.00  0.00    -0.106 C 
ATOM     23  H   UNL     1      30.982 -25.424 -13.072  0.00  0.00    -0.085 HD
ATOM     24  H   UNL     1      32.006 -25.433 -14.399  0.00  0.00    -0.085 HD
ENDBRANCH  20  21
ENDBRANCH  19  20
ENDBRANCH  18  19
ENDBRANCH   2  18
TORSDOF 5
ENDMDL
MODEL 2
REMARK VINA RESULT:      -7.4      2.115      4.572
REMARK  Name = 23573
REMARK  5 active torsions:
REMARK  status: ('A' for Active; 'I' for Inactive)
REMARK    1  A    between atoms: C_2  and  C_12
REMARK    2  A    between atoms: C_2  and  C_18
REMARK    3  A    between atoms: C_18  and  C_19
REMARK    4  A    between atoms: C_19  and  C_20
REMARK    5  A    between atoms: C_20  and  N_21
REMARK                            x       y       z     vdW  Elec       q    Type
REMARK                         _______ _______ _______ _____ _____    ______ ____
ROOT
ATOM      1  O   UNL     1      36.432 -24.608 -15.769  0.00  0.00    -0.351 OA
ATOM      2  C   UNL     1      35.730 -23.588 -14.990  0.00  0.00    +0.130 C 
ATOM      3  C   UNL     1      37.169 -25.519 -14.909  0.00  0.00    +0.112 C 
ATOM      4  C   UNL     1      35.952 -24.009 -13.567  0.00  0.00    +0.004 C 
ATOM      5  C   UNL     1      36.778 -25.126 -13.524  0.00  0.00    +0.001 C 
ATOM      6  C   UNL     1      38.662 -25.317 -15.169  0.00  0.00    +0.034 C 
ATOM      7  C   UNL     1      36.748 -26.946 -15.254  0.00  0.00    +0.034 C 
ATOM      8  C   UNL     1      35.478 -23.435 -12.395  0.00  0.00    -0.002 C 
ATOM      9  C   UNL     1      37.141 -25.705 -12.316  0.00  0.00    -0.002 C 
ATOM     10  C   UNL     1      35.833 -24.011 -11.173  0.00  0.00    -0.000 C 
ATOM     11  C   UNL     1      36.660 -25.141 -11.134  0.00  0.00    -0.000 C 
ENDROOT
BRANCH   2  12
ATOM     12  C   UNL     1      34.253 -23.567 -15.386  0.00  0.00    +0.006 C 
ATOM     13  C   UNL     1      33.885 -23.201 -16.678  0.00  0.00    -0.002 C 
ATOM     14  C   UNL     1      33.278 -23.915 -14.452  0.00  0.00    -0.002 C 
ATOM     15  C   UNL     1      32.538 -23.181 -17.040  0.00  0.00    -0.000 C 
ATOM     16  C   UNL     1      31.931 -23.896 -14.814  0.00  0.00    -0.000 C 
ATOM     17  C   UNL     1      31.561 -23.529 -16.108  0.00  0.00    -0.000 C 
ENDBRANCH   2  12
BRANCH   2  18
ATOM     18  C   UNL     1      36.453 -22.267 -15.298  0.00  0.00    +0.034 C 
BRANCH  18  19
ATOM     19  C   UNL     1      37.296 -22.375 -16.566  0.00  0.00    -0.020 C 
BRANCH  19  20
ATOM     20  C   UNL     1      36.981 -21.237 -17.535  0.00  0.00    -0.082 C 
BRANCH  20  21
ATOM     21  N   UNL     1      36.286 -21.748 -18.710  0.00  0.00    +0.382 N 
ATOM     22  C   UNL     1      36.487 -20.871 -19.855  0.00  0.00    -0.106 C 
ATOM     23  H   UNL     1      35.288 -21.810 -18.508  0.00  0.00    -0.085 HD
ATOM     24  H   UNL     1      36.662 -22.670 -18.935  0.00  0.00    -0.085 HD
ENDBRANCH  20  21
ENDBRANCH  19  20
ENDBRANCH  18  19
ENDBRANCH   2  18
TORSDOF 5
ENDMDL
MODEL 3
REMARK VINA RESULT:      -6.8     15.081     18.504
REMARK  Name = 23573
REMARK  5 active torsions:
REMARK  status: ('A' for Active; 'I' for Inactive)
REMARK    1  A    between atoms: C_2  and  C_12
REMARK    2  A    between atoms: C_2  and  C_18
REMARK    3  A    between atoms: C_18  and  C_19
REMARK    4  A    between atoms: C_19  and  C_20
REMARK    5  A    between atoms: C_20  and  N_21
REMARK                            x       y       z     vdW  Elec       q    Type
REMARK                         _______ _______ _______ _____ _____    ______ ____
ROOT
ATOM      1  O   UNL     1      31.453  -7.792 -22.722  0.00  0.00    -0.351 OA
ATOM      2  C   UNL     1      32.863  -8.176 -22.788  0.00  0.00    +0.130 C 
ATOM      3  C   UNL     1      31.170  -6.661 -23.589  0.00  0.00    +0.112 C 
ATOM      4  C   UNL     1      33.421  -7.302 -23.874  0.00  0.00    +0.004 C 
ATOM      5  C   UNL     1      32.440  -6.434 -24.337  0.00  0.00    +0.001 C 
ATOM      6  C   UNL     1      30.794  -5.468 -22.710  0.00  0.00    +0.034 C 
ATOM      7  C   UNL     1      30.010  -7.043 -24.506  0.00  0.00    +0.034 C 
ATOM      8  C   UNL     1      34.706  -7.264 -24.398  0.00  0.00    -0.002 C 
ATOM      9  C   UNL     1      32.712  -5.515 -25.342  0.00  0.00    -0.002 C 
ATOM     10  C   UNL     1      34.990  -6.346 -25.412  0.00  0.00    -0.000 C 
ATOM     11  C   UNL     1      33.997  -5.477 -25.882  0.00  0.00    -0.000 C 
ENDROOT
BRANCH   2  12
ATOM     12  C   UNL     1      32.974  -9.668 -23.101  0.00  0.00    +0.006 C 
ATOM     13  C   UNL     1      32.123 -10.575 -22.474  0.00  0.00    -0.002 C 
ATOM     14  C   UNL     1      33.927 -10.118 -24.015  0.00  0.00    -0.002 C 
ATOM     15  C   UNL     1      32.224 -11.937 -22.759  0.00  0.00    -0.000 C 
ATOM     16  C   UNL     1      34.027 -11.480 -24.301  0.00  0.00    -0.000 C 
ATOM     17  C   UNL     1      33.176 -12.389 -23.672  0.00  0.00    -0.000 C 
ENDBRANCH   2  12
BRANCH   2  18
ATOM     18  C   UNL     1      33.454  -7.804 -21.418  0.00  0.00    +0.034 C 
BRANCH  18  19
ATOM     19  C   UNL     1      32.418  -7.116 -20.532  0.00  0.00    -0.020 C 
BRANCH  19  20
ATOM     20  C   UNL     1      31.725  -8.122 -19.614  0.00  0.00    -0.082 C 
BRANCH  20  21
ATOM     21  N   UNL     1      32.627  -9.220 -19.291  0.00  0.00    +0.382 N 
ATOM     22  C   UNL     1      31.881 -10.429 -18.974  0.00  0.00    -0.106 C 
ATOM     23  H   UNL     1      33.197  -8.959 -18.487  0.00  0.00    -0.085 HD
ATOM     24  H   UNL     1      33.218  -9.404 -20.102  0.00  0.00    -0.085 HD
ENDBRANCH  20  21
ENDBRANCH  19  20
ENDBRANCH  18  19
ENDBRANCH   2  18
TORSDOF 5
ENDMDL
MODEL 4
REMARK VINA RESULT:      -6.8     15.252     17.781
REMARK  Name = 23573
REMARK  5 active torsions:
REMARK  status: ('A' for Active; 'I' for Inactive)
REMARK    1  A    between atoms: C_2  and  C_12
REMARK    2  A    between atoms: C_2  and  C_18
REMARK    3  A    between atoms: C_18  and  C_19
REMARK    4  A    between atoms: C_19  and  C_20
REMARK    5  A    between atoms: C_20  and  N_21
REMARK                            x       y       z     vdW  Elec       q    Type
REMARK                         _______ _______ _______ _____ _____    ______ ____
ROOT
ATOM      1  O   UNL     1      32.610  -7.545 -22.338  0.00  0.00    -0.351 OA
ATOM      2  C   UNL     1      32.107  -8.807 -22.883  0.00  0.00    +0.130 C 
ATOM      3  C   UNL     1      32.465  -7.496 -20.893  0.00  0.00    +0.112 C 
ATOM      4  C   UNL     1      31.771  -9.614 -21.663  0.00  0.00    +0.004 C 
ATOM      5  C   UNL     1      31.984  -8.857 -20.517  0.00  0.00    +0.001 C 
ATOM      6  C   UNL     1      31.448  -6.407 -20.553  0.00  0.00    +0.034 C 
ATOM      7  C   UNL     1      33.829  -7.169 -20.288  0.00  0.00    +0.034 C 
ATOM      8  C   UNL     1      31.291 -10.914 -21.574  0.00  0.00    -0.002 C 
ATOM      9  C   UNL     1      31.737  -9.380 -19.256  0.00  0.00    -0.002 C 
ATOM     10  C   UNL     1      31.043 -11.453 -20.309  0.00  0.00    -0.000 C 
ATOM     11  C   UNL     1      31.266 -10.689 -19.156  0.00  0.00    -0.000 C 
ENDROOT
BRANCH   2  12
ATOM     12  C   UNL     1      33.183  -9.455 -23.754  0.00  0.00    +0.006 C 
ATOM     13  C   UNL     1      34.375  -8.779 -24.006  0.00  0.00    -0.002 C 
ATOM     14  C   UNL     1      32.970 -10.722 -24.296  0.00  0.00    -0.002 C 
ATOM     15  C   UNL     1      35.357  -9.369 -24.801  0.00  0.00    -0.000 C 
ATOM     16  C   UNL     1      33.952 -11.313 -25.090  0.00  0.00    -0.000 C 
ATOM     17  C   UNL     1      35.145 -10.636 -25.343  0.00  0.00    -0.000 C 
ENDBRANCH   2  12
BRANCH   2  18
ATOM     18  C   UNL     1      30.839  -8.436 -23.670  0.00  0.00    +0.034 C 
BRANCH  18  19
ATOM     19  C   UNL     1      31.122  -7.343 -24.700  0.00  0.00    -0.020 C 
BRANCH  19  20
ATOM     20  C   UNL     1      30.797  -5.960 -24.137  0.00  0.00    -0.082 C 
BRANCH  20  21
ATOM     21  N   UNL     1      31.985  -5.115 -24.153  0.00  0.00    +0.382 N 
ATOM     22  C   UNL     1      32.863  -5.475 -25.257  0.00  0.00    -0.106 C 
ATOM     23  H   UNL     1      32.489  -5.229 -23.274  0.00  0.00    -0.085 HD
ATOM     24  H   UNL     1      31.691  -4.144 -24.272  0.00  0.00    -0.085 HD
ENDBRANCH  20  21
ENDBRANCH  19  20
ENDBRANCH  18  19
ENDBRANCH   2  18
TORSDOF 5
ENDMDL
MODEL 5
REMARK VINA RESULT:      -6.4     14.018     17.632
REMARK  Name = 23573
REMARK  5 active torsions:
REMARK  status: ('A' for Active; 'I' for Inactive)
REMARK    1  A    between atoms: C_2  and  C_12
REMARK    2  A    between atoms: C_2  and  C_18
REMARK    3  A    between atoms: C_18  and  C_19
REMARK    4  A    between atoms: C_19  and  C_20
REMARK    5  A    between atoms: C_20  and  N_21
REMARK                            x       y       z     vdW  Elec       q    Type
REMARK                         _______ _______ _______ _____ _____    ______ ____
ROOT
ATOM      1  O   UNL     1      34.037  -9.371 -23.240  0.00  0.00    -0.351 OA
ATOM      2  C   UNL     1      32.595  -9.608 -23.178  0.00  0.00    +0.130 C 
ATOM      3  C   UNL     1      34.339  -8.097 -23.871  0.00  0.00    +0.112 C 
ATOM      4  C   UNL     1      32.000  -8.324 -23.679  0.00  0.00    +0.004 C 
ATOM      5  C   UNL     1      33.009  -7.453 -24.073  0.00  0.00    +0.001 C 
ATOM      6  C   UNL     1      35.054  -8.379 -25.194  0.00  0.00    +0.034 C 
ATOM      7  C   UNL     1      35.240  -7.301 -22.929  0.00  0.00    +0.034 C 
ATOM      8  C   UNL     1      30.665  -7.961 -23.798  0.00  0.00    -0.002 C 
ATOM      9  C   UNL     1      32.714  -6.197 -24.583  0.00  0.00    -0.002 C 
ATOM     10  C   UNL     1      30.356  -6.697 -24.306  0.00  0.00    -0.000 C 
ATOM     11  C   UNL     1      31.376  -5.819 -24.696  0.00  0.00    -0.000 C 
ENDROOT
BRANCH   2  12
ATOM     12  C   UNL     1      32.191  -9.935 -21.740  0.00  0.00    +0.006 C 
ATOM     13  C   UNL     1      32.341  -8.977 -20.740  0.00  0.00    -0.002 C 
ATOM     14  C   UNL     1      31.672 -11.193 -21.433  0.00  0.00    -0.002 C 
ATOM     15  C   UNL     1      31.973  -9.276 -19.428  0.00  0.00    -0.000 C 
ATOM     16  C   UNL     1      31.303 -11.491 -20.121  0.00  0.00    -0.000 C 
ATOM     17  C   UNL     1      31.454 -10.533 -19.118  0.00  0.00    -0.000 C 
ENDBRANCH   2  12
BRANCH   2  18
ATOM     18  C   UNL     1      32.326 -10.763 -24.156  0.00  0.00    +0.034 C 
BRANCH  18  19
ATOM     19  C   UNL     1      33.606 -11.534 -24.474  0.00  0.00    -0.020 C 
BRANCH  19  20
ATOM     20  C   UNL     1      33.415 -13.033 -24.252  0.00  0.00    -0.082 C 
BRANCH  20  21
ATOM     21  N   UNL     1      34.232 -13.489 -23.134  0.00  0.00    +0.382 N 
ATOM     22  C   UNL     1      34.468 -14.923 -23.215  0.00  0.00    -0.106 C 
ATOM     23  H   UNL     1      33.750 -13.279 -22.260  0.00  0.00    -0.085 HD
ATOM     24  H   UNL     1      35.130 -13.007 -23.170  0.00  0.00    -0.085 HD
ENDBRANCH  20  21
ENDBRANCH  19  20
ENDBRANCH  18  19
ENDBRANCH   2  18
TORSDOF 5
ENDMDL
MODEL 6
REMARK VINA RESULT:      -6.1      6.587      9.266
REMARK  Name = 23573
REMARK  5 active torsions:
REMARK  status: ('A' for Active; 'I' for Inactive)
REMARK    1  A    between atoms: C_2  and  C_12
REMARK    2  A    between atoms: C_2  and  C_18
REMARK    3  A    between atoms: C_18  and  C_19
REMARK    4  A    between atoms: C_19  and  C_20
REMARK    5  A    between atoms: C_20  and  N_21
REMARK                            x       y       z     vdW  Elec       q    Type
REMARK                         _______ _______ _______ _____ _____    ______ ____
ROOT
ATOM      1  O   UNL     1      36.578 -19.057 -21.148  0.00  0.00    -0.351 OA
ATOM      2  C   UNL     1      35.259 -18.459 -21.357  0.00  0.00    +0.130 C 
ATOM      3  C   UNL     1      36.495 -20.247 -20.317  0.00  0.00    +0.112 C 
ATOM      4  C   UNL     1      34.317 -19.441 -20.724  0.00  0.00    +0.004 C 
ATOM      5  C   UNL     1      35.033 -20.473 -20.129  0.00  0.00    +0.001 C 
ATOM      6  C   UNL     1      37.211 -19.957 -18.997  0.00  0.00    +0.034 C 
ATOM      7  C   UNL     1      37.176 -21.395 -21.060  0.00  0.00    +0.034 C 
ATOM      8  C   UNL     1      32.930 -19.412 -20.659  0.00  0.00    -0.002 C 
ATOM      9  C   UNL     1      34.386 -21.507 -19.468  0.00  0.00    -0.002 C 
ATOM     10  C   UNL     1      32.268 -20.450 -19.999  0.00  0.00    -0.000 C 
ATOM     11  C   UNL     1      32.993 -21.493 -19.407  0.00  0.00    -0.000 C 
ENDROOT
BRANCH   2  12
ATOM     12  C   UNL     1      35.013 -18.271 -22.854  0.00  0.00    +0.006 C 
ATOM     13  C   UNL     1      35.097 -17.000 -23.419  0.00  0.00    -0.002 C 
ATOM     14  C   UNL     1      34.705 -19.373 -23.652  0.00  0.00    -0.002 C 
ATOM     15  C   UNL     1      34.872 -16.828 -24.784  0.00  0.00    -0.000 C 
ATOM     16  C   UNL     1      34.481 -19.200 -25.018  0.00  0.00    -0.000 C 
ATOM     17  C   UNL     1      34.564 -17.928 -25.584  0.00  0.00    -0.000 C 
ENDBRANCH   2  12
BRANCH   2  18
ATOM     18  C   UNL     1      35.283 -17.132 -20.581  0.00  0.00    +0.034 C 
BRANCH  18  19
ATOM     19  C   UNL     1      33.994 -16.340 -20.790  0.00  0.00    -0.020 C 
BRANCH  19  20
ATOM     20  C   UNL     1      34.233 -14.842 -20.607  0.00  0.00    -0.082 C 
BRANCH  20  21
ATOM     21  N   UNL     1      33.023 -14.093 -20.924  0.00  0.00    +0.382 N 
ATOM     22  C   UNL     1      32.647 -14.279 -22.318  0.00  0.00    -0.106 C 
ATOM     23  H   UNL     1      33.188 -13.102 -20.752  0.00  0.00    -0.085 HD
ATOM     24  H   UNL     1      32.264 -14.436 -20.333  0.00  0.00    -0.085 HD
ENDBRANCH  20  21
ENDBRANCH  19  20
ENDBRANCH  18  19
ENDBRANCH   2  18
TORSDOF 5
ENDMDL
MODEL 7
REMARK VINA RESULT:      -6.1     11.510     15.162
REMARK  Name = 23573
REMARK  5 active torsions:
REMARK  status: ('A' for Active; 'I' for Inactive)
REMARK    1  A    between atoms: C_2  and  C_12
REMARK    2  A    between atoms: C_2  and  C_18
REMARK    3  A    between atoms: C_18  and  C_19
REMARK    4  A    between atoms: C_19  and  C_20
REMARK    5  A    between atoms: C_20  and  N_21
REMARK                            x       y       z     vdW  Elec       q    Type
REMARK                         _______ _______ _______ _____ _____    ______ ____
ROOT
ATOM      1  O   UNL     1      32.224 -12.682 -22.726  0.00  0.00    -0.351 OA
ATOM      2  C   UNL     1      33.463 -12.535 -23.490  0.00  0.00    +0.130 C 
ATOM      3  C   UNL     1      31.788 -11.410 -22.173  0.00  0.00    +0.112 C 
ATOM      4  C   UNL     1      33.700 -11.053 -23.506  0.00  0.00    +0.004 C 
ATOM      5  C   UNL     1      32.729 -10.407 -22.750  0.00  0.00    +0.001 C 
ATOM      6  C   UNL     1      31.892 -11.493 -20.650  0.00  0.00    +0.034 C 
ATOM      7  C   UNL     1      30.342 -11.174 -22.604  0.00  0.00    +0.034 C 
ATOM      8  C   UNL     1      34.711 -10.331 -24.126  0.00  0.00    -0.002 C 
ATOM      9  C   UNL     1      32.734  -9.027 -22.604  0.00  0.00    -0.002 C 
ATOM     10  C   UNL     1      34.724  -8.941 -23.989  0.00  0.00    -0.000 C 
ATOM     11  C   UNL     1      33.739  -8.292 -23.231  0.00  0.00    -0.000 C 
ENDROOT
BRANCH   2  12
ATOM     12  C   UNL     1      33.279 -13.129 -24.886  0.00  0.00    +0.006 C 
ATOM     13  C   UNL     1      33.466 -12.330 -26.012  0.00  0.00    -0.002 C 
ATOM     14  C   UNL     1      32.923 -14.470 -25.030  0.00  0.00    -0.002 C 
ATOM     15  C   UNL     1      33.297 -12.871 -27.286  0.00  0.00    -0.000 C 
ATOM     16  C   UNL     1      32.754 -15.011 -26.305  0.00  0.00    -0.000 C 
ATOM     17  C   UNL     1      32.941 -14.212 -27.433  0.00  0.00    -0.000 C 
ENDBRANCH   2  12
BRANCH   2  18
ATOM     18  C   UNL     1      34.541 -13.260 -22.666  0.00  0.00    +0.034 C 
BRANCH  18  19
ATOM     19  C   UNL     1      33.935 -14.372 -21.812  0.00  0.00    -0.020 C 
BRANCH  19  20
ATOM     20  C   UNL     1      34.590 -15.718 -22.117  0.00  0.00    -0.082 C 
BRANCH  20  21
ATOM     21  N   UNL     1      34.885 -16.431 -20.880  0.00  0.00    +0.382 N 
ATOM     22  C   UNL     1      35.344 -17.784 -21.157  0.00  0.00    -0.106 C 
ATOM     23  H   UNL     1      34.040 -16.475 -20.310  0.00  0.00    -0.085 HD
ATOM     24  H   UNL     1      35.623 -15.930 -20.384  0.00  0.00    -0.085 HD
ENDBRANCH  20  21
ENDBRANCH  19  20
ENDBRANCH  18  19
ENDBRANCH   2  18
TORSDOF 5
ENDMDL
MODEL 8
REMARK VINA RESULT:      -6.0     11.872     14.618
REMARK  Name = 23573
REMARK  5 active torsions:
REMARK  status: ('A' for Active; 'I' for Inactive)
REMARK    1  A    between atoms: C_2  and  C_12
REMARK    2  A    between atoms: C_2  and  C_18
REMARK    3  A    between atoms: C_18  and  C_19
REMARK    4  A    between atoms: C_19  and  C_20
REMARK    5  A    between atoms: C_20  and  N_21
REMARK                            x       y       z     vdW  Elec       q    Type
REMARK                         _______ _______ _______ _____ _____    ______ ____
ROOT
ATOM      1  O   UNL     1      33.215 -12.849 -21.921  0.00  0.00    -0.351 OA
ATOM      2  C   UNL     1      32.749 -12.396 -23.232  0.00  0.00    +0.130 C 
ATOM      3  C   UNL     1      33.606 -14.249 -21.952  0.00  0.00    +0.112 C 
ATOM      4  C   UNL     1      33.015 -13.568 -24.131  0.00  0.00    +0.004 C 
ATOM      5  C   UNL     1      33.514 -14.633 -23.390  0.00  0.00    +0.001 C 
ATOM      6  C   UNL     1      32.628 -15.036 -21.078  0.00  0.00    +0.034 C 
ATOM      7  C   UNL     1      35.028 -14.359 -21.406  0.00  0.00    +0.034 C 
ATOM      8  C   UNL     1      32.811 -13.691 -25.499  0.00  0.00    -0.002 C 
ATOM      9  C   UNL     1      33.833 -15.840 -23.995  0.00  0.00    -0.002 C 
ATOM     10  C   UNL     1      33.131 -14.900 -26.120  0.00  0.00    -0.000 C 
ATOM     11  C   UNL     1      33.641 -15.970 -25.371  0.00  0.00    -0.000 C 
ENDROOT
BRANCH   2  12
ATOM     12  C   UNL     1      33.516 -11.139 -23.642  0.00  0.00    +0.006 C 
ATOM     13  C   UNL     1      34.527 -11.221 -24.598  0.00  0.00    -0.002 C 
ATOM     14  C   UNL     1      33.203  -9.911 -23.059  0.00  0.00    -0.002 C 
ATOM     15  C   UNL     1      35.228 -10.075 -24.972  0.00  0.00    -0.000 C 
ATOM     16  C   UNL     1      33.904  -8.765 -23.433  0.00  0.00    -0.000 C 
ATOM     17  C   UNL     1      34.916  -8.846 -24.389  0.00  0.00    -0.000 C 
ENDBRANCH   2  12
BRANCH   2  18
ATOM     18  C   UNL     1      31.240 -12.152 -23.069  0.00  0.00    +0.034 C 
BRANCH  18  19
ATOM     19  C   UNL     1      30.962 -10.995 -22.111  0.00  0.00    -0.020 C 
BRANCH  19  20
ATOM     20  C   UNL     1      30.537 -11.508 -20.737  0.00  0.00    -0.082 C 
BRANCH  20  21
ATOM     21  N   UNL     1      31.628 -11.362 -19.780  0.00  0.00    +0.382 N 
ATOM     22  C   UNL     1      31.897  -9.957 -19.512  0.00  0.00    -0.106 C 
ATOM     23  H   UNL     1      32.468 -11.796 -20.162  0.00  0.00    -0.085 HD
ATOM     24  H   UNL     1      31.358 -11.816 -18.907  0.00  0.00    -0.085 HD
ENDBRANCH  20  21
ENDBRANCH  19  20
ENDBRANCH  18  19
ENDBRANCH   2  18
TORSDOF 5
ENDMDL
MODEL 9
REMARK VINA RESULT:      -6.0     15.658     18.507
REMARK  Name = 23573
REMARK  5 active torsions:
REMARK  status: ('A' for Active; 'I' for Inactive)
REMARK    1  A    between atoms: C_2  and  C_12
REMARK    2  A    between atoms: C_2  and  C_18
REMARK    3  A    between atoms: C_18  and  C_19
REMARK    4  A    between atoms: C_19  and  C_20
REMARK    5  A    between atoms: C_20  and  N_21
REMARK                            x       y       z     vdW  Elec       q    Type
REMARK                         _______ _______ _______ _____ _____    ______ ____
ROOT
ATOM      1  O   UNL     1      32.447  -9.295 -23.840  0.00  0.00    -0.351 OA
ATOM      2  C   UNL     1      33.190  -8.113 -23.401  0.00  0.00    +0.130 C 
ATOM      3  C   UNL     1      31.850  -9.995 -22.715  0.00  0.00    +0.112 C 
ATOM      4  C   UNL     1      32.894  -8.031 -21.932  0.00  0.00    +0.004 C 
ATOM      5  C   UNL     1      32.116  -9.114 -21.541  0.00  0.00    +0.001 C 
ATOM      6  C   UNL     1      32.532 -11.357 -22.584  0.00  0.00    +0.034 C 
ATOM      7  C   UNL     1      30.358 -10.162 -22.996  0.00  0.00    +0.034 C 
ATOM      8  C   UNL     1      33.300  -7.079 -21.005  0.00  0.00    -0.002 C 
ATOM      9  C   UNL     1      31.714  -9.270 -20.222  0.00  0.00    -0.002 C 
ATOM     10  C   UNL     1      32.898  -7.223 -19.675  0.00  0.00    -0.000 C 
ATOM     11  C   UNL     1      32.108  -8.314 -19.286  0.00  0.00    -0.000 C 
ENDROOT
BRANCH   2  12
ATOM     12  C   UNL     1      32.711  -6.889 -24.180  0.00  0.00    +0.006 C 
ATOM     13  C   UNL     1      33.572  -6.248 -25.067  0.00  0.00    -0.002 C 
ATOM     14  C   UNL     1      31.411  -6.414 -24.000  0.00  0.00    -0.002 C 
ATOM     15  C   UNL     1      33.136  -5.130 -25.777  0.00  0.00    -0.000 C 
ATOM     16  C   UNL     1      30.975  -5.297 -24.712  0.00  0.00    -0.000 C 
ATOM     17  C   UNL     1      31.837  -4.654 -25.600  0.00  0.00    -0.000 C 
ENDBRANCH   2  12
BRANCH   2  18
ATOM     18  C   UNL     1      34.670  -8.443 -23.651  0.00  0.00    +0.034 C 
BRANCH  18  19
ATOM     19  C   UNL     1      34.836  -9.827 -24.275  0.00  0.00    -0.020 C 
BRANCH  19  20
ATOM     20  C   UNL     1      35.456  -9.732 -25.668  0.00  0.00    -0.082 C 
BRANCH  20  21
ATOM     21  N   UNL     1      35.236 -10.969 -26.408  0.00  0.00    +0.382 N 
ATOM     22  C   UNL     1      34.066 -11.674 -25.904  0.00  0.00    -0.106 C 
ATOM     23  H   UNL     1      36.055 -11.568 -26.308  0.00  0.00    -0.085 HD
ATOM     24  H   UNL     1      35.081 -10.738 -27.389  0.00  0.00    -0.085 HD
ENDBRANCH  20  21
ENDBRANCH  19  20
ENDBRANCH  18  19
ENDBRANCH   2  18
TORSDOF 5
ENDMDL
