MODEL 1
REMARK VINA RESULT:     -10.4      0.000      0.000
REMARK  Name = 6076
REMARK  3 active torsions:
REMARK  status: ('A' for Active; 'I' for Inactive)
REMARK    1  A    between atoms: P_1  and  O_25
REMARK    2  A    between atoms: C_8  and  O_23
REMARK    3  A    between atoms: C_9  and  N_11
REMARK                            x       y       z     vdW  Elec       q    Type
REMARK                         _______ _______ _______ _____ _____    ______ ____
ROOT
ATOM      1  P   UNL     1      33.482 -14.328 -22.965  0.00  0.00    +0.476 P 
ATOM      2  O   UNL     1      35.390 -17.445 -20.653  0.00  0.00    -0.333 OA
ATOM      3  O   UNL     1      33.889 -15.825 -23.461  0.00  0.00    -0.271 OA
ATOM      4  O   UNL     1      34.395 -14.036 -21.652  0.00  0.00    -0.271 OA
ATOM      5  O   UNL     1      33.589 -13.277 -24.031  0.00  0.00    -0.227 OA
ATOM      6  C   UNL     1      34.067 -16.781 -22.442  0.00  0.00    +0.186 C 
ATOM      7  C   UNL     1      35.118 -16.303 -21.462  0.00  0.00    +0.177 C 
ATOM      8  C   UNL     1      34.637 -18.121 -22.846  0.00  0.00    +0.188 C 
ATOM      9  C   UNL     1      35.252 -18.605 -21.520  0.00  0.00    +0.225 C 
ATOM     10  C   UNL     1      34.623 -15.085 -20.709  0.00  0.00    +0.186 C 
ENDROOT
BRANCH   9  11
ATOM     11  N   UNL     1      34.454 -19.628 -20.843  0.00  0.00    -0.247 N 
ATOM     12  N   UNL     1      32.671 -20.831 -20.257  0.00  0.00    -0.242 NA
ATOM     13  N   UNL     1      36.153 -20.718 -19.493  0.00  0.00    -0.228 NA
ATOM     14  N   UNL     1      35.205 -22.540 -18.174  0.00  0.00    -0.229 NA
ATOM     15  C   UNL     1      34.901 -20.553 -19.943  0.00  0.00    +0.152 C 
ATOM     16  C   UNL     1      33.108 -19.834 -20.998  0.00  0.00    +0.223 C 
ATOM     17  C   UNL     1      33.780 -21.289 -19.593  0.00  0.00    +0.140 C 
ATOM     18  C   UNL     1      33.965 -22.316 -18.671  0.00  0.00    +0.143 C 
ATOM     19  C   UNL     1      36.207 -21.739 -18.609  0.00  0.00    +0.253 C 
ATOM     20  N   UNL     1      32.883 -23.114 -18.261  0.00  0.00    -0.342 N 
ATOM     21  H   UNL     1      33.026 -23.838 -17.608  0.00  0.00    +0.144 HD
ATOM     22  H   UNL     1      31.983 -22.950 -18.624  0.00  0.00    +0.144 HD
ENDBRANCH   9  11
BRANCH   8  23
ATOM     23  O   UNL     1      35.670 -17.944 -23.810  0.00  0.00    -0.378 OA
ATOM     24  H   UNL     1      36.018 -18.809 -24.074  0.00  0.00    +0.211 HD
ENDBRANCH   8  23
BRANCH   1  25
ATOM     25  O   UNL     1      31.986 -14.496 -22.370  0.00  0.00    -0.302 OA
ATOM     26  H   UNL     1      31.889 -13.948 -21.576  0.00  0.00    +0.222 HD
ENDBRANCH   1  25
TORSDOF 3
ENDMDL
MODEL 2
REMARK VINA RESULT:      -9.8      8.292      9.847
REMARK  Name = 6076
REMARK  3 active torsions:
REMARK  status: ('A' for Active; 'I' for Inactive)
REMARK    1  A    between atoms: P_1  and  O_25
REMARK    2  A    between atoms: C_8  and  O_23
REMARK    3  A    between atoms: C_9  and  N_11
REMARK                            x       y       z     vdW  Elec       q    Type
REMARK                         _______ _______ _______ _____ _____    ______ ____
ROOT
ATOM      1  P   UNL     1      28.873 -22.798 -15.748  0.00  0.00    +0.476 P 
ATOM      2  O   UNL     1      32.050 -25.332 -14.268  0.00  0.00    -0.333 OA
ATOM      3  O   UNL     1      30.063 -22.395 -14.713  0.00  0.00    -0.271 OA
ATOM      4  O   UNL     1      28.771 -24.420 -15.693  0.00  0.00    -0.271 OA
ATOM      5  O   UNL     1      27.571 -22.094 -15.492  0.00  0.00    -0.227 OA
ATOM      6  C   UNL     1      31.205 -23.221 -14.740  0.00  0.00    +0.186 C 
ATOM      7  C   UNL     1      30.810 -24.658 -14.474  0.00  0.00    +0.177 C 
ATOM      8  C   UNL     1      32.240 -23.001 -13.661  0.00  0.00    +0.188 C 
ATOM      9  C   UNL     1      32.932 -24.376 -13.617  0.00  0.00    +0.225 C 
ATOM     10  C   UNL     1      29.969 -25.195 -15.615  0.00  0.00    +0.186 C 
ENDROOT
BRANCH   9  11
ATOM     11  N   UNL     1      34.241 -24.394 -14.274  0.00  0.00    -0.247 N 
ATOM     12  N   UNL     1      35.766 -24.199 -15.888  0.00  0.00    -0.242 NA
ATOM     13  N   UNL     1      35.671 -25.064 -12.428  0.00  0.00    -0.228 NA
ATOM     14  N   UNL     1      38.005 -25.214 -13.125  0.00  0.00    -0.229 NA
ATOM     15  C   UNL     1      35.440 -24.708 -13.700  0.00  0.00    +0.152 C 
ATOM     16  C   UNL     1      34.487 -24.097 -15.588  0.00  0.00    +0.223 C 
ATOM     17  C   UNL     1      36.372 -24.581 -14.718  0.00  0.00    +0.140 C 
ATOM     18  C   UNL     1      37.699 -24.849 -14.392  0.00  0.00    +0.143 C 
ATOM     19  C   UNL     1      36.988 -25.298 -12.234  0.00  0.00    +0.253 C 
ATOM     20  N   UNL     1      38.710 -24.743 -15.362  0.00  0.00    -0.342 N 
ATOM     21  H   UNL     1      39.645 -24.936 -15.121  0.00  0.00    +0.144 HD
ATOM     22  H   UNL     1      38.485 -24.477 -16.283  0.00  0.00    +0.144 HD
ENDBRANCH   9  11
BRANCH   8  23
ATOM     23  O   UNL     1      31.602 -22.752 -12.413  0.00  0.00    -0.378 OA
ATOM     24  H   UNL     1      31.359 -23.595 -12.000  0.00  0.00    +0.211 HD
ENDBRANCH   8  23
BRANCH   1  25
ATOM     25  O   UNL     1      29.495 -22.496 -17.212  0.00  0.00    -0.302 OA
ATOM     26  H   UNL     1      29.425 -23.289 -17.764  0.00  0.00    +0.222 HD
ENDBRANCH   1  25
TORSDOF 3
ENDMDL
MODEL 3
REMARK VINA RESULT:      -9.1      7.407      9.655
REMARK  Name = 6076
REMARK  3 active torsions:
REMARK  status: ('A' for Active; 'I' for Inactive)
REMARK    1  A    between atoms: P_1  and  O_25
REMARK    2  A    between atoms: C_8  and  O_23
REMARK    3  A    between atoms: C_9  and  N_11
REMARK                            x       y       z     vdW  Elec       q    Type
REMARK                         _______ _______ _______ _____ _____    ______ ____
ROOT
ATOM      1  P   UNL     1      28.432 -23.052 -15.938  0.00  0.00    +0.476 P 
ATOM      2  O   UNL     1      31.800 -25.366 -14.526  0.00  0.00    -0.333 OA
ATOM      3  O   UNL     1      29.372 -22.747 -14.645  0.00  0.00    -0.271 OA
ATOM      4  O   UNL     1      28.632 -24.631 -16.268  0.00  0.00    -0.271 OA
ATOM      5  O   UNL     1      26.998 -22.639 -15.766  0.00  0.00    -0.227 OA
ATOM      6  C   UNL     1      30.643 -23.358 -14.654  0.00  0.00    +0.186 C 
ATOM      7  C   UNL     1      30.494 -24.858 -14.792  0.00  0.00    +0.177 C 
ATOM      8  C   UNL     1      31.462 -23.263 -13.387  0.00  0.00    +0.188 C 
ATOM      9  C   UNL     1      32.389 -24.484 -13.531  0.00  0.00    +0.225 C 
ATOM     10  C   UNL     1      29.933 -25.211 -16.154  0.00  0.00    +0.186 C 
ENDROOT
BRANCH   9  11
ATOM     11  N   UNL     1      33.754 -24.138 -13.932  0.00  0.00    -0.247 N 
ATOM     12  N   UNL     1      35.959 -23.845 -13.784  0.00  0.00    -0.242 NA
ATOM     13  N   UNL     1      33.393 -23.435 -16.229  0.00  0.00    -0.228 NA
ATOM     14  N   UNL     1      35.486 -22.760 -17.289  0.00  0.00    -0.229 NA
ATOM     15  C   UNL     1      34.156 -23.673 -15.152  0.00  0.00    +0.152 C 
ATOM     16  C   UNL     1      34.872 -24.224 -13.145  0.00  0.00    +0.223 C 
ATOM     17  C   UNL     1      35.526 -23.497 -15.039  0.00  0.00    +0.140 C 
ATOM     18  C   UNL     1      36.194 -23.022 -16.164  0.00  0.00    +0.143 C 
ATOM     19  C   UNL     1      34.150 -22.979 -17.252  0.00  0.00    +0.253 C 
ATOM     20  N   UNL     1      37.584 -22.817 -16.139  0.00  0.00    -0.342 N 
ATOM     21  H   UNL     1      38.046 -22.480 -16.941  0.00  0.00    +0.144 HD
ATOM     22  H   UNL     1      38.096 -23.008 -15.320  0.00  0.00    +0.144 HD
ENDBRANCH   9  11
BRANCH   8  23
ATOM     23  O   UNL     1      30.625 -23.436 -12.248  0.00  0.00    -0.378 OA
ATOM     24  H   UNL     1      30.846 -22.770 -11.580  0.00  0.00    +0.211 HD
ENDBRANCH   8  23
BRANCH   1  25
ATOM     25  O   UNL     1      29.178 -22.299 -17.163  0.00  0.00    -0.302 OA
ATOM     26  H   UNL     1      28.679 -22.441 -17.982  0.00  0.00    +0.222 HD
ENDBRANCH   1  25
TORSDOF 3
ENDMDL
MODEL 4
REMARK VINA RESULT:      -9.0      7.581      9.829
REMARK  Name = 6076
REMARK  3 active torsions:
REMARK  status: ('A' for Active; 'I' for Inactive)
REMARK    1  A    between atoms: P_1  and  O_25
REMARK    2  A    between atoms: C_8  and  O_23
REMARK    3  A    between atoms: C_9  and  N_11
REMARK                            x       y       z     vdW  Elec       q    Type
REMARK                         _______ _______ _______ _____ _____    ______ ____
ROOT
ATOM      1  P   UNL     1      37.613 -23.768 -12.224  0.00  0.00    +0.476 P 
ATOM      2  O   UNL     1      35.363 -24.847 -15.756  0.00  0.00    -0.333 OA
ATOM      3  O   UNL     1      37.117 -22.785 -13.423  0.00  0.00    -0.271 OA
ATOM      4  O   UNL     1      37.593 -25.269 -12.847  0.00  0.00    -0.271 OA
ATOM      5  O   UNL     1      38.927 -23.377 -11.611  0.00  0.00    -0.227 OA
ATOM      6  C   UNL     1      36.043 -23.262 -14.201  0.00  0.00    +0.186 C 
ATOM      7  C   UNL     1      36.397 -24.605 -14.803  0.00  0.00    +0.177 C 
ATOM      8  C   UNL     1      35.688 -22.474 -15.441  0.00  0.00    +0.188 C 
ATOM      9  C   UNL     1      34.994 -23.549 -16.298  0.00  0.00    +0.225 C 
ATOM     10  C   UNL     1      36.527 -25.653 -13.716  0.00  0.00    +0.186 C 
ENDROOT
BRANCH   9  11
ATOM     11  N   UNL     1      33.535 -23.427 -16.321  0.00  0.00    -0.247 N 
ATOM     12  N   UNL     1      31.501 -22.868 -17.042  0.00  0.00    -0.242 NA
ATOM     13  N   UNL     1      32.947 -24.558 -14.253  0.00  0.00    -0.228 NA
ATOM     14  N   UNL     1      30.531 -24.576 -13.909  0.00  0.00    -0.229 NA
ATOM     15  C   UNL     1      32.660 -23.896 -15.383  0.00  0.00    +0.152 C 
ATOM     16  C   UNL     1      32.793 -22.817 -17.297  0.00  0.00    +0.223 C 
ATOM     17  C   UNL     1      31.404 -23.538 -15.849  0.00  0.00    +0.140 C 
ATOM     18  C   UNL     1      30.314 -23.904 -15.065  0.00  0.00    +0.143 C 
ATOM     19  C   UNL     1      31.815 -24.857 -13.579  0.00  0.00    +0.253 C 
ATOM     20  N   UNL     1      29.005 -23.584 -15.462  0.00  0.00    -0.342 N 
ATOM     21  H   UNL     1      28.241 -23.848 -14.899  0.00  0.00    +0.144 HD
ATOM     22  H   UNL     1      28.850 -23.096 -16.303  0.00  0.00    +0.144 HD
ENDBRANCH   9  11
BRANCH   8  23
ATOM     23  O   UNL     1      36.872 -22.036 -16.099  0.00  0.00    -0.378 OA
ATOM     24  H   UNL     1      37.578 -22.685 -15.961  0.00  0.00    +0.211 HD
ENDBRANCH   8  23
BRANCH   1  25
ATOM     25  O   UNL     1      36.383 -23.767 -11.170  0.00  0.00    -0.302 OA
ATOM     26  H   UNL     1      35.907 -24.610 -11.227  0.00  0.00    +0.222 HD
ENDBRANCH   1  25
TORSDOF 3
ENDMDL
MODEL 5
REMARK VINA RESULT:      -9.0      8.303     10.349
REMARK  Name = 6076
REMARK  3 active torsions:
REMARK  status: ('A' for Active; 'I' for Inactive)
REMARK    1  A    between atoms: P_1  and  O_25
REMARK    2  A    between atoms: C_8  and  O_23
REMARK    3  A    between atoms: C_9  and  N_11
REMARK                            x       y       z     vdW  Elec       q    Type
REMARK                         _______ _______ _______ _____ _____    ______ ____
ROOT
ATOM      1  P   UNL     1      38.425 -25.647 -14.337  0.00  0.00    +0.476 P 
ATOM      2  O   UNL     1      35.374 -22.623 -14.832  0.00  0.00    -0.333 OA
ATOM      3  O   UNL     1      37.026 -25.506 -13.517  0.00  0.00    -0.271 OA
ATOM      4  O   UNL     1      38.717 -24.178 -14.968  0.00  0.00    -0.271 OA
ATOM      5  O   UNL     1      39.561 -26.201 -13.525  0.00  0.00    -0.227 OA
ATOM      6  C   UNL     1      36.021 -24.746 -14.147  0.00  0.00    +0.186 C 
ATOM      7  C   UNL     1      36.538 -23.355 -14.450  0.00  0.00    +0.177 C 
ATOM      8  C   UNL     1      34.788 -24.426 -13.334  0.00  0.00    +0.188 C 
ATOM      9  C   UNL     1      34.276 -23.157 -14.042  0.00  0.00    +0.225 C 
ATOM     10  C   UNL     1      37.632 -23.414 -15.496  0.00  0.00    +0.186 C 
ENDROOT
BRANCH   9  11
ATOM     11  N   UNL     1      33.122 -23.395 -14.909  0.00  0.00    -0.247 N 
ATOM     12  N   UNL     1      31.891 -23.476 -16.766  0.00  0.00    -0.242 NA
ATOM     13  N   UNL     1      31.511 -24.251 -13.305  0.00  0.00    -0.228 NA
ATOM     14  N   UNL     1      29.387 -24.788 -14.381  0.00  0.00    -0.229 NA
ATOM     15  C   UNL     1      31.904 -23.887 -14.535  0.00  0.00    +0.152 C 
ATOM     16  C   UNL     1      33.066 -23.163 -16.258  0.00  0.00    +0.223 C 
ATOM     17  C   UNL     1      31.156 -23.930 -15.700  0.00  0.00    +0.140 C 
ATOM     18  C   UNL     1      29.851 -24.402 -15.594  0.00  0.00    +0.143 C 
ATOM     19  C   UNL     1      30.233 -24.690 -13.327  0.00  0.00    +0.253 C 
ATOM     20  N   UNL     1      29.023 -24.481 -16.726  0.00  0.00    -0.342 N 
ATOM     21  H   UNL     1      28.101 -24.817 -16.639  0.00  0.00    +0.144 HD
ATOM     22  H   UNL     1      29.362 -24.201 -17.607  0.00  0.00    +0.144 HD
ENDBRANCH   9  11
BRANCH   8  23
ATOM     23  O   UNL     1      35.152 -24.107 -11.995  0.00  0.00    -0.378 OA
ATOM     24  H   UNL     1      34.978 -24.869 -11.422  0.00  0.00    +0.211 HD
ENDBRANCH   8  23
BRANCH   1  25
ATOM     25  O   UNL     1      38.047 -26.556 -15.623  0.00  0.00    -0.302 OA
ATOM     26  H   UNL     1      37.303 -26.153 -16.096  0.00  0.00    +0.222 HD
ENDBRANCH   1  25
TORSDOF 3
ENDMDL
MODEL 6
REMARK VINA RESULT:      -8.9      9.281     11.009
REMARK  Name = 6076
REMARK  3 active torsions:
REMARK  status: ('A' for Active; 'I' for Inactive)
REMARK    1  A    between atoms: P_1  and  O_25
REMARK    2  A    between atoms: C_8  and  O_23
REMARK    3  A    between atoms: C_9  and  N_11
REMARK                            x       y       z     vdW  Elec       q    Type
REMARK                         _______ _______ _______ _____ _____    ______ ____
ROOT
ATOM      1  P   UNL     1      40.428 -26.231 -14.579  0.00  0.00    +0.476 P 
ATOM      2  O   UNL     1      37.067 -23.817 -13.322  0.00  0.00    -0.333 OA
ATOM      3  O   UNL     1      38.903 -26.725 -14.295  0.00  0.00    -0.271 OA
ATOM      4  O   UNL     1      40.587 -24.817 -13.795  0.00  0.00    -0.271 OA
ATOM      5  O   UNL     1      41.478 -27.246 -14.231  0.00  0.00    -0.227 OA
ATOM      6  C   UNL     1      37.915 -25.721 -14.346  0.00  0.00    +0.186 C 
ATOM      7  C   UNL     1      38.248 -24.617 -13.365  0.00  0.00    +0.177 C 
ATOM      8  C   UNL     1      36.523 -26.101 -13.893  0.00  0.00    +0.188 C 
ATOM      9  C   UNL     1      35.948 -24.729 -13.493  0.00  0.00    +0.225 C 
ATOM     10  C   UNL     1      39.503 -23.887 -13.799  0.00  0.00    +0.186 C 
ENDROOT
BRANCH   9  11
ATOM     11  N   UNL     1      35.015 -24.177 -14.477  0.00  0.00    -0.247 N 
ATOM     12  N   UNL     1      34.295 -23.155 -16.323  0.00  0.00    -0.242 NA
ATOM     13  N   UNL     1      32.885 -24.718 -13.443  0.00  0.00    -0.228 NA
ATOM     14  N   UNL     1      31.015 -23.947 -14.809  0.00  0.00    -0.229 NA
ATOM     15  C   UNL     1      33.651 -24.196 -14.412  0.00  0.00    +0.152 C 
ATOM     16  C   UNL     1      35.354 -23.541 -15.642  0.00  0.00    +0.223 C 
ATOM     17  C   UNL     1      33.224 -23.558 -15.566  0.00  0.00    +0.140 C 
ATOM     18  C   UNL     1      31.849 -23.441 -15.749  0.00  0.00    +0.143 C 
ATOM     19  C   UNL     1      31.575 -24.545 -13.731  0.00  0.00    +0.253 C 
ATOM     20  N   UNL     1      31.329 -22.810 -16.891  0.00  0.00    -0.342 N 
ATOM     21  H   UNL     1      30.354 -22.733 -17.010  0.00  0.00    +0.144 HD
ATOM     22  H   UNL     1      31.937 -22.444 -17.573  0.00  0.00    +0.144 HD
ENDBRANCH   9  11
BRANCH   8  23
ATOM     23  O   UNL     1      36.594 -26.938 -12.743  0.00  0.00    -0.378 OA
ATOM     24  H   UNL     1      35.770 -27.441 -12.658  0.00  0.00    +0.211 HD
ENDBRANCH   8  23
BRANCH   1  25
ATOM     25  O   UNL     1      40.428 -25.812 -16.144  0.00  0.00    -0.302 OA
ATOM     26  H   UNL     1      40.196 -24.874 -16.228  0.00  0.00    +0.222 HD
ENDBRANCH   1  25
TORSDOF 3
ENDMDL
MODEL 7
REMARK VINA RESULT:      -8.6      7.950     10.320
REMARK  Name = 6076
REMARK  3 active torsions:
REMARK  status: ('A' for Active; 'I' for Inactive)
REMARK    1  A    between atoms: P_1  and  O_25
REMARK    2  A    between atoms: C_8  and  O_23
REMARK    3  A    between atoms: C_9  and  N_11
REMARK                            x       y       z     vdW  Elec       q    Type
REMARK                         _______ _______ _______ _____ _____    ______ ____
ROOT
ATOM      1  P   UNL     1      37.953 -23.771 -11.915  0.00  0.00    +0.476 P 
ATOM      2  O   UNL     1      35.223 -25.336 -14.881  0.00  0.00    -0.333 OA
ATOM      3  O   UNL     1      37.080 -22.930 -13.002  0.00  0.00    -0.271 OA
ATOM      4  O   UNL     1      38.035 -25.287 -12.493  0.00  0.00    -0.271 OA
ATOM      5  O   UNL     1      39.289 -23.163 -11.596  0.00  0.00    -0.227 OA
ATOM      6  C   UNL     1      35.956 -23.595 -13.531  0.00  0.00    +0.186 C 
ATOM      7  C   UNL     1      36.380 -24.901 -14.169  0.00  0.00    +0.177 C 
ATOM      8  C   UNL     1      35.240 -22.929 -14.683  0.00  0.00    +0.188 C 
ATOM      9  C   UNL     1      34.558 -24.134 -15.357  0.00  0.00    +0.225 C 
ATOM     10  C   UNL     1      36.886 -25.864 -13.114  0.00  0.00    +0.186 C 
ENDROOT
BRANCH   9  11
ATOM     11  N   UNL     1      33.124 -24.227 -15.078  0.00  0.00    -0.247 N 
ATOM     12  N   UNL     1      31.234 -24.811 -14.051  0.00  0.00    -0.242 NA
ATOM     13  N   UNL     1      32.217 -22.887 -16.890  0.00  0.00    -0.228 NA
ATOM     14  N   UNL     1      29.781 -22.784 -16.782  0.00  0.00    -0.229 NA
ATOM     15  C   UNL     1      32.112 -23.650 -15.792  0.00  0.00    +0.152 C 
ATOM     16  C   UNL     1      32.547 -24.914 -14.043  0.00  0.00    +0.223 C 
ATOM     17  C   UNL     1      30.949 -24.025 -15.139  0.00  0.00    +0.140 C 
ATOM     18  C   UNL     1      29.750 -23.561 -15.674  0.00  0.00    +0.143 C 
ATOM     19  C   UNL     1      30.994 -22.499 -17.314  0.00  0.00    +0.253 C 
ATOM     20  N   UNL     1      28.523 -23.891 -15.074  0.00  0.00    -0.342 N 
ATOM     21  H   UNL     1      27.681 -23.557 -15.461  0.00  0.00    +0.144 HD
ATOM     22  H   UNL     1      28.504 -24.456 -14.268  0.00  0.00    +0.144 HD
ENDBRANCH   9  11
BRANCH   8  23
ATOM     23  O   UNL     1      36.185 -22.356 -15.581  0.00  0.00    -0.378 OA
ATOM     24  H   UNL     1      35.725 -22.027 -16.368  0.00  0.00    +0.211 HD
ENDBRANCH   8  23
BRANCH   1  25
ATOM     25  O   UNL     1      36.977 -23.897 -10.628  0.00  0.00    -0.302 OA
ATOM     26  H   UNL     1      36.420 -23.106 -10.566  0.00  0.00    +0.222 HD
ENDBRANCH   1  25
TORSDOF 3
ENDMDL
MODEL 8
REMARK VINA RESULT:      -8.4      1.951      3.345
REMARK  Name = 6076
REMARK  3 active torsions:
REMARK  status: ('A' for Active; 'I' for Inactive)
REMARK    1  A    between atoms: P_1  and  O_25
REMARK    2  A    between atoms: C_8  and  O_23
REMARK    3  A    between atoms: C_9  and  N_11
REMARK                            x       y       z     vdW  Elec       q    Type
REMARK                         _______ _______ _______ _____ _____    ______ ____
ROOT
ATOM      1  P   UNL     1      34.185 -16.301 -21.730  0.00  0.00    +0.476 P 
ATOM      2  O   UNL     1      35.421 -20.435 -21.443  0.00  0.00    -0.333 OA
ATOM      3  O   UNL     1      33.323 -17.556 -21.155  0.00  0.00    -0.271 OA
ATOM      4  O   UNL     1      35.348 -16.952 -22.660  0.00  0.00    -0.271 OA
ATOM      5  O   UNL     1      33.360 -15.255 -22.423  0.00  0.00    -0.227 OA
ATOM      6  C   UNL     1      34.073 -18.678 -20.746  0.00  0.00    +0.186 C 
ATOM      7  C   UNL     1      34.929 -19.173 -21.892  0.00  0.00    +0.177 C 
ATOM      8  C   UNL     1      33.303 -19.931 -20.397  0.00  0.00    +0.188 C 
ATOM      9  C   UNL     1      34.369 -21.018 -20.626  0.00  0.00    +0.225 C 
ATOM     10  C   UNL     1      35.995 -18.152 -22.235  0.00  0.00    +0.186 C 
ENDROOT
BRANCH   9  11
ATOM     11  N   UNL     1      34.948 -21.541 -19.388  0.00  0.00    -0.247 N 
ATOM     12  N   UNL     1      36.479 -22.004 -17.835  0.00  0.00    -0.242 NA
ATOM     13  N   UNL     1      32.993 -22.553 -18.360  0.00  0.00    -0.228 NA
ATOM     14  N   UNL     1      33.546 -23.566 -16.209  0.00  0.00    -0.229 NA
ATOM     15  C   UNL     1      34.292 -22.222 -18.401  0.00  0.00    +0.152 C 
ATOM     16  C   UNL     1      36.258 -21.436 -19.002  0.00  0.00    +0.223 C 
ATOM     17  C   UNL     1      35.259 -22.499 -17.448  0.00  0.00    +0.140 C 
ATOM     18  C   UNL     1      34.845 -23.199 -16.318  0.00  0.00    +0.143 C 
ATOM     19  C   UNL     1      32.713 -23.225 -17.222  0.00  0.00    +0.253 C 
ATOM     20  N   UNL     1      35.759 -23.521 -15.300  0.00  0.00    -0.342 N 
ATOM     21  H   UNL     1      35.455 -24.016 -14.505  0.00  0.00    +0.144 HD
ATOM     22  H   UNL     1      36.703 -23.253 -15.382  0.00  0.00    +0.144 HD
ENDBRANCH   9  11
BRANCH   8  23
ATOM     23  O   UNL     1      32.231 -20.119 -21.315  0.00  0.00    -0.378 OA
ATOM     24  H   UNL     1      32.468 -19.735 -22.173  0.00  0.00    +0.211 HD
ENDBRANCH   8  23
BRANCH   1  25
ATOM     25  O   UNL     1      34.987 -15.740 -20.439  0.00  0.00    -0.302 OA
ATOM     26  H   UNL     1      34.630 -16.147 -19.634  0.00  0.00    +0.222 HD
ENDBRANCH   1  25
TORSDOF 3
ENDMDL
MODEL 9
REMARK VINA RESULT:      -8.3      7.223      9.427
REMARK  Name = 6076
REMARK  3 active torsions:
REMARK  status: ('A' for Active; 'I' for Inactive)
REMARK    1  A    between atoms: P_1  and  O_25
REMARK    2  A    between atoms: C_8  and  O_23
REMARK    3  A    between atoms: C_9  and  N_11
REMARK                            x       y       z     vdW  Elec       q    Type
REMARK                         _______ _______ _______ _____ _____    ______ ____
ROOT
ATOM      1  P   UNL     1      38.904 -25.105 -14.163  0.00  0.00    +0.476 P 
ATOM      2  O   UNL     1      35.106 -23.080 -14.573  0.00  0.00    -0.333 OA
ATOM      3  O   UNL     1      37.535 -25.688 -14.824  0.00  0.00    -0.271 OA
ATOM      4  O   UNL     1      38.445 -23.868 -13.215  0.00  0.00    -0.271 OA
ATOM      5  O   UNL     1      39.736 -26.139 -13.460  0.00  0.00    -0.227 OA
ATOM      6  C   UNL     1      36.602 -24.722 -15.249  0.00  0.00    +0.186 C 
ATOM      7  C   UNL     1      36.225 -23.822 -14.091  0.00  0.00    +0.177 C 
ATOM      8  C   UNL     1      35.242 -25.222 -15.681  0.00  0.00    +0.188 C 
ATOM      9  C   UNL     1      34.371 -23.972 -15.455  0.00  0.00    +0.225 C 
ATOM     10  C   UNL     1      37.415 -22.986 -13.664  0.00  0.00    +0.186 C 
ENDROOT
BRANCH   9  11
ATOM     11  N   UNL     1      34.031 -23.264 -16.691  0.00  0.00    -0.247 N 
ATOM     12  N   UNL     1      32.796 -22.496 -18.380  0.00  0.00    -0.242 NA
ATOM     13  N   UNL     1      36.187 -22.320 -17.287  0.00  0.00    -0.228 NA
ATOM     14  N   UNL     1      36.047 -21.024 -19.351  0.00  0.00    -0.229 NA
ATOM     15  C   UNL     1      34.877 -22.537 -17.477  0.00  0.00    +0.152 C 
ATOM     16  C   UNL     1      32.792 -23.211 -17.274  0.00  0.00    +0.223 C 
ATOM     17  C   UNL     1      34.092 -22.069 -18.519  0.00  0.00    +0.140 C 
ATOM     18  C   UNL     1      34.724 -21.285 -19.480  0.00  0.00    +0.143 C 
ATOM     19  C   UNL     1      36.687 -21.550 -18.279  0.00  0.00    +0.253 C 
ATOM     20  N   UNL     1      34.003 -20.767 -20.570  0.00  0.00    -0.342 N 
ATOM     21  H   UNL     1      34.461 -20.213 -21.243  0.00  0.00    +0.144 HD
ATOM     22  H   UNL     1      33.042 -20.957 -20.660  0.00  0.00    +0.144 HD
ENDBRANCH   9  11
BRANCH   8  23
ATOM     23  O   UNL     1      34.806 -26.265 -14.815  0.00  0.00    -0.378 OA
ATOM     24  H   UNL     1      34.582 -27.048 -15.340  0.00  0.00    +0.211 HD
ENDBRANCH   8  23
BRANCH   1  25
ATOM     25  O   UNL     1      39.671 -24.388 -15.396  0.00  0.00    -0.302 OA
ATOM     26  H   UNL     1      40.386 -24.963 -15.711  0.00  0.00    +0.222 HD
ENDBRANCH   1  25
TORSDOF 3
ENDMDL
