MODEL 1
REMARK VINA RESULT:      -7.6      0.000      0.000
REMARK  Name = 5905
REMARK  4 active torsions:
REMARK  status: ('A' for Active; 'I' for Inactive)
REMARK    1  A    between atoms: N_4  and  C1*_13
REMARK    2  A    between atoms: C3*_12  and  O3*_16
REMARK    3  A    between atoms: C4*_15  and  C5*_18
REMARK    4  A    between atoms: C5*_18  and  O5*_19
REMARK                            x       y       z     vdW  Elec       q    Type
REMARK                         _______ _______ _______ _____ _____    ______ ____
ROOT
ATOM      1  I   UNL     1      31.736 -24.131 -14.375  0.00  0.00    -0.036 I 
ATOM      2  O   UNL     1      37.099 -22.370 -16.793  0.00  0.00    -0.252 OA
ATOM      3  O   UNL     1      32.604 -23.143 -17.338  0.00  0.00    -0.269 OA
ATOM      4  N   UNL     1      35.892 -23.125 -14.943  0.00  0.00    -0.218 N 
ATOM      5  N   UNL     1      34.854 -22.764 -17.042  0.00  0.00    -0.235 N 
ATOM      6  C   UNL     1      36.032 -22.728 -16.290  0.00  0.00    +0.315 C 
ATOM      7  C   UNL     1      34.652 -23.514 -14.449  0.00  0.00    +0.081 C 
ATOM      8  C   UNL     1      33.528 -23.546 -15.176  0.00  0.00    +0.099 C 
ATOM      9  C   UNL     1      33.591 -23.142 -16.607  0.00  0.00    +0.259 C 
ATOM     10  H   UNL     1      34.928 -22.491 -17.986  0.00  0.00    +0.159 HD
ENDROOT
BRANCH   4  13
ATOM     11  O4* UNL     1      37.839 -24.278 -14.342  0.00  0.00    -0.335 OA
ATOM     12  C3* UNL     1      37.744 -24.027 -11.986  0.00  0.00    +0.144 C 
ATOM     13  C1* UNL     1      37.016 -23.139 -14.052  0.00  0.00    +0.202 C 
ATOM     14  C2* UNL     1      36.609 -23.233 -12.591  0.00  0.00    +0.083 C 
ATOM     15  C4* UNL     1      38.148 -24.966 -13.115  0.00  0.00    +0.173 C 
BRANCH  12  16
ATOM     16  O3* UNL     1      38.827 -23.154 -11.672  0.00  0.00    -0.382 OA
ATOM     17  H3* UNL     1      38.545 -22.523 -10.990  0.00  0.00    +0.210 HD
ENDBRANCH  12  16
BRANCH  15  18
ATOM     18  C5* UNL     1      37.370 -26.275 -13.103  0.00  0.00    +0.169 C 
BRANCH  18  19
ATOM     19  O5* UNL     1      36.795 -26.455 -11.819  0.00  0.00    -0.379 OA
ATOM     20  H5* UNL     1      37.086 -25.741 -11.232  0.00  0.00    +0.211 HD
ENDBRANCH  18  19
ENDBRANCH  15  18
ENDBRANCH   4  13
TORSDOF 4
ENDMDL
MODEL 2
REMARK VINA RESULT:      -7.6      1.848      2.506
REMARK  Name = 5905
REMARK  4 active torsions:
REMARK  status: ('A' for Active; 'I' for Inactive)
REMARK    1  A    between atoms: N_4  and  C1*_13
REMARK    2  A    between atoms: C3*_12  and  O3*_16
REMARK    3  A    between atoms: C4*_15  and  C5*_18
REMARK    4  A    between atoms: C5*_18  and  O5*_19
REMARK                            x       y       z     vdW  Elec       q    Type
REMARK                         _______ _______ _______ _____ _____    ______ ____
ROOT
ATOM      1  I   UNL     1      30.726 -23.860 -13.847  0.00  0.00    -0.036 I 
ATOM      2  O   UNL     1      34.342 -22.703 -18.672  0.00  0.00    -0.252 OA
ATOM      3  O   UNL     1      30.136 -22.730 -16.827  0.00  0.00    -0.269 OA
ATOM      4  N   UNL     1      34.125 -23.445 -16.470  0.00  0.00    -0.218 N 
ATOM      5  N   UNL     1      32.251 -22.726 -17.731  0.00  0.00    -0.235 N 
ATOM      6  C   UNL     1      33.632 -22.943 -17.693  0.00  0.00    +0.315 C 
ATOM      7  C   UNL     1      33.259 -23.688 -15.410  0.00  0.00    +0.081 C 
ATOM      8  C   UNL     1      31.937 -23.478 -15.453  0.00  0.00    +0.099 C 
ATOM      9  C   UNL     1      31.338 -22.950 -16.709  0.00  0.00    +0.259 C 
ATOM     10  H   UNL     1      31.885 -22.377 -18.576  0.00  0.00    +0.159 HD
ENDROOT
BRANCH   4  13
ATOM     11  O4* UNL     1      35.677 -24.959 -15.588  0.00  0.00    -0.335 OA
ATOM     12  C3* UNL     1      37.283 -23.437 -14.736  0.00  0.00    +0.144 C 
ATOM     13  C1* UNL     1      35.521 -23.715 -16.287  0.00  0.00    +0.202 C 
ATOM     14  C2* UNL     1      36.226 -22.645 -15.470  0.00  0.00    +0.083 C 
ATOM     15  C4* UNL     1      36.606 -24.781 -14.502  0.00  0.00    +0.173 C 
BRANCH  12  16
ATOM     16  O3* UNL     1      38.423 -23.609 -15.574  0.00  0.00    -0.382 OA
ATOM     17  H3* UNL     1      38.378 -24.476 -16.008  0.00  0.00    +0.210 HD
ENDBRANCH  12  16
BRANCH  15  18
ATOM     18  C5* UNL     1      35.820 -24.830 -13.199  0.00  0.00    +0.169 C 
BRANCH  18  19
ATOM     19  O5* UNL     1      36.425 -25.776 -12.333  0.00  0.00    -0.379 OA
ATOM     20  H5* UNL     1      37.384 -25.632 -12.316  0.00  0.00    +0.211 HD
ENDBRANCH  18  19
ENDBRANCH  15  18
ENDBRANCH   4  13
TORSDOF 4
ENDMDL
MODEL 3
REMARK VINA RESULT:      -7.5      2.386      3.483
REMARK  Name = 5905
REMARK  4 active torsions:
REMARK  status: ('A' for Active; 'I' for Inactive)
REMARK    1  A    between atoms: N_4  and  C1*_13
REMARK    2  A    between atoms: C3*_12  and  O3*_16
REMARK    3  A    between atoms: C4*_15  and  C5*_18
REMARK    4  A    between atoms: C5*_18  and  O5*_19
REMARK                            x       y       z     vdW  Elec       q    Type
REMARK                         _______ _______ _______ _____ _____    ______ ____
ROOT
ATOM      1  I   UNL     1      33.760 -22.367 -18.888  0.00  0.00    -0.036 I 
ATOM      2  O   UNL     1      32.400 -24.561 -13.316  0.00  0.00    -0.252 OA
ATOM      3  O   UNL     1      30.998 -22.555 -17.202  0.00  0.00    -0.269 OA
ATOM      4  N   UNL     1      33.998 -24.151 -14.967  0.00  0.00    -0.218 N 
ATOM      5  N   UNL     1      31.722 -23.560 -15.264  0.00  0.00    -0.235 N 
ATOM      6  C   UNL     1      32.693 -24.125 -14.431  0.00  0.00    +0.315 C 
ATOM      7  C   UNL     1      34.248 -23.639 -16.235  0.00  0.00    +0.081 C 
ATOM      8  C   UNL     1      33.313 -23.099 -17.028  0.00  0.00    +0.099 C 
ATOM      9  C   UNL     1      31.910 -23.034 -16.535  0.00  0.00    +0.259 C 
ATOM     10  H   UNL     1      30.804 -23.530 -14.909  0.00  0.00    +0.159 HD
ENDROOT
BRANCH   4  13
ATOM     11  O4* UNL     1      36.006 -23.650 -13.872  0.00  0.00    -0.335 OA
ATOM     12  C3* UNL     1      37.286 -25.547 -14.492  0.00  0.00    +0.144 C 
ATOM     13  C1* UNL     1      35.095 -24.701 -14.225  0.00  0.00    +0.202 C 
ATOM     14  C2* UNL     1      35.880 -25.736 -15.013  0.00  0.00    +0.083 C 
ATOM     15  C4* UNL     1      37.348 -24.053 -14.203  0.00  0.00    +0.173 C 
BRANCH  12  16
ATOM     16  O3* UNL     1      37.452 -26.282 -13.282  0.00  0.00    -0.382 OA
ATOM     17  H3* UNL     1      37.127 -25.753 -12.536  0.00  0.00    +0.210 HD
ENDBRANCH  12  16
BRANCH  15  18
ATOM     18  C5* UNL     1      37.801 -23.236 -15.406  0.00  0.00    +0.169 C 
BRANCH  18  19
ATOM     19  O5* UNL     1      39.058 -23.724 -15.845  0.00  0.00    -0.379 OA
ATOM     20  H5* UNL     1      39.173 -24.638 -15.544  0.00  0.00    +0.211 HD
ENDBRANCH  18  19
ENDBRANCH  15  18
ENDBRANCH   4  13
TORSDOF 4
ENDMDL
MODEL 4
REMARK VINA RESULT:      -7.5      2.591      3.726
REMARK  Name = 5905
REMARK  4 active torsions:
REMARK  status: ('A' for Active; 'I' for Inactive)
REMARK    1  A    between atoms: N_4  and  C1*_13
REMARK    2  A    between atoms: C3*_12  and  O3*_16
REMARK    3  A    between atoms: C4*_15  and  C5*_18
REMARK    4  A    between atoms: C5*_18  and  O5*_19
REMARK                            x       y       z     vdW  Elec       q    Type
REMARK                         _______ _______ _______ _____ _____    ______ ____
ROOT
ATOM      1  I   UNL     1      36.077 -21.284 -19.786  0.00  0.00    -0.036 I 
ATOM      2  O   UNL     1      31.949 -23.749 -15.967  0.00  0.00    -0.252 OA
ATOM      3  O   UNL     1      32.872 -21.729 -19.987  0.00  0.00    -0.269 OA
ATOM      4  N   UNL     1      34.166 -23.169 -16.409  0.00  0.00    -0.218 N 
ATOM      5  N   UNL     1      32.433 -22.739 -17.967  0.00  0.00    -0.235 N 
ATOM      6  C   UNL     1      32.792 -23.257 -16.719  0.00  0.00    +0.315 C 
ATOM      7  C   UNL     1      35.056 -22.600 -17.313  0.00  0.00    +0.081 C 
ATOM      8  C   UNL     1      34.705 -22.106 -18.507  0.00  0.00    +0.099 C 
ATOM      9  C   UNL     1      33.272 -22.160 -18.910  0.00  0.00    +0.259 C 
ATOM     10  H   UNL     1      31.478 -22.789 -18.204  0.00  0.00    +0.159 HD
ENDROOT
BRANCH   4  13
ATOM     11  O4* UNL     1      35.722 -22.789 -14.702  0.00  0.00    -0.335 OA
ATOM     12  C3* UNL     1      36.388 -25.021 -14.261  0.00  0.00    +0.144 C 
ATOM     13  C1* UNL     1      34.679 -23.659 -15.163  0.00  0.00    +0.202 C 
ATOM     14  C2* UNL     1      35.271 -25.054 -15.278  0.00  0.00    +0.083 C 
ATOM     15  C4* UNL     1      36.866 -23.576 -14.321  0.00  0.00    +0.173 C 
BRANCH  12  16
ATOM     16  O3* UNL     1      35.865 -25.304 -12.965  0.00  0.00    -0.382 OA
ATOM     17  H3* UNL     1      36.216 -26.153 -12.653  0.00  0.00    +0.210 HD
ENDBRANCH  12  16
BRANCH  15  18
ATOM     18  C5* UNL     1      37.955 -23.357 -15.362  0.00  0.00    +0.169 C 
BRANCH  18  19
ATOM     19  O5* UNL     1      38.910 -24.399 -15.254  0.00  0.00    -0.379 OA
ATOM     20  H5* UNL     1      38.507 -25.162 -14.811  0.00  0.00    +0.211 HD
ENDBRANCH  18  19
ENDBRANCH  15  18
ENDBRANCH   4  13
TORSDOF 4
ENDMDL
MODEL 5
REMARK VINA RESULT:      -7.4      8.998     11.029
REMARK  Name = 5905
REMARK  4 active torsions:
REMARK  status: ('A' for Active; 'I' for Inactive)
REMARK    1  A    between atoms: N_4  and  C1*_13
REMARK    2  A    between atoms: C3*_12  and  O3*_16
REMARK    3  A    between atoms: C4*_15  and  C5*_18
REMARK    4  A    between atoms: C5*_18  and  O5*_19
REMARK                            x       y       z     vdW  Elec       q    Type
REMARK                         _______ _______ _______ _____ _____    ______ ____
ROOT
ATOM      1  I   UNL     1      32.649 -13.409 -22.236  0.00  0.00    -0.036 I 
ATOM      2  O   UNL     1      34.899 -17.967 -25.682  0.00  0.00    -0.252 OA
ATOM      3  O   UNL     1      32.644 -13.973 -25.428  0.00  0.00    -0.269 OA
ATOM      4  N   UNL     1      34.578 -17.030 -23.568  0.00  0.00    -0.218 N 
ATOM      5  N   UNL     1      33.775 -15.974 -25.532  0.00  0.00    -0.235 N 
ATOM      6  C   UNL     1      34.453 -17.062 -24.973  0.00  0.00    +0.315 C 
ATOM      7  C   UNL     1      34.049 -15.972 -22.838  0.00  0.00    +0.081 C 
ATOM      8  C   UNL     1      33.400 -14.933 -23.380  0.00  0.00    +0.099 C 
ATOM      9  C   UNL     1      33.225 -14.891 -24.858  0.00  0.00    +0.259 C 
ATOM     10  H   UNL     1      33.675 -15.976 -26.511  0.00  0.00    +0.159 HD
ENDROOT
BRANCH   4  13
ATOM     11  O4* UNL     1      34.411 -19.243 -22.824  0.00  0.00    -0.335 OA
ATOM     12  C3* UNL     1      35.457 -19.036 -20.707  0.00  0.00    +0.144 C 
ATOM     13  C1* UNL     1      35.250 -18.080 -22.859  0.00  0.00    +0.202 C 
ATOM     14  C2* UNL     1      35.569 -17.709 -21.420  0.00  0.00    +0.083 C 
ATOM     15  C4* UNL     1      34.354 -19.749 -21.477  0.00  0.00    +0.173 C 
BRANCH  12  16
ATOM     16  O3* UNL     1      36.682 -19.756 -20.838  0.00  0.00    -0.382 OA
ATOM     17  H3* UNL     1      37.273 -19.280 -21.443  0.00  0.00    +0.210 HD
ENDBRANCH  12  16
BRANCH  15  18
ATOM     18  C5* UNL     1      32.965 -19.459 -20.925  0.00  0.00    +0.169 C 
BRANCH  18  19
ATOM     19  O5* UNL     1      32.637 -20.449 -19.964  0.00  0.00    -0.379 OA
ATOM     20  H5* UNL     1      31.717 -20.333 -19.680  0.00  0.00    +0.211 HD
ENDBRANCH  18  19
ENDBRANCH  15  18
ENDBRANCH   4  13
TORSDOF 4
ENDMDL
MODEL 6
REMARK VINA RESULT:      -7.1      9.716     11.891
REMARK  Name = 5905
REMARK  4 active torsions:
REMARK  status: ('A' for Active; 'I' for Inactive)
REMARK    1  A    between atoms: N_4  and  C1*_13
REMARK    2  A    between atoms: C3*_12  and  O3*_16
REMARK    3  A    between atoms: C4*_15  and  C5*_18
REMARK    4  A    between atoms: C5*_18  and  O5*_19
REMARK                            x       y       z     vdW  Elec       q    Type
REMARK                         _______ _______ _______ _____ _____    ______ ____
ROOT
ATOM      1  I   UNL     1      33.017 -14.311 -26.122  0.00  0.00    -0.036 I 
ATOM      2  O   UNL     1      34.827 -14.987 -20.294  0.00  0.00    -0.252 OA
ATOM      3  O   UNL     1      32.982 -12.332 -23.556  0.00  0.00    -0.269 OA
ATOM      4  N   UNL     1      34.589 -15.895 -22.430  0.00  0.00    -0.218 N 
ATOM      5  N   UNL     1      33.909 -13.679 -21.938  0.00  0.00    -0.235 N 
ATOM      6  C   UNL     1      34.471 -14.870 -21.468  0.00  0.00    +0.315 C 
ATOM      7  C   UNL     1      34.162 -15.686 -23.737  0.00  0.00    +0.081 C 
ATOM      8  C   UNL     1      33.624 -14.542 -24.180  0.00  0.00    +0.099 C 
ATOM      9  C   UNL     1      33.466 -13.411 -23.226  0.00  0.00    +0.259 C 
ATOM     10  H   UNL     1      33.819 -12.949 -21.283  0.00  0.00    +0.159 HD
ENDROOT
BRANCH   4  13
ATOM     11  O4* UNL     1      35.737 -17.759 -23.260  0.00  0.00    -0.335 OA
ATOM     12  C3* UNL     1      34.633 -19.479 -22.058  0.00  0.00    +0.144 C 
ATOM     13  C1* UNL     1      35.147 -17.172 -22.091  0.00  0.00    +0.202 C 
ATOM     14  C2* UNL     1      34.108 -18.149 -21.568  0.00  0.00    +0.083 C 
ATOM     15  C4* UNL     1      35.290 -19.122 -23.385  0.00  0.00    +0.173 C 
BRANCH  12  16
ATOM     16  O3* UNL     1      35.615 -19.971 -21.148  0.00  0.00    -0.382 OA
ATOM     17  H3* UNL     1      36.378 -20.307 -21.647  0.00  0.00    +0.210 HD
ENDBRANCH  12  16
BRANCH  15  18
ATOM     18  C5* UNL     1      34.325 -19.194 -24.561  0.00  0.00    +0.169 C 
BRANCH  18  19
ATOM     19  O5* UNL     1      34.679 -18.197 -25.505  0.00  0.00    -0.379 OA
ATOM     20  H5* UNL     1      34.890 -17.372 -25.041  0.00  0.00    +0.211 HD
ENDBRANCH  18  19
ENDBRANCH  15  18
ENDBRANCH   4  13
TORSDOF 4
ENDMDL
MODEL 7
REMARK VINA RESULT:      -7.1     10.911     12.753
REMARK  Name = 5905
REMARK  4 active torsions:
REMARK  status: ('A' for Active; 'I' for Inactive)
REMARK    1  A    between atoms: N_4  and  C1*_13
REMARK    2  A    between atoms: C3*_12  and  O3*_16
REMARK    3  A    between atoms: C4*_15  and  C5*_18
REMARK    4  A    between atoms: C5*_18  and  O5*_19
REMARK                            x       y       z     vdW  Elec       q    Type
REMARK                         _______ _______ _______ _____ _____    ______ ____
ROOT
ATOM      1  I   UNL     1      35.344 -19.181 -21.329  0.00  0.00    -0.036 I 
ATOM      2  O   UNL     1      33.950 -15.778 -26.246  0.00  0.00    -0.252 OA
ATOM      3  O   UNL     1      34.936 -19.895 -24.464  0.00  0.00    -0.269 OA
ATOM      4  N   UNL     1      34.359 -15.901 -23.951  0.00  0.00    -0.218 N 
ATOM      5  N   UNL     1      34.445 -17.824 -25.335  0.00  0.00    -0.235 N 
ATOM      6  C   UNL     1      34.230 -16.445 -25.247  0.00  0.00    +0.315 C 
ATOM      7  C   UNL     1      34.676 -16.720 -22.874  0.00  0.00    +0.081 C 
ATOM      8  C   UNL     1      34.880 -18.041 -22.965  0.00  0.00    +0.099 C 
ATOM      9  C   UNL     1      34.764 -18.691 -24.299  0.00  0.00    +0.259 C 
ATOM     10  H   UNL     1      34.362 -18.224 -26.231  0.00  0.00    +0.159 HD
ENDROOT
BRANCH   4  13
ATOM     11  O4* UNL     1      34.402 -14.220 -22.323  0.00  0.00    -0.335 OA
ATOM     12  C3* UNL     1      32.533 -12.938 -23.019  0.00  0.00    +0.144 C 
ATOM     13  C1* UNL     1      34.166 -14.501 -23.711  0.00  0.00    +0.202 C 
ATOM     14  C2* UNL     1      32.756 -14.036 -24.033  0.00  0.00    +0.083 C 
ATOM     15  C4* UNL     1      33.319 -13.423 -21.808  0.00  0.00    +0.173 C 
BRANCH  12  16
ATOM     16  O3* UNL     1      33.092 -11.718 -23.502  0.00  0.00    -0.382 OA
ATOM     17  H3* UNL     1      32.691 -11.496 -24.357  0.00  0.00    +0.210 HD
ENDBRANCH  12  16
BRANCH  15  18
ATOM     18  C5* UNL     1      32.492 -14.301 -20.879  0.00  0.00    +0.169 C 
BRANCH  18  19
ATOM     19  O5* UNL     1      33.363 -15.169 -20.173  0.00  0.00    -0.379 OA
ATOM     20  H5* UNL     1      33.191 -15.097 -19.221  0.00  0.00    +0.211 HD
ENDBRANCH  18  19
ENDBRANCH  15  18
ENDBRANCH   4  13
TORSDOF 4
ENDMDL
MODEL 8
REMARK VINA RESULT:      -7.0      2.458      2.877
REMARK  Name = 5905
REMARK  4 active torsions:
REMARK  status: ('A' for Active; 'I' for Inactive)
REMARK    1  A    between atoms: N_4  and  C1*_13
REMARK    2  A    between atoms: C3*_12  and  O3*_16
REMARK    3  A    between atoms: C4*_15  and  C5*_18
REMARK    4  A    between atoms: C5*_18  and  O5*_19
REMARK                            x       y       z     vdW  Elec       q    Type
REMARK                         _______ _______ _______ _____ _____    ______ ____
ROOT
ATOM      1  I   UNL     1      35.923 -21.008 -19.997  0.00  0.00    -0.036 I 
ATOM      2  O   UNL     1      34.142 -24.139 -15.024  0.00  0.00    -0.252 OA
ATOM      3  O   UNL     1      33.165 -22.518 -19.209  0.00  0.00    -0.269 OA
ATOM      4  N   UNL     1      35.797 -22.923 -16.134  0.00  0.00    -0.218 N 
ATOM      5  N   UNL     1      33.676 -23.319 -17.114  0.00  0.00    -0.235 N 
ATOM      6  C   UNL     1      34.518 -23.506 -16.013  0.00  0.00    +0.315 C 
ATOM      7  C   UNL     1      36.146 -22.224 -17.284  0.00  0.00    +0.081 C 
ATOM      8  C   UNL     1      35.335 -22.050 -18.335  0.00  0.00    +0.099 C 
ATOM      9  C   UNL     1      33.966 -22.634 -18.286  0.00  0.00    +0.259 C 
ATOM     10  H   UNL     1      32.777 -23.717 -17.051  0.00  0.00    +0.159 HD
ENDROOT
BRANCH   4  13
ATOM     11  O4* UNL     1      37.655 -24.122 -15.367  0.00  0.00    -0.335 OA
ATOM     12  C3* UNL     1      37.181 -24.157 -13.045  0.00  0.00    +0.144 C 
ATOM     13  C1* UNL     1      36.765 -23.033 -15.082  0.00  0.00    +0.202 C 
ATOM     14  C2* UNL     1      36.135 -23.306 -13.726  0.00  0.00    +0.083 C 
ATOM     15  C4* UNL     1      37.784 -24.951 -14.196  0.00  0.00    +0.173 C 
BRANCH  12  16
ATOM     16  O3* UNL     1      38.176 -23.319 -12.461  0.00  0.00    -0.382 OA
ATOM     17  H3* UNL     1      39.016 -23.803 -12.409  0.00  0.00    +0.210 HD
ENDBRANCH  12  16
BRANCH  15  18
ATOM     18  C5* UNL     1      37.050 -26.258 -14.463  0.00  0.00    +0.169 C 
BRANCH  18  19
ATOM     19  O5* UNL     1      37.145 -26.563 -15.844  0.00  0.00    -0.379 OA
ATOM     20  H5* UNL     1      36.256 -26.597 -16.230  0.00  0.00    +0.211 HD
ENDBRANCH  18  19
ENDBRANCH  15  18
ENDBRANCH   4  13
TORSDOF 4
ENDMDL
MODEL 9
REMARK VINA RESULT:      -6.8      2.322      3.064
REMARK  Name = 5905
REMARK  4 active torsions:
REMARK  status: ('A' for Active; 'I' for Inactive)
REMARK    1  A    between atoms: N_4  and  C1*_13
REMARK    2  A    between atoms: C3*_12  and  O3*_16
REMARK    3  A    between atoms: C4*_15  and  C5*_18
REMARK    4  A    between atoms: C5*_18  and  O5*_19
REMARK                            x       y       z     vdW  Elec       q    Type
REMARK                         _______ _______ _______ _____ _____    ______ ____
ROOT
ATOM      1  I   UNL     1      33.466 -23.079 -17.747  0.00  0.00    -0.036 I 
ATOM      2  O   UNL     1      34.565 -24.570 -11.893  0.00  0.00    -0.252 OA
ATOM      3  O   UNL     1      31.814 -22.601 -15.000  0.00  0.00    -0.269 OA
ATOM      4  N   UNL     1      35.248 -24.598 -14.125  0.00  0.00    -0.218 N 
ATOM      5  N   UNL     1      33.207 -23.592 -13.461  0.00  0.00    -0.235 N 
ATOM      6  C   UNL     1      34.362 -24.279 -13.074  0.00  0.00    +0.315 C 
ATOM      7  C   UNL     1      34.947 -24.235 -15.433  0.00  0.00    +0.081 C 
ATOM      8  C   UNL     1      33.839 -23.578 -15.797  0.00  0.00    +0.099 C 
ATOM      9  C   UNL     1      32.853 -23.203 -14.746  0.00  0.00    +0.259 C 
ATOM     10  H   UNL     1      32.575 -23.358 -12.743  0.00  0.00    +0.159 HD
ENDROOT
BRANCH   4  13
ATOM     11  O4* UNL     1      36.810 -25.191 -12.486  0.00  0.00    -0.335 OA
ATOM     12  C3* UNL     1      38.811 -24.978 -13.741  0.00  0.00    +0.144 C 
ATOM     13  C1* UNL     1      36.473 -25.301 -13.876  0.00  0.00    +0.202 C 
ATOM     14  C2* UNL     1      37.643 -24.747 -14.672  0.00  0.00    +0.083 C 
ATOM     15  C4* UNL     1      38.191 -24.802 -12.360  0.00  0.00    +0.173 C 
BRANCH  12  16
ATOM     16  O3* UNL     1      39.287 -26.314 -13.891  0.00  0.00    -0.382 OA
ATOM     17  H3* UNL     1      40.105 -26.308 -14.412  0.00  0.00    +0.210 HD
ENDBRANCH  12  16
BRANCH  15  18
ATOM     18  C5* UNL     1      38.229 -23.359 -11.874  0.00  0.00    +0.169 C 
BRANCH  18  19
ATOM     19  O5* UNL     1      37.182 -23.163 -10.938  0.00  0.00    -0.379 OA
ATOM     20  H5* UNL     1      37.528 -22.704 -10.157  0.00  0.00    +0.211 HD
ENDBRANCH  18  19
ENDBRANCH  15  18
ENDBRANCH   4  13
TORSDOF 4
ENDMDL
