MODEL 1
REMARK VINA RESULT:      -8.7      0.000      0.000
REMARK  Name = 9330
REMARK  10 active torsions:
REMARK  status: ('A' for Active; 'I' for Inactive)
REMARK    1  A    between atoms: C_1  and  C_2
REMARK    2  A    between atoms: C_1  and  C_8
REMARK    3  A    between atoms: C_1  and  O_14
REMARK    4  A    between atoms: C_1  and  C_17
REMARK    5  A    between atoms: C_17  and  O_18
REMARK    6  A    between atoms: O_18  and  C_19
REMARK    7  A    between atoms: C_19  and  C_20
REMARK    8  A    between atoms: C_20  and  N_21
REMARK    9  A    between atoms: N_21  and  C_23
REMARK   10  A    between atoms: N_21  and  C_25
REMARK                            x       y       z     vdW  Elec       q    Type
REMARK                         _______ _______ _______ _____ _____    ______ ____
ROOT
ATOM      1  C   UNL     1      34.989 -18.307 -21.859  0.00  0.00    +0.216 C 
ENDROOT
BRANCH   1   2
ATOM      2  C   UNL     1      34.262 -17.075 -21.314  0.00  0.00    +0.016 C 
ATOM      3  C   UNL     1      35.012 -16.010 -20.869  0.00  0.00    -0.001 C 
ATOM      4  C   UNL     1      32.886 -17.079 -21.290  0.00  0.00    -0.001 C 
ATOM      5  C   UNL     1      34.350 -14.888 -20.373  0.00  0.00    -0.000 C 
ATOM      6  C   UNL     1      32.224 -15.955 -20.794  0.00  0.00    -0.000 C 
ATOM      7  C   UNL     1      32.956 -14.860 -20.336  0.00  0.00    -0.000 C 
ENDBRANCH   1   2
BRANCH   1   8
ATOM      8  C   UNL     1      34.694 -19.539 -20.998  0.00  0.00    +0.016 C 
ATOM      9  C   UNL     1      33.384 -19.860 -20.735  0.00  0.00    -0.001 C 
ATOM     10  C   UNL     1      35.754 -20.275 -20.520  0.00  0.00    -0.001 C 
ATOM     11  C   UNL     1      33.115 -20.983 -19.952  0.00  0.00    -0.000 C 
ATOM     12  C   UNL     1      35.486 -21.398 -19.737  0.00  0.00    -0.000 C 
ATOM     13  C   UNL     1      34.167 -21.751 -19.452  0.00  0.00    -0.000 C 
ENDBRANCH   1   8
BRANCH   1  14
ATOM     14  O   UNL     1      36.407 -18.053 -21.900  0.00  0.00    -0.370 OA
ATOM     15  H   UNL     1      36.600 -17.406 -22.597  0.00  0.00    +0.212 HD
ENDBRANCH   1  14
BRANCH   1  17
ATOM     16  O   UNL     1      34.183 -19.494 -23.841  0.00  0.00    -0.247 OA
ATOM     17  C   UNL     1      34.746 -18.521 -23.355  0.00  0.00    +0.349 C 
BRANCH  17  18
ATOM     18  O   UNL     1      35.216 -17.454 -24.082  0.00  0.00    -0.449 OA
BRANCH  18  19
ATOM     19  C   UNL     1      34.244 -16.727 -24.823  0.00  0.00    +0.186 C 
BRANCH  19  20
ATOM     20  C   UNL     1      34.228 -15.289 -24.330  0.00  0.00    -0.029 C 
BRANCH  20  21
ATOM     21  N   UNL     1      33.167 -14.529 -24.990  0.00  0.00    +0.389 N 
ATOM     22  H   UNL     1      32.272 -14.803 -24.585  0.00  0.00    -0.080 HD
BRANCH  21  23
ATOM     23  C   UNL     1      33.354 -13.095 -24.770  0.00  0.00    -0.077 C 
ATOM     24  C   UNL     1      33.114 -12.727 -23.316  0.00  0.00    -0.025 C 
ENDBRANCH  21  23
BRANCH  21  25
ATOM     25  C   UNL     1      33.141 -14.828 -26.422  0.00  0.00    -0.077 C 
ATOM     26  C   UNL     1      33.344 -13.570 -27.248  0.00  0.00    -0.025 C 
ENDBRANCH  21  25
ENDBRANCH  20  21
ENDBRANCH  19  20
ENDBRANCH  18  19
ENDBRANCH  17  18
ENDBRANCH   1  17
TORSDOF 10
ENDMDL
MODEL 2
REMARK VINA RESULT:      -8.6      0.343      1.669
REMARK  Name = 9330
REMARK  10 active torsions:
REMARK  status: ('A' for Active; 'I' for Inactive)
REMARK    1  A    between atoms: C_1  and  C_2
REMARK    2  A    between atoms: C_1  and  C_8
REMARK    3  A    between atoms: C_1  and  O_14
REMARK    4  A    between atoms: C_1  and  C_17
REMARK    5  A    between atoms: C_17  and  O_18
REMARK    6  A    between atoms: O_18  and  C_19
REMARK    7  A    between atoms: C_19  and  C_20
REMARK    8  A    between atoms: C_20  and  N_21
REMARK    9  A    between atoms: N_21  and  C_23
REMARK   10  A    between atoms: N_21  and  C_25
REMARK                            x       y       z     vdW  Elec       q    Type
REMARK                         _______ _______ _______ _____ _____    ______ ____
ROOT
ATOM      1  C   UNL     1      34.987 -18.306 -21.809  0.00  0.00    +0.216 C 
ENDROOT
BRANCH   1   2
ATOM      2  C   UNL     1      34.244 -17.080 -21.273  0.00  0.00    +0.016 C 
ATOM      3  C   UNL     1      32.874 -17.139 -21.158  0.00  0.00    -0.001 C 
ATOM      4  C   UNL     1      34.974 -15.967 -20.925  0.00  0.00    -0.001 C 
ATOM      5  C   UNL     1      32.197 -16.021 -20.670  0.00  0.00    -0.000 C 
ATOM      6  C   UNL     1      34.296 -14.850 -20.436  0.00  0.00    -0.000 C 
ATOM      7  C   UNL     1      32.907 -14.878 -20.308  0.00  0.00    -0.000 C 
ENDBRANCH   1   2
BRANCH   1   8
ATOM      8  C   UNL     1      34.671 -19.546 -20.967  0.00  0.00    +0.016 C 
ATOM      9  C   UNL     1      33.355 -19.852 -20.716  0.00  0.00    -0.001 C 
ATOM     10  C   UNL     1      35.717 -20.305 -20.496  0.00  0.00    -0.001 C 
ATOM     11  C   UNL     1      33.066 -20.983 -19.950  0.00  0.00    -0.000 C 
ATOM     12  C   UNL     1      35.430 -21.435 -19.731  0.00  0.00    -0.000 C 
ATOM     13  C   UNL     1      34.104 -21.774 -19.458  0.00  0.00    -0.000 C 
ENDBRANCH   1   8
BRANCH   1  14
ATOM     14  O   UNL     1      36.406 -18.050 -21.808  0.00  0.00    -0.370 OA
ATOM     15  H   UNL     1      36.589 -17.235 -22.302  0.00  0.00    +0.212 HD
ENDBRANCH   1  14
BRANCH   1  17
ATOM     16  O   UNL     1      34.210 -19.460 -23.822  0.00  0.00    -0.247 OA
ATOM     17  C   UNL     1      34.787 -18.507 -23.312  0.00  0.00    +0.349 C 
BRANCH  17  18
ATOM     18  O   UNL     1      35.313 -17.452 -24.019  0.00  0.00    -0.449 OA
BRANCH  18  19
ATOM     19  C   UNL     1      34.472 -16.888 -25.018  0.00  0.00    +0.186 C 
BRANCH  19  20
ATOM     20  C   UNL     1      33.686 -15.740 -24.404  0.00  0.00    -0.029 C 
BRANCH  20  21
ATOM     21  N   UNL     1      33.855 -14.520 -25.192  0.00  0.00    +0.389 N 
ATOM     22  H   UNL     1      34.793 -14.521 -25.593  0.00  0.00    -0.080 HD
BRANCH  21  23
ATOM     23  C   UNL     1      32.885 -14.479 -26.286  0.00  0.00    -0.077 C 
ATOM     24  C   UNL     1      33.188 -13.341 -27.245  0.00  0.00    -0.025 C 
ENDBRANCH  21  23
BRANCH  21  25
ATOM     25  C   UNL     1      33.716 -13.339 -24.340  0.00  0.00    -0.077 C 
ATOM     26  C   UNL     1      32.501 -13.456 -23.436  0.00  0.00    -0.025 C 
ENDBRANCH  21  25
ENDBRANCH  20  21
ENDBRANCH  19  20
ENDBRANCH  18  19
ENDBRANCH  17  18
ENDBRANCH   1  17
TORSDOF 10
ENDMDL
MODEL 3
REMARK VINA RESULT:      -8.4      1.776      4.426
REMARK  Name = 9330
REMARK  10 active torsions:
REMARK  status: ('A' for Active; 'I' for Inactive)
REMARK    1  A    between atoms: C_1  and  C_2
REMARK    2  A    between atoms: C_1  and  C_8
REMARK    3  A    between atoms: C_1  and  O_14
REMARK    4  A    between atoms: C_1  and  C_17
REMARK    5  A    between atoms: C_17  and  O_18
REMARK    6  A    between atoms: O_18  and  C_19
REMARK    7  A    between atoms: C_19  and  C_20
REMARK    8  A    between atoms: C_20  and  N_21
REMARK    9  A    between atoms: N_21  and  C_23
REMARK   10  A    between atoms: N_21  and  C_25
REMARK                            x       y       z     vdW  Elec       q    Type
REMARK                         _______ _______ _______ _____ _____    ______ ____
ROOT
ATOM      1  C   UNL     1      35.029 -18.020 -21.407  0.00  0.00    +0.216 C 
ENDROOT
BRANCH   1   2
ATOM      2  C   UNL     1      34.516 -19.322 -20.788  0.00  0.00    +0.016 C 
ATOM      3  C   UNL     1      35.434 -20.247 -20.344  0.00  0.00    -0.001 C 
ATOM      4  C   UNL     1      33.157 -19.520 -20.699  0.00  0.00    -0.001 C 
ATOM      5  C   UNL     1      34.967 -21.433 -19.779  0.00  0.00    -0.000 C 
ATOM      6  C   UNL     1      32.690 -20.707 -20.133  0.00  0.00    -0.000 C 
ATOM      7  C   UNL     1      33.596 -21.663 -19.674  0.00  0.00    -0.000 C 
ENDBRANCH   1   2
BRANCH   1   8
ATOM      8  C   UNL     1      34.845 -18.030 -22.927  0.00  0.00    +0.016 C 
ATOM      9  C   UNL     1      34.925 -16.838 -23.608  0.00  0.00    -0.001 C 
ATOM     10  C   UNL     1      34.606 -19.232 -23.553  0.00  0.00    -0.001 C 
ATOM     11  C   UNL     1      34.759 -16.846 -24.993  0.00  0.00    -0.000 C 
ATOM     12  C   UNL     1      34.440 -19.241 -24.938  0.00  0.00    -0.000 C 
ATOM     13  C   UNL     1      34.516 -18.049 -25.658  0.00  0.00    -0.000 C 
ENDBRANCH   1   8
BRANCH   1  14
ATOM     14  O   UNL     1      36.419 -17.839 -21.073  0.00  0.00    -0.370 OA
ATOM     15  H   UNL     1      36.946 -17.806 -21.887  0.00  0.00    +0.212 HD
ENDBRANCH   1  14
BRANCH   1  17
ATOM     16  O   UNL     1      35.102 -16.013 -20.009  0.00  0.00    -0.247 OA
ATOM     17  C   UNL     1      34.460 -16.776 -20.720  0.00  0.00    +0.349 C 
BRANCH  17  18
ATOM     18  O   UNL     1      33.134 -16.607 -21.037  0.00  0.00    -0.449 OA
BRANCH  18  19
ATOM     19  C   UNL     1      32.596 -15.312 -20.808  0.00  0.00    +0.186 C 
BRANCH  19  20
ATOM     20  C   UNL     1      32.712 -14.500 -22.088  0.00  0.00    -0.029 C 
BRANCH  20  21
ATOM     21  N   UNL     1      31.974 -13.243 -21.971  0.00  0.00    +0.389 N 
ATOM     22  H   UNL     1      31.000 -13.415 -22.218  0.00  0.00    -0.080 HD
BRANCH  21  23
ATOM     23  C   UNL     1      32.023 -12.749 -20.595  0.00  0.00    -0.077 C 
ATOM     24  C   UNL     1      31.252 -11.447 -20.453  0.00  0.00    -0.025 C 
ENDBRANCH  21  23
BRANCH  21  25
ATOM     25  C   UNL     1      32.517 -12.244 -22.892  0.00  0.00    -0.077 C 
ATOM     26  C   UNL     1      33.530 -12.864 -23.838  0.00  0.00    -0.025 C 
ENDBRANCH  21  25
ENDBRANCH  20  21
ENDBRANCH  19  20
ENDBRANCH  18  19
ENDBRANCH  17  18
ENDBRANCH   1  17
TORSDOF 10
ENDMDL
MODEL 4
REMARK VINA RESULT:      -8.3      1.604      4.544
REMARK  Name = 9330
REMARK  10 active torsions:
REMARK  status: ('A' for Active; 'I' for Inactive)
REMARK    1  A    between atoms: C_1  and  C_2
REMARK    2  A    between atoms: C_1  and  C_8
REMARK    3  A    between atoms: C_1  and  O_14
REMARK    4  A    between atoms: C_1  and  C_17
REMARK    5  A    between atoms: C_17  and  O_18
REMARK    6  A    between atoms: O_18  and  C_19
REMARK    7  A    between atoms: C_19  and  C_20
REMARK    8  A    between atoms: C_20  and  N_21
REMARK    9  A    between atoms: N_21  and  C_23
REMARK   10  A    between atoms: N_21  and  C_25
REMARK                            x       y       z     vdW  Elec       q    Type
REMARK                         _______ _______ _______ _____ _____    ______ ____
ROOT
ATOM      1  C   UNL     1      35.120 -18.134 -21.467  0.00  0.00    +0.216 C 
ENDROOT
BRANCH   1   2
ATOM      2  C   UNL     1      34.584 -19.408 -20.809  0.00  0.00    +0.016 C 
ATOM      3  C   UNL     1      33.221 -19.586 -20.733  0.00  0.00    -0.001 C 
ATOM      4  C   UNL     1      35.484 -20.325 -20.319  0.00  0.00    -0.001 C 
ATOM      5  C   UNL     1      32.733 -20.747 -20.133  0.00  0.00    -0.000 C 
ATOM      6  C   UNL     1      34.994 -21.487 -19.719  0.00  0.00    -0.000 C 
ATOM      7  C   UNL     1      33.619 -21.697 -19.627  0.00  0.00    -0.000 C 
ENDBRANCH   1   2
BRANCH   1   8
ATOM      8  C   UNL     1      34.866 -18.153 -22.977  0.00  0.00    +0.016 C 
ATOM      9  C   UNL     1      34.668 -19.364 -23.596  0.00  0.00    -0.001 C 
ATOM     10  C   UNL     1      34.845 -16.956 -23.655  0.00  0.00    -0.001 C 
ATOM     11  C   UNL     1      34.435 -19.381 -24.972  0.00  0.00    -0.000 C 
ATOM     12  C   UNL     1      34.612 -16.972 -25.031  0.00  0.00    -0.000 C 
ATOM     13  C   UNL     1      34.408 -18.185 -25.689  0.00  0.00    -0.000 C 
ENDBRANCH   1   8
BRANCH   1  14
ATOM     14  O   UNL     1      36.531 -18.008 -21.200  0.00  0.00    -0.370 OA
ATOM     15  H   UNL     1      36.895 -18.877 -20.965  0.00  0.00    +0.212 HD
ENDBRANCH   1  14
BRANCH   1  17
ATOM     16  O   UNL     1      35.302 -16.192 -19.990  0.00  0.00    -0.247 OA
ATOM     17  C   UNL     1      34.636 -16.860 -20.771  0.00  0.00    +0.349 C 
BRANCH  17  18
ATOM     18  O   UNL     1      33.359 -16.543 -21.168  0.00  0.00    -0.449 OA
BRANCH  18  19
ATOM     19  C   UNL     1      32.872 -15.274 -20.752  0.00  0.00    +0.186 C 
BRANCH  19  20
ATOM     20  C   UNL     1      32.310 -14.545 -21.963  0.00  0.00    -0.029 C 
BRANCH  20  21
ATOM     21  N   UNL     1      33.030 -13.294 -22.192  0.00  0.00    +0.389 N 
ATOM     22  H   UNL     1      33.605 -13.096 -21.373  0.00  0.00    -0.080 HD
BRANCH  21  23
ATOM     23  C   UNL     1      33.909 -13.416 -23.355  0.00  0.00    -0.077 C 
ATOM     24  C   UNL     1      33.113 -13.709 -24.616  0.00  0.00    -0.025 C 
ENDBRANCH  21  23
BRANCH  21  25
ATOM     25  C   UNL     1      32.089 -12.189 -22.376  0.00  0.00    -0.077 C 
ATOM     26  C   UNL     1      31.418 -11.816 -21.066  0.00  0.00    -0.025 C 
ENDBRANCH  21  25
ENDBRANCH  20  21
ENDBRANCH  19  20
ENDBRANCH  18  19
ENDBRANCH  17  18
ENDBRANCH   1  17
TORSDOF 10
ENDMDL
MODEL 5
REMARK VINA RESULT:      -8.1      0.735      4.043
REMARK  Name = 9330
REMARK  10 active torsions:
REMARK  status: ('A' for Active; 'I' for Inactive)
REMARK    1  A    between atoms: C_1  and  C_2
REMARK    2  A    between atoms: C_1  and  C_8
REMARK    3  A    between atoms: C_1  and  O_14
REMARK    4  A    between atoms: C_1  and  C_17
REMARK    5  A    between atoms: C_17  and  O_18
REMARK    6  A    between atoms: O_18  and  C_19
REMARK    7  A    between atoms: C_19  and  C_20
REMARK    8  A    between atoms: C_20  and  N_21
REMARK    9  A    between atoms: N_21  and  C_23
REMARK   10  A    between atoms: N_21  and  C_25
REMARK                            x       y       z     vdW  Elec       q    Type
REMARK                         _______ _______ _______ _____ _____    ______ ____
ROOT
ATOM      1  C   UNL     1      34.482 -18.565 -22.060  0.00  0.00    +0.216 C 
ENDROOT
BRANCH   1   2
ATOM      2  C   UNL     1      34.814 -19.628 -21.011  0.00  0.00    +0.016 C 
ATOM      3  C   UNL     1      36.126 -19.786 -20.625  0.00  0.00    -0.001 C 
ATOM      4  C   UNL     1      33.789 -20.386 -20.493  0.00  0.00    -0.001 C 
ATOM      5  C   UNL     1      36.428 -20.756 -19.669  0.00  0.00    -0.000 C 
ATOM      6  C   UNL     1      34.092 -21.355 -19.536  0.00  0.00    -0.000 C 
ATOM      7  C   UNL     1      35.412 -21.539 -19.124  0.00  0.00    -0.000 C 
ENDBRANCH   1   2
BRANCH   1   8
ATOM      8  C   UNL     1      33.991 -17.276 -21.394  0.00  0.00    +0.016 C 
ATOM      9  C   UNL     1      34.918 -16.326 -21.034  0.00  0.00    -0.001 C 
ATOM     10  C   UNL     1      32.641 -17.120 -21.181  0.00  0.00    -0.001 C 
ATOM     11  C   UNL     1      34.470 -15.152 -20.428  0.00  0.00    -0.000 C 
ATOM     12  C   UNL     1      32.193 -15.946 -20.575  0.00  0.00    -0.000 C 
ATOM     13  C   UNL     1      33.108 -14.963 -20.198  0.00  0.00    -0.000 C 
ENDBRANCH   1   8
BRANCH   1  14
ATOM     14  O   UNL     1      33.481 -19.072 -22.965  0.00  0.00    -0.370 OA
ATOM     15  H   UNL     1      33.915 -19.479 -23.732  0.00  0.00    +0.212 HD
ENDBRANCH   1  14
BRANCH   1  17
ATOM     16  O   UNL     1      36.811 -18.410 -22.796  0.00  0.00    -0.247 OA
ATOM     17  C   UNL     1      35.617 -18.351 -23.064  0.00  0.00    +0.349 C 
BRANCH  17  18
ATOM     18  O   UNL     1      35.117 -18.119 -24.323  0.00  0.00    -0.449 OA
BRANCH  18  19
ATOM     19  C   UNL     1      35.185 -16.777 -24.785  0.00  0.00    +0.186 C 
BRANCH  19  20
ATOM     20  C   UNL     1      33.817 -16.371 -25.312  0.00  0.00    -0.029 C 
BRANCH  20  21
ATOM     21  N   UNL     1      33.649 -14.920 -25.248  0.00  0.00    +0.389 N 
ATOM     22  H   UNL     1      34.553 -14.481 -25.425  0.00  0.00    -0.080 HD
BRANCH  21  23
ATOM     23  C   UNL     1      32.708 -14.469 -26.272  0.00  0.00    -0.077 C 
ATOM     24  C   UNL     1      33.345 -13.437 -27.187  0.00  0.00    -0.025 C 
ENDBRANCH  21  23
BRANCH  21  25
ATOM     25  C   UNL     1      33.190 -14.518 -23.919  0.00  0.00    -0.077 C 
ATOM     26  C   UNL     1      33.765 -13.168 -23.525  0.00  0.00    -0.025 C 
ENDBRANCH  21  25
ENDBRANCH  20  21
ENDBRANCH  19  20
ENDBRANCH  18  19
ENDBRANCH  17  18
ENDBRANCH   1  17
TORSDOF 10
ENDMDL
MODEL 6
REMARK VINA RESULT:      -7.9      2.357      6.744
REMARK  Name = 9330
REMARK  10 active torsions:
REMARK  status: ('A' for Active; 'I' for Inactive)
REMARK    1  A    between atoms: C_1  and  C_2
REMARK    2  A    between atoms: C_1  and  C_8
REMARK    3  A    between atoms: C_1  and  O_14
REMARK    4  A    between atoms: C_1  and  C_17
REMARK    5  A    between atoms: C_17  and  O_18
REMARK    6  A    between atoms: O_18  and  C_19
REMARK    7  A    between atoms: C_19  and  C_20
REMARK    8  A    between atoms: C_20  and  N_21
REMARK    9  A    between atoms: N_21  and  C_23
REMARK   10  A    between atoms: N_21  and  C_25
REMARK                            x       y       z     vdW  Elec       q    Type
REMARK                         _______ _______ _______ _____ _____    ______ ____
ROOT
ATOM      1  C   UNL     1      33.504 -13.687 -22.617  0.00  0.00    +0.216 C 
ENDROOT
BRANCH   1   2
ATOM      2  C   UNL     1      33.411 -13.526 -24.136  0.00  0.00    +0.016 C 
ATOM      3  C   UNL     1      33.817 -12.338 -24.699  0.00  0.00    -0.001 C 
ATOM      4  C   UNL     1      32.925 -14.576 -24.881  0.00  0.00    -0.001 C 
ATOM      5  C   UNL     1      33.732 -12.192 -26.084  0.00  0.00    -0.000 C 
ATOM      6  C   UNL     1      32.840 -14.429 -26.267  0.00  0.00    -0.000 C 
ATOM      7  C   UNL     1      33.244 -13.237 -26.867  0.00  0.00    -0.000 C 
ENDBRANCH   1   2
BRANCH   1   8
ATOM      8  C   UNL     1      32.546 -12.726 -21.907  0.00  0.00    +0.016 C 
ATOM      9  C   UNL     1      31.800 -11.859 -22.669  0.00  0.00    -0.001 C 
ATOM     10  C   UNL     1      32.470 -12.769 -20.534  0.00  0.00    -0.001 C 
ATOM     11  C   UNL     1      30.926 -10.984 -22.023  0.00  0.00    -0.000 C 
ATOM     12  C   UNL     1      31.597 -11.895 -19.887  0.00  0.00    -0.000 C 
ATOM     13  C   UNL     1      30.825 -11.002 -20.632  0.00  0.00    -0.000 C 
ENDBRANCH   1   8
BRANCH   1  14
ATOM     14  O   UNL     1      34.860 -13.449 -22.188  0.00  0.00    -0.370 OA
ATOM     15  H   UNL     1      34.948 -13.682 -21.250  0.00  0.00    +0.212 HD
ENDBRANCH   1  14
BRANCH   1  17
ATOM     16  O   UNL     1      32.314 -15.695 -21.882  0.00  0.00    -0.247 OA
ATOM     17  C   UNL     1      33.370 -15.144 -22.168  0.00  0.00    +0.349 C 
BRANCH  17  18
ATOM     18  O   UNL     1      34.595 -15.768 -22.163  0.00  0.00    -0.449 OA
BRANCH  18  19
ATOM     19  C   UNL     1      34.871 -16.594 -21.040  0.00  0.00    +0.186 C 
BRANCH  19  20
ATOM     20  C   UNL     1      35.512 -17.884 -21.527  0.00  0.00    -0.029 C 
BRANCH  20  21
ATOM     21  N   UNL     1      34.493 -18.815 -22.011  0.00  0.00    +0.389 N 
ATOM     22  H   UNL     1      33.618 -18.305 -22.129  0.00  0.00    -0.080 HD
BRANCH  21  23
ATOM     23  C   UNL     1      34.884 -19.370 -23.307  0.00  0.00    -0.077 C 
ATOM     24  C   UNL     1      34.600 -18.388 -24.432  0.00  0.00    -0.025 C 
ENDBRANCH  21  23
BRANCH  21  25
ATOM     25  C   UNL     1      34.279 -19.888 -21.040  0.00  0.00    -0.077 C 
ATOM     26  C   UNL     1      32.819 -19.970 -20.628  0.00  0.00    -0.025 C 
ENDBRANCH  21  25
ENDBRANCH  20  21
ENDBRANCH  19  20
ENDBRANCH  18  19
ENDBRANCH  17  18
ENDBRANCH   1  17
TORSDOF 10
ENDMDL
MODEL 7
REMARK VINA RESULT:      -7.9      2.448      7.053
REMARK  Name = 9330
REMARK  10 active torsions:
REMARK  status: ('A' for Active; 'I' for Inactive)
REMARK    1  A    between atoms: C_1  and  C_2
REMARK    2  A    between atoms: C_1  and  C_8
REMARK    3  A    between atoms: C_1  and  O_14
REMARK    4  A    between atoms: C_1  and  C_17
REMARK    5  A    between atoms: C_17  and  O_18
REMARK    6  A    between atoms: O_18  and  C_19
REMARK    7  A    between atoms: C_19  and  C_20
REMARK    8  A    between atoms: C_20  and  N_21
REMARK    9  A    between atoms: N_21  and  C_23
REMARK   10  A    between atoms: N_21  and  C_25
REMARK                            x       y       z     vdW  Elec       q    Type
REMARK                         _______ _______ _______ _____ _____    ______ ____
ROOT
ATOM      1  C   UNL     1      33.498 -13.731 -22.714  0.00  0.00    +0.216 C 
ENDROOT
BRANCH   1   2
ATOM      2  C   UNL     1      33.415 -13.475 -24.221  0.00  0.00    +0.016 C 
ATOM      3  C   UNL     1      32.875 -14.453 -25.026  0.00  0.00    -0.001 C 
ATOM      4  C   UNL     1      33.882 -12.278 -24.713  0.00  0.00    -0.001 C 
ATOM      5  C   UNL     1      32.799 -14.219 -26.399  0.00  0.00    -0.000 C 
ATOM      6  C   UNL     1      33.805 -12.046 -26.087  0.00  0.00    -0.000 C 
ATOM      7  C   UNL     1      33.264 -13.016 -26.929  0.00  0.00    -0.000 C 
ENDBRANCH   1   2
BRANCH   1   8
ATOM      8  C   UNL     1      32.558 -12.794 -21.949  0.00  0.00    +0.016 C 
ATOM      9  C   UNL     1      32.522 -12.873 -20.577  0.00  0.00    -0.001 C 
ATOM     10  C   UNL     1      31.786 -11.909 -22.666  0.00  0.00    -0.001 C 
ATOM     11  C   UNL     1      31.667 -12.018 -19.881  0.00  0.00    -0.000 C 
ATOM     12  C   UNL     1      30.931 -11.054 -21.971  0.00  0.00    -0.000 C 
ATOM     13  C   UNL     1      30.871 -11.110 -20.578  0.00  0.00    -0.000 C 
ENDBRANCH   1   8
BRANCH   1  14
ATOM     14  O   UNL     1      34.856 -13.550 -22.266  0.00  0.00    -0.370 OA
ATOM     15  H   UNL     1      34.916 -13.760 -21.321  0.00  0.00    +0.212 HD
ENDBRANCH   1  14
BRANCH   1  17
ATOM     16  O   UNL     1      32.329 -15.696 -21.842  0.00  0.00    -0.247 OA
ATOM     17  C   UNL     1      33.329 -15.209 -22.355  0.00  0.00    +0.349 C 
BRANCH  17  18
ATOM     18  O   UNL     1      34.440 -15.929 -22.721  0.00  0.00    -0.449 OA
BRANCH  18  19
ATOM     19  C   UNL     1      34.424 -17.312 -22.395  0.00  0.00    +0.186 C 
BRANCH  19  20
ATOM     20  C   UNL     1      35.186 -17.518 -21.095  0.00  0.00    -0.029 C 
BRANCH  20  21
ATOM     21  N   UNL     1      35.090 -18.909 -20.655  0.00  0.00    +0.389 N 
ATOM     22  H   UNL     1      34.825 -18.919 -19.670  0.00  0.00    -0.080 HD
BRANCH  21  23
ATOM     23  C   UNL     1      34.063 -19.617 -21.418  0.00  0.00    -0.077 C 
ATOM     24  C   UNL     1      32.922 -20.063 -20.520  0.00  0.00    -0.025 C 
ENDBRANCH  21  23
BRANCH  21  25
ATOM     25  C   UNL     1      36.383 -19.578 -20.794  0.00  0.00    -0.077 C 
ATOM     26  C   UNL     1      36.467 -20.801 -19.896  0.00  0.00    -0.025 C 
ENDBRANCH  21  25
ENDBRANCH  20  21
ENDBRANCH  19  20
ENDBRANCH  18  19
ENDBRANCH  17  18
ENDBRANCH   1  17
TORSDOF 10
ENDMDL
MODEL 8
REMARK VINA RESULT:      -7.8      7.984     11.540
REMARK  Name = 9330
REMARK  10 active torsions:
REMARK  status: ('A' for Active; 'I' for Inactive)
REMARK    1  A    between atoms: C_1  and  C_2
REMARK    2  A    between atoms: C_1  and  C_8
REMARK    3  A    between atoms: C_1  and  O_14
REMARK    4  A    between atoms: C_1  and  C_17
REMARK    5  A    between atoms: C_17  and  O_18
REMARK    6  A    between atoms: O_18  and  C_19
REMARK    7  A    between atoms: C_19  and  C_20
REMARK    8  A    between atoms: C_20  and  N_21
REMARK    9  A    between atoms: N_21  and  C_23
REMARK   10  A    between atoms: N_21  and  C_25
REMARK                            x       y       z     vdW  Elec       q    Type
REMARK                         _______ _______ _______ _____ _____    ______ ____
ROOT
ATOM      1  C   UNL     1      34.574 -23.645 -15.178  0.00  0.00    +0.216 C 
ENDROOT
BRANCH   1   2
ATOM      2  C   UNL     1      34.697 -23.059 -16.587  0.00  0.00    +0.016 C 
ATOM      3  C   UNL     1      33.644 -23.214 -17.459  0.00  0.00    -0.001 C 
ATOM      4  C   UNL     1      35.855 -22.398 -16.927  0.00  0.00    -0.001 C 
ATOM      5  C   UNL     1      33.756 -22.679 -18.742  0.00  0.00    -0.000 C 
ATOM      6  C   UNL     1      35.967 -21.863 -18.210  0.00  0.00    -0.000 C 
ATOM      7  C   UNL     1      34.917 -22.003 -19.118  0.00  0.00    -0.000 C 
ENDBRANCH   1   2
BRANCH   1   8
ATOM      8  C   UNL     1      33.104 -23.776 -14.769  0.00  0.00    +0.016 C 
ATOM      9  C   UNL     1      32.676 -24.964 -14.223  0.00  0.00    -0.001 C 
ATOM     10  C   UNL     1      32.269 -22.701 -14.964  0.00  0.00    -0.001 C 
ATOM     11  C   UNL     1      31.337 -25.083 -13.850  0.00  0.00    -0.000 C 
ATOM     12  C   UNL     1      30.930 -22.819 -14.591  0.00  0.00    -0.000 C 
ATOM     13  C   UNL     1      30.465 -24.011 -14.034  0.00  0.00    -0.000 C 
ENDBRANCH   1   8
BRANCH   1  14
ATOM     14  O   UNL     1      35.280 -22.808 -14.242  0.00  0.00    -0.370 OA
ATOM     15  H   UNL     1      36.202 -22.708 -14.528  0.00  0.00    +0.212 HD
ENDBRANCH   1  14
BRANCH   1  17
ATOM     16  O   UNL     1      35.580 -25.763 -15.878  0.00  0.00    -0.247 OA
ATOM     17  C   UNL     1      35.386 -24.930 -15.001  0.00  0.00    +0.349 C 
BRANCH  17  18
ATOM     18  O   UNL     1      35.902 -25.009 -13.730  0.00  0.00    -0.449 OA
BRANCH  18  19
ATOM     19  C   UNL     1      36.617 -26.197 -13.418  0.00  0.00    +0.186 C 
BRANCH  19  20
ATOM     20  C   UNL     1      37.776 -25.845 -12.500  0.00  0.00    -0.029 C 
BRANCH  20  21
ATOM     21  N   UNL     1      38.571 -24.756 -13.067  0.00  0.00    +0.389 N 
ATOM     22  H   UNL     1      38.044 -24.335 -13.832  0.00  0.00    -0.080 HD
BRANCH  21  23
ATOM     23  C   UNL     1      38.822 -23.728 -12.058  0.00  0.00    -0.077 C 
ATOM     24  C   UNL     1      37.549 -22.971 -11.717  0.00  0.00    -0.025 C 
ENDBRANCH  21  23
BRANCH  21  25
ATOM     25  C   UNL     1      39.833 -25.269 -13.600  0.00  0.00    -0.077 C 
ATOM     26  C   UNL     1      39.853 -25.207 -15.117  0.00  0.00    -0.025 C 
ENDBRANCH  21  25
ENDBRANCH  20  21
ENDBRANCH  19  20
ENDBRANCH  18  19
ENDBRANCH  17  18
ENDBRANCH   1  17
TORSDOF 10
ENDMDL
MODEL 9
REMARK VINA RESULT:      -7.8      3.068      6.599
REMARK  Name = 9330
REMARK  10 active torsions:
REMARK  status: ('A' for Active; 'I' for Inactive)
REMARK    1  A    between atoms: C_1  and  C_2
REMARK    2  A    between atoms: C_1  and  C_8
REMARK    3  A    between atoms: C_1  and  O_14
REMARK    4  A    between atoms: C_1  and  C_17
REMARK    5  A    between atoms: C_17  and  O_18
REMARK    6  A    between atoms: O_18  and  C_19
REMARK    7  A    between atoms: C_19  and  C_20
REMARK    8  A    between atoms: C_20  and  N_21
REMARK    9  A    between atoms: N_21  and  C_23
REMARK   10  A    between atoms: N_21  and  C_25
REMARK                            x       y       z     vdW  Elec       q    Type
REMARK                         _______ _______ _______ _____ _____    ______ ____
ROOT
ATOM      1  C   UNL     1      33.831 -14.552 -23.200  0.00  0.00    +0.216 C 
ENDROOT
BRANCH   1   2
ATOM      2  C   UNL     1      34.387 -15.970 -23.343  0.00  0.00    +0.016 C 
ATOM      3  C   UNL     1      35.045 -16.531 -22.272  0.00  0.00    -0.001 C 
ATOM      4  C   UNL     1      34.209 -16.631 -24.537  0.00  0.00    -0.001 C 
ATOM      5  C   UNL     1      35.552 -17.823 -22.402  0.00  0.00    -0.000 C 
ATOM      6  C   UNL     1      34.717 -17.925 -24.666  0.00  0.00    -0.000 C 
ATOM      7  C   UNL     1      35.388 -18.520 -23.598  0.00  0.00    -0.000 C 
ENDBRANCH   1   2
BRANCH   1   8
ATOM      8  C   UNL     1      33.606 -13.913 -24.574  0.00  0.00    +0.016 C 
ATOM      9  C   UNL     1      34.034 -12.623 -24.778  0.00  0.00    -0.001 C 
ATOM     10  C   UNL     1      32.986 -14.657 -25.551  0.00  0.00    -0.001 C 
ATOM     11  C   UNL     1      33.830 -12.041 -26.030  0.00  0.00    -0.000 C 
ATOM     12  C   UNL     1      32.782 -14.076 -26.803  0.00  0.00    -0.000 C 
ATOM     13  C   UNL     1      33.204 -12.768 -27.042  0.00  0.00    -0.000 C 
ENDBRANCH   1   8
BRANCH   1  14
ATOM     14  O   UNL     1      34.740 -13.751 -22.420  0.00  0.00    -0.370 OA
ATOM     15  H   UNL     1      34.283 -12.955 -22.105  0.00  0.00    +0.212 HD
ENDBRANCH   1  14
BRANCH   1  17
ATOM     16  O   UNL     1      32.246 -15.388 -21.533  0.00  0.00    -0.247 OA
ATOM     17  C   UNL     1      32.611 -14.486 -22.278  0.00  0.00    +0.349 C 
BRANCH  17  18
ATOM     18  O   UNL     1      31.996 -13.260 -22.369  0.00  0.00    -0.449 OA
BRANCH  18  19
ATOM     19  C   UNL     1      31.826 -12.554 -21.147  0.00  0.00    +0.186 C 
BRANCH  19  20
ATOM     20  C   UNL     1      31.064 -11.269 -21.427  0.00  0.00    -0.029 C 
BRANCH  20  21
ATOM     21  N   UNL     1      31.968 -10.120 -21.418  0.00  0.00    +0.389 N 
ATOM     22  H   UNL     1      32.919 -10.455 -21.572  0.00  0.00    -0.080 HD
BRANCH  21  23
ATOM     23  C   UNL     1      31.626  -9.192 -22.495  0.00  0.00    -0.077 C 
ATOM     24  C   UNL     1      32.567  -9.350 -23.677  0.00  0.00    -0.025 C 
ENDBRANCH  21  23
BRANCH  21  25
ATOM     25  C   UNL     1      31.919  -9.441 -20.123  0.00  0.00    -0.077 C 
ATOM     26  C   UNL     1      32.356  -7.992 -20.247  0.00  0.00    -0.025 C 
ENDBRANCH  21  25
ENDBRANCH  20  21
ENDBRANCH  19  20
ENDBRANCH  18  19
ENDBRANCH  17  18
ENDBRANCH   1  17
TORSDOF 10
ENDMDL
