MODEL 1
REMARK VINA RESULT:     -10.6      0.000      0.000
REMARK  Name = 62528
REMARK  8 active torsions:
REMARK  status: ('A' for Active; 'I' for Inactive)
REMARK    1  A    between atoms: N_1  and  C_13
REMARK    2  A    between atoms: C_3  and  C_21
REMARK    3  A    between atoms: C_8  and  N_12
REMARK    4  A    between atoms: C_13  and  C_14
REMARK    5  A    between atoms: C_14  and  N_15
REMARK    6  A    between atoms: N_15  and  C_17
REMARK    7  A    between atoms: N_15  and  C_19
REMARK    8  A    between atoms: C_21  and  C_23
REMARK                            x       y       z     vdW  Elec       q    Type
REMARK                         _______ _______ _______ _____ _____    ______ ____
ROOT
ATOM      1  N   UNL     1      33.364 -23.569 -15.934  0.00  0.00    -0.266 N 
ATOM      2  N   UNL     1      35.379 -22.928 -16.618  0.00  0.00    -0.390 NA
ATOM      3  C   UNL     1      34.136 -23.153 -16.982  0.00  0.00    +0.168 C 
ATOM      4  C   UNL     1      34.161 -23.614 -14.819  0.00  0.00    +0.079 C 
ATOM      5  C   UNL     1      35.414 -23.210 -15.272  0.00  0.00    +0.147 C 
ATOM      6  C   UNL     1      33.902 -23.964 -13.494  0.00  0.00    -0.002 C 
ATOM      7  C   UNL     1      36.482 -23.143 -14.362  0.00  0.00    +0.053 C 
ATOM      8  C   UNL     1      36.246 -23.490 -13.026  0.00  0.00    +0.127 C 
ATOM      9  C   UNL     1      34.977 -23.893 -12.602  0.00  0.00    +0.078 C 
ENDROOT
BRANCH   8  12
ATOM     10  O   UNL     1      37.518 -24.421 -11.343  0.00  0.00    -0.126 OA
ATOM     11  O   UNL     1      38.021 -22.399 -12.038  0.00  0.00    -0.126 OA
ATOM     12  N   UNL     1      37.314 -23.435 -12.090  0.00  0.00    +0.054 N 
ENDBRANCH   8  12
BRANCH   1  13
ATOM     13  C   UNL     1      31.958 -23.902 -15.987  0.00  0.00    +0.075 C 
BRANCH  13  14
ATOM     14  C   UNL     1      31.079 -22.723 -15.580  0.00  0.00    -0.055 C 
BRANCH  14  15
ATOM     15  N   UNL     1      29.850 -23.205 -14.961  0.00  0.00    +0.388 N 
ATOM     16  H   UNL     1      29.525 -22.495 -14.305  0.00  0.00    -0.080 HD
BRANCH  15  17
ATOM     17  C   UNL     1      28.811 -23.414 -15.972  0.00  0.00    -0.077 C 
ATOM     18  C   UNL     1      27.720 -22.372 -15.822  0.00  0.00    -0.025 C 
ENDBRANCH  15  17
BRANCH  15  19
ATOM     19  C   UNL     1      30.096 -24.445 -14.222  0.00  0.00    -0.077 C 
ATOM     20  C   UNL     1      29.044 -25.479 -14.574  0.00  0.00    -0.025 C 
ENDBRANCH  15  19
ENDBRANCH  14  15
ENDBRANCH  13  14
ENDBRANCH   1  13
BRANCH   3  21
ATOM     21  C   UNL     1      33.592 -22.993 -18.347  0.00  0.00    +0.101 C 
BRANCH  21  23
ATOM     22 CL   UNL     1      36.268 -18.675 -21.543  0.00  0.00    -0.082 Cl
ATOM     23  C   UNL     1      34.271 -21.898 -19.158  0.00  0.00    -0.014 C 
ATOM     24  C   UNL     1      35.649 -21.848 -19.187  0.00  0.00    -0.003 C 
ATOM     25  C   UNL     1      33.487 -20.990 -19.838  0.00  0.00    -0.003 C 
ATOM     26  C   UNL     1      36.271 -20.844 -19.930  0.00  0.00    +0.011 C 
ATOM     27  C   UNL     1      34.108 -19.986 -20.582  0.00  0.00    +0.011 C 
ATOM     28  C   UNL     1      35.500 -19.913 -20.627  0.00  0.00    +0.058 C 
ENDBRANCH  21  23
ENDBRANCH   3  21
TORSDOF 8
ENDMDL
MODEL 2
REMARK VINA RESULT:      -9.8      3.093      5.411
REMARK  Name = 62528
REMARK  8 active torsions:
REMARK  status: ('A' for Active; 'I' for Inactive)
REMARK    1  A    between atoms: N_1  and  C_13
REMARK    2  A    between atoms: C_3  and  C_21
REMARK    3  A    between atoms: C_8  and  N_12
REMARK    4  A    between atoms: C_13  and  C_14
REMARK    5  A    between atoms: C_14  and  N_15
REMARK    6  A    between atoms: N_15  and  C_17
REMARK    7  A    between atoms: N_15  and  C_19
REMARK    8  A    between atoms: C_21  and  C_23
REMARK                            x       y       z     vdW  Elec       q    Type
REMARK                         _______ _______ _______ _____ _____    ______ ____
ROOT
ATOM      1  N   UNL     1      34.162 -22.951 -16.459  0.00  0.00    -0.266 N 
ATOM      2  N   UNL     1      32.724 -22.833 -18.149  0.00  0.00    -0.390 NA
ATOM      3  C   UNL     1      33.989 -22.754 -17.800  0.00  0.00    +0.168 C 
ATOM      4  C   UNL     1      32.927 -23.172 -15.906  0.00  0.00    +0.079 C 
ATOM      5  C   UNL     1      32.046 -23.094 -16.981  0.00  0.00    +0.147 C 
ATOM      6  C   UNL     1      32.517 -23.427 -14.596  0.00  0.00    -0.002 C 
ATOM      7  C   UNL     1      30.672 -23.278 -16.755  0.00  0.00    +0.053 C 
ATOM      8  C   UNL     1      30.236 -23.535 -15.449  0.00  0.00    +0.127 C 
ATOM      9  C   UNL     1      31.145 -23.607 -14.390  0.00  0.00    +0.078 C 
ENDROOT
BRANCH   8  12
ATOM     10  O   UNL     1      28.465 -24.794 -14.678  0.00  0.00    -0.126 OA
ATOM     11  O   UNL     1      28.051 -22.802 -15.505  0.00  0.00    -0.126 OA
ATOM     12  N   UNL     1      28.850 -23.720 -15.198  0.00  0.00    +0.054 N 
ENDBRANCH   8  12
BRANCH   1  13
ATOM     13  C   UNL     1      35.420 -22.931 -15.747  0.00  0.00    +0.075 C 
BRANCH  13  14
ATOM     14  C   UNL     1      35.889 -24.336 -15.379  0.00  0.00    -0.055 C 
BRANCH  14  15
ATOM     15  N   UNL     1      36.734 -24.288 -14.193  0.00  0.00    +0.388 N 
ATOM     16  H   UNL     1      37.600 -23.809 -14.439  0.00  0.00    -0.080 HD
BRANCH  15  17
ATOM     17  C   UNL     1      36.076 -23.539 -13.120  0.00  0.00    -0.077 C 
ATOM     18  C   UNL     1      35.262 -24.479 -12.252  0.00  0.00    -0.025 C 
ENDBRANCH  15  17
BRANCH  15  19
ATOM     19  C   UNL     1      37.063 -25.641 -13.739  0.00  0.00    -0.077 C 
ATOM     20  C   UNL     1      36.913 -26.626 -14.882  0.00  0.00    -0.025 C 
ENDBRANCH  15  19
ENDBRANCH  14  15
ENDBRANCH  13  14
ENDBRANCH   1  13
BRANCH   3  21
ATOM     21  C   UNL     1      35.122 -22.485 -18.709  0.00  0.00    +0.101 C 
BRANCH  21  23
ATOM     22 CL   UNL     1      34.336 -17.687 -22.229  0.00  0.00    -0.082 Cl
ATOM     23  C   UNL     1      34.922 -21.268 -19.602  0.00  0.00    -0.014 C 
ATOM     24  C   UNL     1      33.639 -20.883 -19.926  0.00  0.00    -0.003 C 
ATOM     25  C   UNL     1      36.032 -20.588 -20.059  0.00  0.00    -0.003 C 
ATOM     26  C   UNL     1      33.455 -19.768 -20.744  0.00  0.00    +0.011 C 
ATOM     27  C   UNL     1      35.850 -19.472 -20.877  0.00  0.00    +0.011 C 
ATOM     28  C   UNL     1      34.562 -19.063 -21.219  0.00  0.00    +0.058 C 
ENDBRANCH  21  23
ENDBRANCH   3  21
TORSDOF 8
ENDMDL
MODEL 3
REMARK VINA RESULT:      -9.4      2.884      5.519
REMARK  Name = 62528
REMARK  8 active torsions:
REMARK  status: ('A' for Active; 'I' for Inactive)
REMARK    1  A    between atoms: N_1  and  C_13
REMARK    2  A    between atoms: C_3  and  C_21
REMARK    3  A    between atoms: C_8  and  N_12
REMARK    4  A    between atoms: C_13  and  C_14
REMARK    5  A    between atoms: C_14  and  N_15
REMARK    6  A    between atoms: N_15  and  C_17
REMARK    7  A    between atoms: N_15  and  C_19
REMARK    8  A    between atoms: C_21  and  C_23
REMARK                            x       y       z     vdW  Elec       q    Type
REMARK                         _______ _______ _______ _____ _____    ______ ____
ROOT
ATOM      1  N   UNL     1      35.417 -22.782 -16.228  0.00  0.00    -0.266 N 
ATOM      2  N   UNL     1      33.990 -22.735 -17.931  0.00  0.00    -0.390 NA
ATOM      3  C   UNL     1      35.229 -22.511 -17.554  0.00  0.00    +0.168 C 
ATOM      4  C   UNL     1      34.219 -23.210 -15.715  0.00  0.00    +0.079 C 
ATOM      5  C   UNL     1      33.345 -23.172 -16.798  0.00  0.00    +0.147 C 
ATOM      6  C   UNL     1      33.837 -23.615 -14.436  0.00  0.00    -0.002 C 
ATOM      7  C   UNL     1      32.007 -23.559 -16.612  0.00  0.00    +0.053 C 
ATOM      8  C   UNL     1      31.600 -23.969 -15.336  0.00  0.00    +0.127 C 
ATOM      9  C   UNL     1      32.501 -23.996 -14.269  0.00  0.00    +0.078 C 
ENDROOT
BRANCH   8  12
ATOM     10  O   UNL     1      30.011 -25.522 -14.720  0.00  0.00    -0.126 OA
ATOM     11  O   UNL     1      29.337 -23.529 -15.350  0.00  0.00    -0.126 OA
ATOM     12  N   UNL     1      30.250 -24.359 -15.125  0.00  0.00    +0.054 N 
ENDBRANCH   8  12
BRANCH   1  13
ATOM     13  C   UNL     1      36.654 -22.644 -15.493  0.00  0.00    +0.075 C 
BRANCH  13  14
ATOM     14  C   UNL     1      37.352 -23.987 -15.295  0.00  0.00    -0.055 C 
BRANCH  14  15
ATOM     15  N   UNL     1      37.334 -24.358 -13.886  0.00  0.00    +0.388 N 
ATOM     16  H   UNL     1      36.523 -24.954 -13.725  0.00  0.00    -0.080 HD
BRANCH  15  17
ATOM     17  C   UNL     1      38.541 -25.111 -13.536  0.00  0.00    -0.077 C 
ATOM     18  C   UNL     1      39.447 -25.236 -14.747  0.00  0.00    -0.025 C 
ENDBRANCH  15  17
BRANCH  15  19
ATOM     19  C   UNL     1      37.215 -23.170 -13.040  0.00  0.00    -0.077 C 
ATOM     20  C   UNL     1      36.695 -23.555 -11.669  0.00  0.00    -0.025 C 
ENDBRANCH  15  19
ENDBRANCH  14  15
ENDBRANCH  13  14
ENDBRANCH   1  13
BRANCH   3  21
ATOM     21  C   UNL     1      36.323 -22.023 -18.420  0.00  0.00    +0.101 C 
BRANCH  21  23
ATOM     22 CL   UNL     1      34.566 -18.011 -22.524  0.00  0.00    -0.082 Cl
ATOM     23  C   UNL     1      35.878 -21.005 -19.462  0.00  0.00    -0.014 C 
ATOM     24  C   UNL     1      36.817 -20.156 -20.007  0.00  0.00    -0.003 C 
ATOM     25  C   UNL     1      34.548 -20.965 -19.827  0.00  0.00    -0.003 C 
ATOM     26  C   UNL     1      36.409 -19.223 -20.961  0.00  0.00    +0.011 C 
ATOM     27  C   UNL     1      34.139 -20.033 -20.782  0.00  0.00    +0.011 C 
ATOM     28  C   UNL     1      35.069 -19.162 -21.348  0.00  0.00    +0.058 C 
ENDBRANCH  21  23
ENDBRANCH   3  21
TORSDOF 8
ENDMDL
MODEL 4
REMARK VINA RESULT:      -9.4      4.064      7.263
REMARK  Name = 62528
REMARK  8 active torsions:
REMARK  status: ('A' for Active; 'I' for Inactive)
REMARK    1  A    between atoms: N_1  and  C_13
REMARK    2  A    between atoms: C_3  and  C_21
REMARK    3  A    between atoms: C_8  and  N_12
REMARK    4  A    between atoms: C_13  and  C_14
REMARK    5  A    between atoms: C_14  and  N_15
REMARK    6  A    between atoms: N_15  and  C_17
REMARK    7  A    between atoms: N_15  and  C_19
REMARK    8  A    between atoms: C_21  and  C_23
REMARK                            x       y       z     vdW  Elec       q    Type
REMARK                         _______ _______ _______ _____ _____    ______ ____
ROOT
ATOM      1  N   UNL     1      34.098 -23.129 -17.031  0.00  0.00    -0.266 N 
ATOM      2  N   UNL     1      32.284 -22.418 -18.101  0.00  0.00    -0.390 NA
ATOM      3  C   UNL     1      32.734 -23.155 -17.109  0.00  0.00    +0.168 C 
ATOM      4  C   UNL     1      34.559 -22.321 -18.039  0.00  0.00    +0.079 C 
ATOM      5  C   UNL     1      33.408 -21.890 -18.692  0.00  0.00    +0.147 C 
ATOM      6  C   UNL     1      35.846 -21.942 -18.423  0.00  0.00    -0.002 C 
ATOM      7  C   UNL     1      33.529 -21.028 -19.796  0.00  0.00    +0.053 C 
ATOM      8  C   UNL     1      34.810 -20.635 -20.200  0.00  0.00    +0.127 C 
ATOM      9  C   UNL     1      35.947 -21.084 -19.524  0.00  0.00    +0.078 C 
ENDROOT
BRANCH   8  12
ATOM     10  O   UNL     1      36.032 -19.141 -21.464  0.00  0.00    -0.126 OA
ATOM     11  O   UNL     1      34.001 -19.654 -22.124  0.00  0.00    -0.126 OA
ATOM     12  N   UNL     1      34.955 -19.768 -21.317  0.00  0.00    +0.054 N 
ENDBRANCH   8  12
BRANCH   1  13
ATOM     13  C   UNL     1      34.913 -23.825 -16.061  0.00  0.00    +0.075 C 
BRANCH  13  14
ATOM     14  C   UNL     1      35.333 -22.914 -14.912  0.00  0.00    -0.055 C 
BRANCH  14  15
ATOM     15  N   UNL     1      35.967 -23.696 -13.857  0.00  0.00    +0.388 N 
ATOM     16  H   UNL     1      36.673 -23.113 -13.410  0.00  0.00    -0.080 HD
BRANCH  15  17
ATOM     17  C   UNL     1      34.983 -24.094 -12.848  0.00  0.00    -0.077 C 
ATOM     18  C   UNL     1      35.687 -24.576 -11.594  0.00  0.00    -0.025 C 
ENDBRANCH  15  17
BRANCH  15  19
ATOM     19  C   UNL     1      36.625 -24.879 -14.417  0.00  0.00    -0.077 C 
ATOM     20  C   UNL     1      38.128 -24.683 -14.427  0.00  0.00    -0.025 C 
ENDBRANCH  15  19
ENDBRANCH  14  15
ENDBRANCH  13  14
ENDBRANCH   1  13
BRANCH   3  21
ATOM     21  C   UNL     1      31.906 -23.936 -16.167  0.00  0.00    +0.101 C 
BRANCH  21  23
ATOM     22 CL   UNL     1      26.239 -22.008 -15.733  0.00  0.00    -0.082 Cl
ATOM     23  C   UNL     1      30.468 -23.448 -16.057  0.00  0.00    -0.014 C 
ATOM     24  C   UNL     1      29.518 -23.980 -16.902  0.00  0.00    -0.003 C 
ATOM     25  C   UNL     1      30.162 -22.488 -15.116  0.00  0.00    -0.003 C 
ATOM     26  C   UNL     1      28.200 -23.532 -16.802  0.00  0.00    +0.011 C 
ATOM     27  C   UNL     1      28.844 -22.039 -15.014  0.00  0.00    +0.011 C 
ATOM     28  C   UNL     1      27.864 -22.562 -15.857  0.00  0.00    +0.058 C 
ENDBRANCH  21  23
ENDBRANCH   3  21
TORSDOF 8
ENDMDL
MODEL 5
REMARK VINA RESULT:      -9.3      3.699      6.943
REMARK  Name = 62528
REMARK  8 active torsions:
REMARK  status: ('A' for Active; 'I' for Inactive)
REMARK    1  A    between atoms: N_1  and  C_13
REMARK    2  A    between atoms: C_3  and  C_21
REMARK    3  A    between atoms: C_8  and  N_12
REMARK    4  A    between atoms: C_13  and  C_14
REMARK    5  A    between atoms: C_14  and  N_15
REMARK    6  A    between atoms: N_15  and  C_17
REMARK    7  A    between atoms: N_15  and  C_19
REMARK    8  A    between atoms: C_21  and  C_23
REMARK                            x       y       z     vdW  Elec       q    Type
REMARK                         _______ _______ _______ _____ _____    ______ ____
ROOT
ATOM      1  N   UNL     1      34.224 -23.510 -15.432  0.00  0.00    -0.266 N 
ATOM      2  N   UNL     1      32.860 -23.259 -17.168  0.00  0.00    -0.390 NA
ATOM      3  C   UNL     1      32.973 -23.718 -15.942  0.00  0.00    +0.168 C 
ATOM      4  C   UNL     1      34.966 -22.872 -16.393  0.00  0.00    +0.079 C 
ATOM      5  C   UNL     1      34.093 -22.727 -17.467  0.00  0.00    +0.147 C 
ATOM      6  C   UNL     1      36.288 -22.424 -16.413  0.00  0.00    -0.002 C 
ATOM      7  C   UNL     1      34.547 -22.099 -18.639  0.00  0.00    +0.053 C 
ATOM      8  C   UNL     1      35.869 -21.641 -18.683  0.00  0.00    +0.127 C 
ATOM      9  C   UNL     1      36.723 -21.802 -17.589  0.00  0.00    +0.078 C 
ENDROOT
BRANCH   8  12
ATOM     10  O   UNL     1      37.363 -21.478 -20.433  0.00  0.00    -0.126 OA
ATOM     11  O   UNL     1      35.749 -19.995 -20.294  0.00  0.00    -0.126 OA
ATOM     12  N   UNL     1      36.351 -21.008 -19.861  0.00  0.00    +0.054 N 
ENDBRANCH   8  12
BRANCH   1  13
ATOM     13  C   UNL     1      34.685 -23.890 -14.116  0.00  0.00    +0.075 C 
BRANCH  13  14
ATOM     14  C   UNL     1      35.752 -24.978 -14.178  0.00  0.00    -0.055 C 
BRANCH  14  15
ATOM     15  N   UNL     1      36.124 -25.395 -12.831  0.00  0.00    +0.388 N 
ATOM     16  H   UNL     1      35.358 -25.948 -12.448  0.00  0.00    -0.080 HD
BRANCH  15  17
ATOM     17  C   UNL     1      37.329 -26.225 -12.862  0.00  0.00    -0.077 C 
ATOM     18  C   UNL     1      37.545 -26.779 -14.258  0.00  0.00    -0.025 C 
ENDBRANCH  15  17
BRANCH  15  19
ATOM     19  C   UNL     1      36.333 -24.229 -11.970  0.00  0.00    -0.077 C 
ATOM     20  C   UNL     1      37.782 -23.787 -12.034  0.00  0.00    -0.025 C 
ENDBRANCH  15  19
ENDBRANCH  14  15
ENDBRANCH  13  14
ENDBRANCH   1  13
BRANCH   3  21
ATOM     21  C   UNL     1      31.909 -24.389 -15.167  0.00  0.00    +0.101 C 
BRANCH  21  23
ATOM     22 CL   UNL     1      26.430 -22.113 -16.084  0.00  0.00    -0.082 Cl
ATOM     23  C   UNL     1      30.519 -23.811 -15.399  0.00  0.00    -0.014 C 
ATOM     24  C   UNL     1      30.193 -22.605 -14.816  0.00  0.00    -0.003 C 
ATOM     25  C   UNL     1      29.630 -24.512 -16.187  0.00  0.00    -0.003 C 
ATOM     26  C   UNL     1      28.919 -22.075 -15.029  0.00  0.00    +0.011 C 
ATOM     27  C   UNL     1      28.356 -23.983 -16.401  0.00  0.00    +0.011 C 
ATOM     28  C   UNL     1      28.001 -22.765 -15.822  0.00  0.00    +0.058 C 
ENDBRANCH  21  23
ENDBRANCH   3  21
TORSDOF 8
ENDMDL
MODEL 6
REMARK VINA RESULT:      -8.6     14.493     17.588
REMARK  Name = 62528
REMARK  8 active torsions:
REMARK  status: ('A' for Active; 'I' for Inactive)
REMARK    1  A    between atoms: N_1  and  C_13
REMARK    2  A    between atoms: C_3  and  C_21
REMARK    3  A    between atoms: C_8  and  N_12
REMARK    4  A    between atoms: C_13  and  C_14
REMARK    5  A    between atoms: C_14  and  N_15
REMARK    6  A    between atoms: N_15  and  C_17
REMARK    7  A    between atoms: N_15  and  C_19
REMARK    8  A    between atoms: C_21  and  C_23
REMARK                            x       y       z     vdW  Elec       q    Type
REMARK                         _______ _______ _______ _____ _____    ______ ____
ROOT
ATOM      1  N   UNL     1      33.132  -7.304 -22.965  0.00  0.00    -0.266 N 
ATOM      2  N   UNL     1      34.002  -6.754 -24.936  0.00  0.00    -0.390 NA
ATOM      3  C   UNL     1      34.066  -7.589 -23.922  0.00  0.00    +0.168 C 
ATOM      4  C   UNL     1      32.418  -6.213 -23.390  0.00  0.00    +0.079 C 
ATOM      5  C   UNL     1      32.979  -5.889 -24.622  0.00  0.00    +0.147 C 
ATOM      6  C   UNL     1      31.360  -5.504 -22.819  0.00  0.00    -0.002 C 
ATOM      7  C   UNL     1      32.468  -4.796 -25.341  0.00  0.00    +0.053 C 
ATOM      8  C   UNL     1      31.406  -4.069 -24.788  0.00  0.00    +0.127 C 
ATOM      9  C   UNL     1      30.864  -4.419 -23.550  0.00  0.00    +0.078 C 
ENDROOT
BRANCH   8  12
ATOM     10  O   UNL     1      31.497  -2.523 -26.497  0.00  0.00    -0.126 OA
ATOM     11  O   UNL     1      29.805  -2.439 -25.100  0.00  0.00    -0.126 OA
ATOM     12  N   UNL     1      30.877  -2.956 -25.497  0.00  0.00    +0.054 N 
ENDBRANCH   8  12
BRANCH   1  13
ATOM     13  C   UNL     1      32.930  -8.022 -21.728  0.00  0.00    +0.075 C 
BRANCH  13  14
ATOM     14  C   UNL     1      31.801  -9.042 -21.838  0.00  0.00    -0.055 C 
BRANCH  14  15
ATOM     15  N   UNL     1      32.046 -10.162 -20.938  0.00  0.00    +0.388 N 
ATOM     16  H   UNL     1      32.981 -10.522 -21.127  0.00  0.00    -0.080 HD
BRANCH  15  17
ATOM     17  C   UNL     1      31.989  -9.724 -19.542  0.00  0.00    -0.077 C 
ATOM     18  C   UNL     1      31.252 -10.751 -18.703  0.00  0.00    -0.025 C 
ENDBRANCH  15  17
BRANCH  15  19
ATOM     19  C   UNL     1      31.078 -11.235 -21.173  0.00  0.00    -0.077 C 
ATOM     20  C   UNL     1      31.771 -12.441 -21.776  0.00  0.00    -0.025 C 
ENDBRANCH  15  19
ENDBRANCH  14  15
ENDBRANCH  13  14
ENDBRANCH   1  13
BRANCH   3  21
ATOM     21  C   UNL     1      35.015  -8.713 -23.786  0.00  0.00    +0.101 C 
BRANCH  21  23
ATOM     22 CL   UNL     1      33.819 -13.355 -27.398  0.00  0.00    -0.082 Cl
ATOM     23  C   UNL     1      34.712  -9.891 -24.703  0.00  0.00    -0.014 C 
ATOM     24  C   UNL     1      35.455 -10.048 -25.853  0.00  0.00    -0.003 C 
ATOM     25  C   UNL     1      33.703 -10.764 -24.353  0.00  0.00    -0.003 C 
ATOM     26  C   UNL     1      35.178 -11.127 -26.693  0.00  0.00    +0.011 C 
ATOM     27  C   UNL     1      33.425 -11.844 -25.192  0.00  0.00    +0.011 C 
ATOM     28  C   UNL     1      34.162 -12.025 -26.362  0.00  0.00    +0.058 C 
ENDBRANCH  21  23
ENDBRANCH   3  21
TORSDOF 8
ENDMDL
MODEL 7
REMARK VINA RESULT:      -8.3      9.429     13.118
REMARK  Name = 62528
REMARK  8 active torsions:
REMARK  status: ('A' for Active; 'I' for Inactive)
REMARK    1  A    between atoms: N_1  and  C_13
REMARK    2  A    between atoms: C_3  and  C_21
REMARK    3  A    between atoms: C_8  and  N_12
REMARK    4  A    between atoms: C_13  and  C_14
REMARK    5  A    between atoms: C_14  and  N_15
REMARK    6  A    between atoms: N_15  and  C_17
REMARK    7  A    between atoms: N_15  and  C_19
REMARK    8  A    between atoms: C_21  and  C_23
REMARK                            x       y       z     vdW  Elec       q    Type
REMARK                         _______ _______ _______ _____ _____    ______ ____
ROOT
ATOM      1  N   UNL     1      32.640 -13.348 -22.929  0.00  0.00    -0.266 N 
ATOM      2  N   UNL     1      32.273 -14.239 -20.926  0.00  0.00    -0.390 NA
ATOM      3  C   UNL     1      31.924 -13.290 -21.766  0.00  0.00    +0.168 C 
ATOM      4  C   UNL     1      33.508 -14.405 -22.834  0.00  0.00    +0.079 C 
ATOM      5  C   UNL     1      33.260 -14.945 -21.575  0.00  0.00    +0.147 C 
ATOM      6  C   UNL     1      34.460 -14.920 -23.714  0.00  0.00    -0.002 C 
ATOM      7  C   UNL     1      33.995 -16.066 -21.153  0.00  0.00    +0.053 C 
ATOM      8  C   UNL     1      34.956 -16.600 -22.020  0.00  0.00    +0.127 C 
ATOM      9  C   UNL     1      35.183 -16.036 -23.277  0.00  0.00    +0.078 C 
ENDROOT
BRANCH   8  12
ATOM     10  O   UNL     1      35.631 -18.120 -20.422  0.00  0.00    -0.126 OA
ATOM     11  O   UNL     1      36.447 -18.306 -22.452  0.00  0.00    -0.126 OA
ATOM     12  N   UNL     1      35.715 -17.731 -21.611  0.00  0.00    +0.054 N 
ENDBRANCH   8  12
BRANCH   1  13
ATOM     13  C   UNL     1      32.508 -12.457 -24.059  0.00  0.00    +0.075 C 
BRANCH  13  14
ATOM     14  C   UNL     1      33.734 -11.564 -24.227  0.00  0.00    -0.055 C 
BRANCH  14  15
ATOM     15  N   UNL     1      34.350 -11.795 -25.528  0.00  0.00    +0.388 N 
ATOM     16  H   UNL     1      34.975 -12.597 -25.445  0.00  0.00    -0.080 HD
BRANCH  15  17
ATOM     17  C   UNL     1      33.331 -12.102 -26.534  0.00  0.00    -0.077 C 
ATOM     18  C   UNL     1      33.748 -13.313 -27.347  0.00  0.00    -0.025 C 
ENDBRANCH  15  17
BRANCH  15  19
ATOM     19  C   UNL     1      35.136 -10.632 -25.941  0.00  0.00    -0.077 C 
ATOM     20  C   UNL     1      35.207  -9.622 -24.812  0.00  0.00    -0.025 C 
ENDBRANCH  15  19
ENDBRANCH  14  15
ENDBRANCH  13  14
ENDBRANCH   1  13
BRANCH   3  21
ATOM     21  C   UNL     1      30.892 -12.260 -21.528  0.00  0.00    +0.101 C 
BRANCH  21  23
ATOM     22 CL   UNL     1      33.102  -6.945 -19.828  0.00  0.00    -0.082 Cl
ATOM     23  C   UNL     1      31.453 -10.912 -21.096  0.00  0.00    -0.014 C 
ATOM     24  C   UNL     1      31.746 -10.708 -19.765  0.00  0.00    -0.003 C 
ATOM     25  C   UNL     1      31.650  -9.936 -22.051  0.00  0.00    -0.003 C 
ATOM     26  C   UNL     1      32.260  -9.473 -19.369  0.00  0.00    +0.011 C 
ATOM     27  C   UNL     1      32.164  -8.701 -21.657  0.00  0.00    +0.011 C 
ATOM     28  C   UNL     1      32.469  -8.469 -20.316  0.00  0.00    +0.058 C 
ENDBRANCH  21  23
ENDBRANCH   3  21
TORSDOF 8
ENDMDL
MODEL 8
REMARK VINA RESULT:      -8.3     13.580     16.425
REMARK  Name = 62528
REMARK  8 active torsions:
REMARK  status: ('A' for Active; 'I' for Inactive)
REMARK    1  A    between atoms: N_1  and  C_13
REMARK    2  A    between atoms: C_3  and  C_21
REMARK    3  A    between atoms: C_8  and  N_12
REMARK    4  A    between atoms: C_13  and  C_14
REMARK    5  A    between atoms: C_14  and  N_15
REMARK    6  A    between atoms: N_15  and  C_17
REMARK    7  A    between atoms: N_15  and  C_19
REMARK    8  A    between atoms: C_21  and  C_23
REMARK                            x       y       z     vdW  Elec       q    Type
REMARK                         _______ _______ _______ _____ _____    ______ ____
ROOT
ATOM      1  N   UNL     1      33.840  -9.677 -23.314  0.00  0.00    -0.266 N 
ATOM      2  N   UNL     1      34.741  -9.616 -25.345  0.00  0.00    -0.390 NA
ATOM      3  C   UNL     1      34.514  -8.935 -24.243  0.00  0.00    +0.168 C 
ATOM      4  C   UNL     1      33.617 -10.919 -23.851  0.00  0.00    +0.079 C 
ATOM      5  C   UNL     1      34.188 -10.855 -25.119  0.00  0.00    +0.147 C 
ATOM      6  C   UNL     1      32.983 -12.057 -23.352  0.00  0.00    -0.002 C 
ATOM      7  C   UNL     1      34.135 -11.986 -25.952  0.00  0.00    +0.053 C 
ATOM      8  C   UNL     1      33.504 -13.140 -25.472  0.00  0.00    +0.127 C 
ATOM      9  C   UNL     1      32.939 -13.173 -24.195  0.00  0.00    +0.078 C 
ENDROOT
BRANCH   8  12
ATOM     10  O   UNL     1      33.206 -15.408 -25.771  0.00  0.00    -0.126 OA
ATOM     11  O   UNL     1      33.603 -14.163 -27.536  0.00  0.00    -0.126 OA
ATOM     12  N   UNL     1      33.434 -14.294 -26.300  0.00  0.00    +0.054 N 
ENDBRANCH   8  12
BRANCH   1  13
ATOM     13  C   UNL     1      33.434  -9.236 -21.998  0.00  0.00    +0.075 C 
BRANCH  13  14
ATOM     14  C   UNL     1      31.933  -8.973 -21.923  0.00  0.00    -0.055 C 
BRANCH  14  15
ATOM     15  N   UNL     1      31.576  -8.473 -20.601  0.00  0.00    +0.388 N 
ATOM     16  H   UNL     1      30.571  -8.304 -20.587  0.00  0.00    -0.080 HD
BRANCH  15  17
ATOM     17  C   UNL     1      31.896  -9.465 -19.572  0.00  0.00    -0.077 C 
ATOM     18  C   UNL     1      31.025 -10.694 -19.742  0.00  0.00    -0.025 C 
ENDBRANCH  15  17
BRANCH  15  19
ATOM     19  C   UNL     1      32.266  -7.212 -20.323  0.00  0.00    -0.077 C 
ATOM     20  C   UNL     1      31.612  -6.080 -21.091  0.00  0.00    -0.025 C 
ENDBRANCH  15  19
ENDBRANCH  14  15
ENDBRANCH  13  14
ENDBRANCH   1  13
BRANCH   3  21
ATOM     21  C   UNL     1      34.918  -7.536 -23.991  0.00  0.00    +0.101 C 
BRANCH  21  23
ATOM     22 CL   UNL     1      31.953  -3.516 -27.319  0.00  0.00    -0.082 Cl
ATOM     23  C   UNL     1      34.165  -6.516 -24.835  0.00  0.00    -0.014 C 
ATOM     24  C   UNL     1      32.876  -6.181 -24.482  0.00  0.00    -0.003 C 
ATOM     25  C   UNL     1      34.798  -5.959 -25.927  0.00  0.00    -0.003 C 
ATOM     26  C   UNL     1      32.186  -5.246 -25.255  0.00  0.00    +0.011 C 
ATOM     27  C   UNL     1      34.110  -5.024 -26.701  0.00  0.00    +0.011 C 
ATOM     28  C   UNL     1      32.804  -4.668 -26.364  0.00  0.00    +0.058 C 
ENDBRANCH  21  23
ENDBRANCH   3  21
TORSDOF 8
ENDMDL
MODEL 9
REMARK VINA RESULT:      -8.2      3.915      7.282
REMARK  Name = 62528
REMARK  8 active torsions:
REMARK  status: ('A' for Active; 'I' for Inactive)
REMARK    1  A    between atoms: N_1  and  C_13
REMARK    2  A    between atoms: C_3  and  C_21
REMARK    3  A    between atoms: C_8  and  N_12
REMARK    4  A    between atoms: C_13  and  C_14
REMARK    5  A    between atoms: C_14  and  N_15
REMARK    6  A    between atoms: N_15  and  C_17
REMARK    7  A    between atoms: N_15  and  C_19
REMARK    8  A    between atoms: C_21  and  C_23
REMARK                            x       y       z     vdW  Elec       q    Type
REMARK                         _______ _______ _______ _____ _____    ______ ____
ROOT
ATOM      1  N   UNL     1      34.109 -23.462 -14.250  0.00  0.00    -0.266 N 
ATOM      2  N   UNL     1      33.029 -24.835 -12.876  0.00  0.00    -0.390 NA
ATOM      3  C   UNL     1      34.160 -24.205 -13.104  0.00  0.00    +0.168 C 
ATOM      4  C   UNL     1      32.862 -23.622 -14.798  0.00  0.00    +0.079 C 
ATOM      5  C   UNL     1      32.207 -24.483 -13.922  0.00  0.00    +0.147 C 
ATOM      6  C   UNL     1      32.269 -23.102 -15.949  0.00  0.00    -0.002 C 
ATOM      7  C   UNL     1      30.881 -24.858 -14.195  0.00  0.00    +0.053 C 
ATOM      8  C   UNL     1      30.265 -24.350 -15.345  0.00  0.00    +0.127 C 
ATOM      9  C   UNL     1      30.948 -23.487 -16.205  0.00  0.00    +0.078 C 
ENDROOT
BRANCH   8  12
ATOM     10  O   UNL     1      28.246 -25.299 -14.761  0.00  0.00    -0.126 OA
ATOM     11  O   UNL     1      28.462 -24.459 -16.779  0.00  0.00    -0.126 OA
ATOM     12  N   UNL     1      28.925 -24.721 -15.642  0.00  0.00    +0.054 N 
ENDBRANCH   8  12
BRANCH   1  13
ATOM     13  C   UNL     1      35.176 -22.650 -14.791  0.00  0.00    +0.075 C 
BRANCH  13  14
ATOM     14  C   UNL     1      35.623 -23.138 -16.166  0.00  0.00    -0.055 C 
BRANCH  14  15
ATOM     15  N   UNL     1      35.770 -22.009 -17.076  0.00  0.00    +0.388 N 
ATOM     16  H   UNL     1      35.324 -21.197 -16.649  0.00  0.00    -0.080 HD
BRANCH  15  17
ATOM     17  C   UNL     1      37.185 -21.703 -17.293  0.00  0.00    -0.077 C 
ATOM     18  C   UNL     1      38.048 -22.534 -16.363  0.00  0.00    -0.025 C 
ENDBRANCH  15  17
BRANCH  15  19
ATOM     19  C   UNL     1      35.109 -22.286 -18.353  0.00  0.00    -0.077 C 
ATOM     20  C   UNL     1      35.770 -21.495 -19.465  0.00  0.00    -0.025 C 
ENDBRANCH  15  19
ENDBRANCH  14  15
ENDBRANCH  13  14
ENDBRANCH   1  13
BRANCH   3  21
ATOM     21  C   UNL     1      35.369 -24.263 -12.257  0.00  0.00    +0.101 C 
BRANCH  21  23
ATOM     22 CL   UNL     1      40.235 -26.325 -15.103  0.00  0.00    -0.082 Cl
ATOM     23  C   UNL     1      36.604 -24.786 -12.978  0.00  0.00    -0.014 C 
ATOM     24  C   UNL     1      37.822 -24.191 -12.730  0.00  0.00    -0.003 C 
ATOM     25  C   UNL     1      36.464 -25.839 -13.859  0.00  0.00    -0.003 C 
ATOM     26  C   UNL     1      38.954 -24.670 -13.391  0.00  0.00    +0.011 C 
ATOM     27  C   UNL     1      37.595 -26.319 -14.520  0.00  0.00    +0.011 C 
ATOM     28  C   UNL     1      38.840 -25.734 -14.286  0.00  0.00    +0.058 C 
ENDBRANCH  21  23
ENDBRANCH   3  21
TORSDOF 8
ENDMDL
