MODEL 1
REMARK VINA RESULT:     -11.7      0.000      0.000
REMARK  Name = 10274777
REMARK  10 active torsions:
REMARK  status: ('A' for Active; 'I' for Inactive)
REMARK    1  A    between atoms: C_2  and  C_25
REMARK    2  A    between atoms: C_5  and  O_10
REMARK    3  A    between atoms: O_10  and  C_11
REMARK    4  A    between atoms: C_11  and  C_12
REMARK    5  A    between atoms: C_12  and  C_15
REMARK    6  A    between atoms: C_17  and  C_19
REMARK    7  A    between atoms: C_25  and  C_26
REMARK    8  A    between atoms: C_26  and  O_27
REMARK    9  A    between atoms: C_26  and  C_30
REMARK   10  A    between atoms: C_30  and  O_31
REMARK                            x       y       z     vdW  Elec       q    Type
REMARK                         _______ _______ _______ _____ _____    ______ ____
ROOT
ATOM      1  S   UNL     1      32.257 -23.909 -14.596  0.00  0.00    -0.087 S 
ATOM      2  C   UNL     1      35.026 -23.630 -14.221  0.00  0.00    -0.013 C 
ATOM      3  C   UNL     1      33.886 -23.564 -15.045  0.00  0.00    +0.029 C 
ATOM      4  C   UNL     1      33.975 -23.190 -16.389  0.00  0.00    +0.040 C 
ATOM      5  C   UNL     1      35.252 -22.874 -16.912  0.00  0.00    +0.139 C 
ATOM      6  C   UNL     1      36.272 -23.312 -14.767  0.00  0.00    -0.001 C 
ATOM      7  C   UNL     1      36.386 -22.938 -16.098  0.00  0.00    +0.037 C 
ATOM      8  C   UNL     1      32.684 -23.199 -17.017  0.00  0.00    +0.010 C 
ATOM      9  C   UNL     1      31.674 -23.568 -16.161  0.00  0.00    +0.036 C 
ENDROOT
BRANCH   5  10
ATOM     10  O   UNL     1      35.405 -22.500 -18.224  0.00  0.00    -0.475 OA
BRANCH  10  11
ATOM     11  C   UNL     1      36.397 -21.518 -18.494  0.00  0.00    +0.213 C 
BRANCH  11  12
ATOM     12  C   UNL     1      36.449 -21.239 -19.994  0.00  0.00    +0.105 C 
BRANCH  12  15
ATOM     13  O   UNL     1      33.730 -18.976 -20.898  0.00  0.00    -0.449 OA
ATOM     14  N   UNL     1      35.992 -18.959 -20.835  0.00  0.00    -0.373 NA
ATOM     15  C   UNL     1      35.503 -20.152 -20.417  0.00  0.00    +0.134 C 
ATOM     16  C   UNL     1      34.151 -20.190 -20.445  0.00  0.00    +0.216 C 
ATOM     17  C   UNL     1      34.891 -18.295 -21.109  0.00  0.00    +0.277 C 
ATOM     18  C   UNL     1      33.116 -21.177 -20.120  0.00  0.00    +0.055 C 
BRANCH  17  19
ATOM     19  C   UNL     1      34.732 -16.955 -21.599  0.00  0.00    +0.066 C 
ATOM     20  C   UNL     1      34.780 -16.699 -22.973  0.00  0.00    +0.006 C 
ATOM     21  C   UNL     1      34.531 -15.898 -20.708  0.00  0.00    +0.006 C 
ATOM     22  C   UNL     1      34.627 -15.398 -23.451  0.00  0.00    +0.000 C 
ATOM     23  C   UNL     1      34.377 -14.596 -21.186  0.00  0.00    +0.000 C 
ATOM     24  C   UNL     1      34.425 -14.346 -22.557  0.00  0.00    +0.000 C 
ENDBRANCH  17  19
ENDBRANCH  12  15
ENDBRANCH  11  12
ENDBRANCH  10  11
ENDBRANCH   5  10
BRANCH   2  25
ATOM     25  C   UNL     1      34.962 -24.025 -12.780  0.00  0.00    +0.068 C 
BRANCH  25  26
ATOM     26  C   UNL     1      36.347 -24.331 -12.192  0.00  0.00    +0.218 C 
BRANCH  26  27
ATOM     27  O   UNL     1      36.453 -25.735 -11.988  0.00  0.00    -0.342 OA
ATOM     28  C   UNL     1      37.487 -26.299 -12.783  0.00  0.00    +0.175 C 
ENDBRANCH  26  27
BRANCH  26  30
ATOM     29  O   UNL     1      36.090 -24.085  -9.785  0.00  0.00    -0.248 OA
ATOM     30  C   UNL     1      36.531 -23.660 -10.845  0.00  0.00    +0.342 C 
BRANCH  30  31
ATOM     31  O   UNL     1      37.267 -22.523 -10.935  0.00  0.00    -0.479 OA
ATOM     32  H   UNL     1      38.085 -22.457 -10.480  0.00  0.00    +0.295 HD
ENDBRANCH  30  31
ENDBRANCH  26  30
ENDBRANCH  25  26
ENDBRANCH   2  25
TORSDOF 10
ENDMDL
MODEL 2
REMARK VINA RESULT:     -11.3      6.335     12.729
REMARK  Name = 10274777
REMARK  10 active torsions:
REMARK  status: ('A' for Active; 'I' for Inactive)
REMARK    1  A    between atoms: C_2  and  C_25
REMARK    2  A    between atoms: C_5  and  O_10
REMARK    3  A    between atoms: O_10  and  C_11
REMARK    4  A    between atoms: C_11  and  C_12
REMARK    5  A    between atoms: C_12  and  C_15
REMARK    6  A    between atoms: C_17  and  C_19
REMARK    7  A    between atoms: C_25  and  C_26
REMARK    8  A    between atoms: C_26  and  O_27
REMARK    9  A    between atoms: C_26  and  C_30
REMARK   10  A    between atoms: C_30  and  O_31
REMARK                            x       y       z     vdW  Elec       q    Type
REMARK                         _______ _______ _______ _____ _____    ______ ____
ROOT
ATOM      1  S   UNL     1      33.884  -8.894 -23.965  0.00  0.00    -0.087 S 
ATOM      2  C   UNL     1      32.173 -10.542 -22.468  0.00  0.00    -0.013 C 
ATOM      3  C   UNL     1      33.196 -10.378 -23.422  0.00  0.00    +0.029 C 
ATOM      4  C   UNL     1      33.783 -11.475 -24.060  0.00  0.00    +0.040 C 
ATOM      5  C   UNL     1      33.325 -12.771 -23.721  0.00  0.00    +0.139 C 
ATOM      6  C   UNL     1      31.743 -11.833 -22.155  0.00  0.00    -0.001 C 
ATOM      7  C   UNL     1      32.311 -12.937 -22.774  0.00  0.00    +0.037 C 
ATOM      8  C   UNL     1      34.795 -11.056 -24.987  0.00  0.00    +0.010 C 
ATOM      9  C   UNL     1      34.948  -9.690 -25.032  0.00  0.00    +0.036 C 
ENDROOT
BRANCH   5  10
ATOM     10  O   UNL     1      33.862 -13.888 -24.311  0.00  0.00    -0.475 OA
BRANCH  10  11
ATOM     11  C   UNL     1      33.559 -15.137 -23.704  0.00  0.00    +0.213 C 
BRANCH  11  12
ATOM     12  C   UNL     1      34.799 -15.683 -23.003  0.00  0.00    +0.105 C 
BRANCH  12  15
ATOM     13  O   UNL     1      34.603 -19.328 -23.001  0.00  0.00    -0.449 OA
ATOM     14  N   UNL     1      34.764 -17.645 -21.498  0.00  0.00    -0.373 NA
ATOM     15  C   UNL     1      34.730 -17.164 -22.765  0.00  0.00    +0.134 C 
ATOM     16  C   UNL     1      34.635 -18.151 -23.685  0.00  0.00    +0.216 C 
ATOM     17  C   UNL     1      34.685 -18.942 -21.697  0.00  0.00    +0.277 C 
ATOM     18  C   UNL     1      34.561 -18.227 -25.148  0.00  0.00    +0.055 C 
BRANCH  17  19
ATOM     19  C   UNL     1      34.672 -20.012 -20.740  0.00  0.00    +0.066 C 
ATOM     20  C   UNL     1      33.457 -20.533 -20.285  0.00  0.00    +0.006 C 
ATOM     21  C   UNL     1      35.873 -20.539 -20.257  0.00  0.00    +0.006 C 
ATOM     22  C   UNL     1      33.443 -21.572 -19.355  0.00  0.00    +0.000 C 
ATOM     23  C   UNL     1      35.859 -21.579 -19.327  0.00  0.00    +0.000 C 
ATOM     24  C   UNL     1      34.645 -22.095 -18.876  0.00  0.00    +0.000 C 
ENDBRANCH  17  19
ENDBRANCH  12  15
ENDBRANCH  11  12
ENDBRANCH  10  11
ENDBRANCH   5  10
BRANCH   2  25
ATOM     25  C   UNL     1      31.527  -9.388 -21.768  0.00  0.00    +0.068 C 
BRANCH  25  26
ATOM     26  C   UNL     1      32.295  -8.959 -20.510  0.00  0.00    +0.218 C 
BRANCH  26  27
ATOM     27  O   UNL     1      31.471  -9.192 -19.374  0.00  0.00    -0.342 OA
ATOM     28  C   UNL     1      31.715 -10.471 -18.807  0.00  0.00    +0.175 C 
ENDBRANCH  26  27
BRANCH  26  30
ATOM     29  O   UNL     1      32.285  -6.709 -21.435  0.00  0.00    -0.248 OA
ATOM     30  C   UNL     1      32.617  -7.478 -20.543  0.00  0.00    +0.342 C 
BRANCH  30  31
ATOM     31  O   UNL     1      33.313  -7.081 -19.446  0.00  0.00    -0.479 OA
ATOM     32  H   UNL     1      33.025  -6.337 -18.953  0.00  0.00    +0.295 HD
ENDBRANCH  30  31
ENDBRANCH  26  30
ENDBRANCH  25  26
ENDBRANCH   2  25
TORSDOF 10
ENDMDL
MODEL 3
REMARK VINA RESULT:     -11.1      6.679     13.872
REMARK  Name = 10274777
REMARK  10 active torsions:
REMARK  status: ('A' for Active; 'I' for Inactive)
REMARK    1  A    between atoms: C_2  and  C_25
REMARK    2  A    between atoms: C_5  and  O_10
REMARK    3  A    between atoms: O_10  and  C_11
REMARK    4  A    between atoms: C_11  and  C_12
REMARK    5  A    between atoms: C_12  and  C_15
REMARK    6  A    between atoms: C_17  and  C_19
REMARK    7  A    between atoms: C_25  and  C_26
REMARK    8  A    between atoms: C_26  and  O_27
REMARK    9  A    between atoms: C_26  and  C_30
REMARK   10  A    between atoms: C_30  and  O_31
REMARK                            x       y       z     vdW  Elec       q    Type
REMARK                         _______ _______ _______ _____ _____    ______ ____
ROOT
ATOM      1  S   UNL     1      34.505  -9.079 -24.394  0.00  0.00    -0.087 S 
ATOM      2  C   UNL     1      32.519  -9.292 -22.421  0.00  0.00    -0.013 C 
ATOM      3  C   UNL     1      33.354  -9.880 -23.390  0.00  0.00    +0.029 C 
ATOM      4  C   UNL     1      33.325 -11.254 -23.646  0.00  0.00    +0.040 C 
ATOM      5  C   UNL     1      32.427 -12.054 -22.899  0.00  0.00    +0.139 C 
ATOM      6  C   UNL     1      31.644 -10.109 -21.701  0.00  0.00    -0.001 C 
ATOM      7  C   UNL     1      31.596 -11.475 -21.936  0.00  0.00    +0.037 C 
ATOM      8  C   UNL     1      34.262 -11.611 -24.672  0.00  0.00    +0.010 C 
ATOM      9  C   UNL     1      34.961 -10.532 -25.159  0.00  0.00    +0.036 C 
ENDROOT
BRANCH   5  10
ATOM     10  O   UNL     1      32.351 -13.409 -23.103  0.00  0.00    -0.475 OA
BRANCH  10  11
ATOM     11  C   UNL     1      32.910 -14.238 -22.092  0.00  0.00    +0.213 C 
BRANCH  11  12
ATOM     12  C   UNL     1      34.298 -14.707 -22.519  0.00  0.00    +0.105 C 
BRANCH  12  15
ATOM     13  O   UNL     1      34.690 -18.290 -23.099  0.00  0.00    -0.449 OA
ATOM     14  N   UNL     1      34.355 -16.887 -21.356  0.00  0.00    -0.373 NA
ATOM     15  C   UNL     1      34.432 -16.203 -22.522  0.00  0.00    +0.134 C 
ATOM     16  C   UNL     1      34.633 -17.018 -23.583  0.00  0.00    +0.216 C 
ATOM     17  C   UNL     1      34.515 -18.129 -21.758  0.00  0.00    +0.277 C 
ATOM     18  C   UNL     1      34.790 -16.847 -25.031  0.00  0.00    +0.055 C 
BRANCH  17  19
ATOM     19  C   UNL     1      34.532 -19.342 -20.989  0.00  0.00    +0.066 C 
ATOM     20  C   UNL     1      35.750 -19.917 -20.613  0.00  0.00    +0.006 C 
ATOM     21  C   UNL     1      33.334 -19.954 -20.613  0.00  0.00    +0.006 C 
ATOM     22  C   UNL     1      35.768 -21.095 -19.866  0.00  0.00    +0.000 C 
ATOM     23  C   UNL     1      33.352 -21.133 -19.866  0.00  0.00    +0.000 C 
ATOM     24  C   UNL     1      34.569 -21.703 -19.493  0.00  0.00    +0.000 C 
ENDBRANCH  17  19
ENDBRANCH  12  15
ENDBRANCH  11  12
ENDBRANCH  10  11
ENDBRANCH   5  10
BRANCH   2  25
ATOM     25  C   UNL     1      32.529  -7.826 -22.125  0.00  0.00    +0.068 C 
BRANCH  25  26
ATOM     26  C   UNL     1      31.245  -7.124 -22.588  0.00  0.00    +0.218 C 
BRANCH  26  27
ATOM     27  O   UNL     1      31.354  -6.850 -23.980  0.00  0.00    -0.342 OA
ATOM     28  C   UNL     1      32.458  -5.999 -24.257  0.00  0.00    +0.175 C 
ENDBRANCH  26  27
BRANCH  26  30
ATOM     29  O   UNL     1      30.139  -5.016 -22.086  0.00  0.00    -0.248 OA
ATOM     30  C   UNL     1      31.056  -5.799 -21.876  0.00  0.00    +0.342 C 
BRANCH  30  31
ATOM     31  O   UNL     1      32.022  -5.575 -20.948  0.00  0.00    -0.479 OA
ATOM     32  H   UNL     1      32.014  -4.782 -20.447  0.00  0.00    +0.295 HD
ENDBRANCH  30  31
ENDBRANCH  26  30
ENDBRANCH  25  26
ENDBRANCH   2  25
TORSDOF 10
ENDMDL
MODEL 4
REMARK VINA RESULT:     -11.0      6.580     13.642
REMARK  Name = 10274777
REMARK  10 active torsions:
REMARK  status: ('A' for Active; 'I' for Inactive)
REMARK    1  A    between atoms: C_2  and  C_25
REMARK    2  A    between atoms: C_5  and  O_10
REMARK    3  A    between atoms: O_10  and  C_11
REMARK    4  A    between atoms: C_11  and  C_12
REMARK    5  A    between atoms: C_12  and  C_15
REMARK    6  A    between atoms: C_17  and  C_19
REMARK    7  A    between atoms: C_25  and  C_26
REMARK    8  A    between atoms: C_26  and  O_27
REMARK    9  A    between atoms: C_26  and  C_30
REMARK   10  A    between atoms: C_30  and  O_31
REMARK                            x       y       z     vdW  Elec       q    Type
REMARK                         _______ _______ _______ _____ _____    ______ ____
ROOT
ATOM      1  S   UNL     1      31.633  -9.218 -19.792  0.00  0.00    -0.087 S 
ATOM      2  C   UNL     1      32.520  -9.215 -22.456  0.00  0.00    -0.013 C 
ATOM      3  C   UNL     1      32.097  -9.905 -21.304  0.00  0.00    +0.029 C 
ATOM      4  C   UNL     1      32.008 -11.299 -21.277  0.00  0.00    +0.040 C 
ATOM      5  C   UNL     1      32.356 -12.014 -22.448  0.00  0.00    +0.139 C 
ATOM      6  C   UNL     1      32.857  -9.949 -23.595  0.00  0.00    -0.001 C 
ATOM      7  C   UNL     1      32.777 -11.334 -23.594  0.00  0.00    +0.037 C 
ATOM      8  C   UNL     1      31.556 -11.767 -19.997  0.00  0.00    +0.010 C 
ATOM      9  C   UNL     1      31.318 -10.746 -19.108  0.00  0.00    +0.036 C 
ENDROOT
BRANCH   5  10
ATOM     10  O   UNL     1      32.290 -13.385 -22.486  0.00  0.00    -0.475 OA
BRANCH  10  11
ATOM     11  C   UNL     1      33.157 -14.040 -23.403  0.00  0.00    +0.213 C 
BRANCH  11  12
ATOM     12  C   UNL     1      34.389 -14.558 -22.666  0.00  0.00    +0.105 C 
BRANCH  12  15
ATOM     13  O   UNL     1      34.643 -18.158 -23.215  0.00  0.00    -0.449 OA
ATOM     14  N   UNL     1      34.415 -16.726 -21.479  0.00  0.00    -0.373 NA
ATOM     15  C   UNL     1      34.474 -16.057 -22.656  0.00  0.00    +0.134 C 
ATOM     16  C   UNL     1      34.612 -16.890 -23.713  0.00  0.00    +0.216 C 
ATOM     17  C   UNL     1      34.520 -17.976 -21.871  0.00  0.00    +0.277 C 
ATOM     18  C   UNL     1      34.724 -16.741 -25.167  0.00  0.00    +0.055 C 
BRANCH  17  19
ATOM     19  C   UNL     1      34.524 -19.181 -21.088  0.00  0.00    +0.066 C 
ATOM     20  C   UNL     1      35.735 -19.765 -20.704  0.00  0.00    +0.006 C 
ATOM     21  C   UNL     1      33.319 -19.777 -20.708  0.00  0.00    +0.006 C 
ATOM     22  C   UNL     1      35.740 -20.934 -19.944  0.00  0.00    +0.000 C 
ATOM     23  C   UNL     1      33.324 -20.947 -19.948  0.00  0.00    +0.000 C 
ATOM     24  C   UNL     1      34.534 -21.526 -19.566  0.00  0.00    +0.000 C 
ENDBRANCH  17  19
ENDBRANCH  12  15
ENDBRANCH  11  12
ENDBRANCH  10  11
ENDBRANCH   5  10
BRANCH   2  25
ATOM     25  C   UNL     1      32.623  -7.724 -22.515  0.00  0.00    +0.068 C 
BRANCH  25  26
ATOM     26  C   UNL     1      31.282  -7.055 -22.847  0.00  0.00    +0.218 C 
BRANCH  26  27
ATOM     27  O   UNL     1      31.319  -6.613 -24.200  0.00  0.00    -0.342 OA
ATOM     28  C   UNL     1      32.549  -5.971 -24.505  0.00  0.00    +0.175 C 
ENDBRANCH  26  27
BRANCH  26  30
ATOM     29  O   UNL     1      30.115  -5.053 -22.108  0.00  0.00    -0.248 OA
ATOM     30  C   UNL     1      31.046  -5.837 -21.977  0.00  0.00    +0.342 C 
BRANCH  30  31
ATOM     31  O   UNL     1      31.985  -5.713 -21.003  0.00  0.00    -0.479 OA
ATOM     32  H   UNL     1      32.315  -4.865 -20.776  0.00  0.00    +0.295 HD
ENDBRANCH  30  31
ENDBRANCH  26  30
ENDBRANCH  25  26
ENDBRANCH   2  25
TORSDOF 10
ENDMDL
MODEL 5
REMARK VINA RESULT:     -11.0      1.084      1.802
REMARK  Name = 10274777
REMARK  10 active torsions:
REMARK  status: ('A' for Active; 'I' for Inactive)
REMARK    1  A    between atoms: C_2  and  C_25
REMARK    2  A    between atoms: C_5  and  O_10
REMARK    3  A    between atoms: O_10  and  C_11
REMARK    4  A    between atoms: C_11  and  C_12
REMARK    5  A    between atoms: C_12  and  C_15
REMARK    6  A    between atoms: C_17  and  C_19
REMARK    7  A    between atoms: C_25  and  C_26
REMARK    8  A    between atoms: C_26  and  O_27
REMARK    9  A    between atoms: C_26  and  C_30
REMARK   10  A    between atoms: C_30  and  O_31
REMARK                            x       y       z     vdW  Elec       q    Type
REMARK                         _______ _______ _______ _____ _____    ______ ____
ROOT
ATOM      1  S   UNL     1      31.359 -24.321 -13.360  0.00  0.00    -0.087 S 
ATOM      2  C   UNL     1      34.075 -23.905 -13.939  0.00  0.00    -0.013 C 
ATOM      3  C   UNL     1      32.724 -23.921 -14.335  0.00  0.00    +0.029 C 
ATOM      4  C   UNL     1      32.339 -23.594 -15.638  0.00  0.00    +0.040 C 
ATOM      5  C   UNL     1      33.349 -23.240 -16.565  0.00  0.00    +0.139 C 
ATOM      6  C   UNL     1      35.048 -23.552 -14.877  0.00  0.00    -0.001 C 
ATOM      7  C   UNL     1      34.691 -23.223 -16.177  0.00  0.00    +0.037 C 
ATOM      8  C   UNL     1      30.915 -23.683 -15.798  0.00  0.00    +0.010 C 
ATOM      9  C   UNL     1      30.270 -24.065 -14.646  0.00  0.00    +0.036 C 
ENDROOT
BRANCH   5  10
ATOM     10  O   UNL     1      33.036 -22.909 -17.860  0.00  0.00    -0.475 OA
BRANCH  10  11
ATOM     11  C   UNL     1      34.058 -22.279 -18.621  0.00  0.00    +0.213 C 
BRANCH  11  12
ATOM     12  C   UNL     1      33.447 -21.609 -19.849  0.00  0.00    +0.105 C 
BRANCH  12  15
ATOM     13  O   UNL     1      35.831 -19.030 -20.844  0.00  0.00    -0.449 OA
ATOM     14  N   UNL     1      33.589 -19.330 -20.797  0.00  0.00    -0.373 NA
ATOM     15  C   UNL     1      34.236 -20.421 -20.318  0.00  0.00    +0.134 C 
ATOM     16  C   UNL     1      35.580 -20.268 -20.335  0.00  0.00    +0.216 C 
ATOM     17  C   UNL     1      34.589 -18.531 -21.096  0.00  0.00    +0.277 C 
ATOM     18  C   UNL     1      36.740 -21.081 -19.954  0.00  0.00    +0.055 C 
BRANCH  17  19
ATOM     19  C   UNL     1      34.562 -17.206 -21.651  0.00  0.00    +0.066 C 
ATOM     20  C   UNL     1      34.289 -16.107 -20.832  0.00  0.00    +0.006 C 
ATOM     21  C   UNL     1      34.809 -17.008 -23.012  0.00  0.00    +0.006 C 
ATOM     22  C   UNL     1      34.263 -14.820 -21.369  0.00  0.00    +0.000 C 
ATOM     23  C   UNL     1      34.783 -15.721 -23.550  0.00  0.00    +0.000 C 
ATOM     24  C   UNL     1      34.510 -14.627 -22.729  0.00  0.00    +0.000 C 
ENDBRANCH  17  19
ENDBRANCH  12  15
ENDBRANCH  11  12
ENDBRANCH  10  11
ENDBRANCH   5  10
BRANCH   2  25
ATOM     25  C   UNL     1      34.516 -24.249 -12.552  0.00  0.00    +0.068 C 
BRANCH  25  26
ATOM     26  C   UNL     1      36.043 -24.340 -12.426  0.00  0.00    +0.218 C 
BRANCH  26  27
ATOM     27  O   UNL     1      36.407 -25.709 -12.293  0.00  0.00    -0.342 OA
ATOM     28  C   UNL     1      37.240 -26.133 -13.362  0.00  0.00    +0.175 C 
ENDBRANCH  26  27
BRANCH  26  30
ATOM     29  O   UNL     1      36.368 -23.998 -10.040  0.00  0.00    -0.248 OA
ATOM     30  C   UNL     1      36.536 -23.615 -11.190  0.00  0.00    +0.342 C 
BRANCH  30  31
ATOM     31  O   UNL     1      37.215 -22.480 -11.499  0.00  0.00    -0.479 OA
ATOM     32  H   UNL     1      37.007 -22.008 -12.282  0.00  0.00    +0.295 HD
ENDBRANCH  30  31
ENDBRANCH  26  30
ENDBRANCH  25  26
ENDBRANCH   2  25
TORSDOF 10
ENDMDL
MODEL 6
REMARK VINA RESULT:     -10.8      2.925      4.544
REMARK  Name = 10274777
REMARK  10 active torsions:
REMARK  status: ('A' for Active; 'I' for Inactive)
REMARK    1  A    between atoms: C_2  and  C_25
REMARK    2  A    between atoms: C_5  and  O_10
REMARK    3  A    between atoms: O_10  and  C_11
REMARK    4  A    between atoms: C_11  and  C_12
REMARK    5  A    between atoms: C_12  and  C_15
REMARK    6  A    between atoms: C_17  and  C_19
REMARK    7  A    between atoms: C_25  and  C_26
REMARK    8  A    between atoms: C_26  and  O_27
REMARK    9  A    between atoms: C_26  and  C_30
REMARK   10  A    between atoms: C_30  and  O_31
REMARK                            x       y       z     vdW  Elec       q    Type
REMARK                         _______ _______ _______ _____ _____    ______ ____
ROOT
ATOM      1  S   UNL     1      35.808 -23.172 -15.164  0.00  0.00    -0.087 S 
ATOM      2  C   UNL     1      33.698 -23.045 -17.013  0.00  0.00    -0.013 C 
ATOM      3  C   UNL     1      35.032 -22.776 -16.652  0.00  0.00    +0.029 C 
ATOM      4  C   UNL     1      35.907 -22.121 -17.523  0.00  0.00    +0.040 C 
ATOM      5  C   UNL     1      35.418 -21.728 -18.793  0.00  0.00    +0.139 C 
ATOM      6  C   UNL     1      33.246 -22.645 -18.272  0.00  0.00    -0.001 C 
ATOM      7  C   UNL     1      34.095 -21.993 -19.154  0.00  0.00    +0.037 C 
ATOM      8  C   UNL     1      37.206 -21.962 -16.933  0.00  0.00    +0.010 C 
ATOM      9  C   UNL     1      37.285 -22.485 -15.664  0.00  0.00    +0.036 C 
ENDROOT
BRANCH   5  10
ATOM     10  O   UNL     1      36.228 -21.081 -19.693  0.00  0.00    -0.475 OA
BRANCH  10  11
ATOM     11  C   UNL     1      35.579 -20.380 -20.745  0.00  0.00    +0.213 C 
BRANCH  11  12
ATOM     12  C   UNL     1      36.267 -19.037 -20.972  0.00  0.00    +0.105 C 
BRANCH  12  15
ATOM     13  O   UNL     1      34.193 -16.977 -23.158  0.00  0.00    -0.449 OA
ATOM     14  N   UNL     1      34.941 -16.952 -21.023  0.00  0.00    -0.373 NA
ATOM     15  C   UNL     1      35.392 -18.046 -21.683  0.00  0.00    +0.134 C 
ATOM     16  C   UNL     1      34.959 -18.087 -22.964  0.00  0.00    +0.216 C 
ATOM     17  C   UNL     1      34.231 -16.349 -21.950  0.00  0.00    +0.277 C 
ATOM     18  C   UNL     1      35.121 -18.994 -24.105  0.00  0.00    +0.055 C 
BRANCH  17  19
ATOM     19  C   UNL     1      33.488 -15.122 -21.876  0.00  0.00    +0.066 C 
ATOM     20  C   UNL     1      33.045 -14.642 -20.640  0.00  0.00    +0.006 C 
ATOM     21  C   UNL     1      33.201 -14.401 -23.039  0.00  0.00    +0.006 C 
ATOM     22  C   UNL     1      32.323 -13.451 -20.566  0.00  0.00    +0.000 C 
ATOM     23  C   UNL     1      32.479 -13.209 -22.965  0.00  0.00    +0.000 C 
ATOM     24  C   UNL     1      32.040 -12.735 -21.730  0.00  0.00    +0.000 C 
ENDBRANCH  17  19
ENDBRANCH  12  15
ENDBRANCH  11  12
ENDBRANCH  10  11
ENDBRANCH   5  10
BRANCH   2  25
ATOM     25  C   UNL     1      32.739 -23.746 -16.103  0.00  0.00    +0.068 C 
BRANCH  25  26
ATOM     26  C   UNL     1      31.574 -22.845 -15.670  0.00  0.00    +0.218 C 
BRANCH  26  27
ATOM     27  O   UNL     1      31.461 -22.900 -14.253  0.00  0.00    -0.342 OA
ATOM     28  C   UNL     1      32.319 -23.888 -13.700  0.00  0.00    +0.175 C 
ENDBRANCH  26  27
BRANCH  26  30
ATOM     29  O   UNL     1      29.732 -24.401 -15.989  0.00  0.00    -0.248 OA
ATOM     30  C   UNL     1      30.261 -23.328 -16.251  0.00  0.00    +0.342 C 
BRANCH  30  31
ATOM     31  O   UNL     1      29.711 -22.421 -17.099  0.00  0.00    -0.479 OA
ATOM     32  H   UNL     1      29.560 -21.541 -16.810  0.00  0.00    +0.295 HD
ENDBRANCH  30  31
ENDBRANCH  26  30
ENDBRANCH  25  26
ENDBRANCH   2  25
TORSDOF 10
ENDMDL
MODEL 7
REMARK VINA RESULT:     -10.8      4.159     10.623
REMARK  Name = 10274777
REMARK  10 active torsions:
REMARK  status: ('A' for Active; 'I' for Inactive)
REMARK    1  A    between atoms: C_2  and  C_25
REMARK    2  A    between atoms: C_5  and  O_10
REMARK    3  A    between atoms: O_10  and  C_11
REMARK    4  A    between atoms: C_11  and  C_12
REMARK    5  A    between atoms: C_12  and  C_15
REMARK    6  A    between atoms: C_17  and  C_19
REMARK    7  A    between atoms: C_25  and  C_26
REMARK    8  A    between atoms: C_26  and  O_27
REMARK    9  A    between atoms: C_26  and  C_30
REMARK   10  A    between atoms: C_30  and  O_31
REMARK                            x       y       z     vdW  Elec       q    Type
REMARK                         _______ _______ _______ _____ _____    ______ ____
ROOT
ATOM      1  S   UNL     1      34.272 -16.596 -25.073  0.00  0.00    -0.087 S 
ATOM      2  C   UNL     1      34.645 -15.935 -22.370  0.00  0.00    -0.013 C 
ATOM      3  C   UNL     1      34.640 -16.880 -23.413  0.00  0.00    +0.029 C 
ATOM      4  C   UNL     1      34.952 -18.224 -23.184  0.00  0.00    +0.040 C 
ATOM      5  C   UNL     1      35.279 -18.619 -21.865  0.00  0.00    +0.139 C 
ATOM      6  C   UNL     1      34.971 -16.356 -21.079  0.00  0.00    -0.001 C 
ATOM      7  C   UNL     1      35.285 -17.684 -20.827  0.00  0.00    +0.037 C 
ATOM      8  C   UNL     1      34.878 -18.988 -24.397  0.00  0.00    +0.010 C 
ATOM      9  C   UNL     1      34.522 -18.230 -25.487  0.00  0.00    +0.036 C 
ENDROOT
BRANCH   5  10
ATOM     10  O   UNL     1      35.595 -19.924 -21.576  0.00  0.00    -0.475 OA
BRANCH  10  11
ATOM     11  C   UNL     1      36.077 -20.187 -20.264  0.00  0.00    +0.213 C 
BRANCH  11  12
ATOM     12  C   UNL     1      35.907 -21.669 -19.941  0.00  0.00    +0.105 C 
BRANCH  12  15
ATOM     13  O   UNL     1      32.644 -22.046 -18.350  0.00  0.00    -0.449 OA
ATOM     14  N   UNL     1      34.784 -22.682 -17.986  0.00  0.00    -0.373 NA
ATOM     15  C   UNL     1      34.681 -21.949 -19.121  0.00  0.00    +0.134 C 
ATOM     16  C   UNL     1      33.410 -21.555 -19.364  0.00  0.00    +0.216 C 
ATOM     17  C   UNL     1      33.539 -22.709 -17.566  0.00  0.00    +0.277 C 
ATOM     18  C   UNL     1      32.726 -20.773 -20.399  0.00  0.00    +0.055 C 
BRANCH  17  19
ATOM     19  C   UNL     1      32.983 -23.336 -16.399  0.00  0.00    +0.066 C 
ATOM     20  C   UNL     1      33.821 -23.761 -15.363  0.00  0.00    +0.006 C 
ATOM     21  C   UNL     1      31.603 -23.526 -16.292  0.00  0.00    +0.006 C 
ATOM     22  C   UNL     1      33.283 -24.370 -14.230  0.00  0.00    +0.000 C 
ATOM     23  C   UNL     1      31.064 -24.135 -15.158  0.00  0.00    +0.000 C 
ATOM     24  C   UNL     1      31.904 -24.558 -14.128  0.00  0.00    +0.000 C 
ENDBRANCH  17  19
ENDBRANCH  12  15
ENDBRANCH  11  12
ENDBRANCH  10  11
ENDBRANCH   5  10
BRANCH   2  25
ATOM     25  C   UNL     1      34.317 -14.491 -22.584  0.00  0.00    +0.068 C 
BRANCH  25  26
ATOM     26  C   UNL     1      32.807 -14.243 -22.705  0.00  0.00    +0.218 C 
BRANCH  26  27
ATOM     27  O   UNL     1      32.565 -13.481 -23.882  0.00  0.00    -0.342 OA
ATOM     28  C   UNL     1      33.747 -12.838 -24.338  0.00  0.00    +0.175 C 
ENDBRANCH  26  27
BRANCH  26  30
ATOM     29  O   UNL     1      32.598 -13.632 -20.360  0.00  0.00    -0.248 OA
ATOM     30  C   UNL     1      32.286 -13.443 -21.529  0.00  0.00    +0.342 C 
BRANCH  30  31
ATOM     31  O   UNL     1      31.432 -12.460 -21.915  0.00  0.00    -0.479 OA
ATOM     32  H   UNL     1      30.546 -12.671 -22.138  0.00  0.00    +0.295 HD
ENDBRANCH  30  31
ENDBRANCH  26  30
ENDBRANCH  25  26
ENDBRANCH   2  25
TORSDOF 10
ENDMDL
MODEL 8
REMARK VINA RESULT:     -10.7      5.452      9.637
REMARK  Name = 10274777
REMARK  10 active torsions:
REMARK  status: ('A' for Active; 'I' for Inactive)
REMARK    1  A    between atoms: C_2  and  C_25
REMARK    2  A    between atoms: C_5  and  O_10
REMARK    3  A    between atoms: O_10  and  C_11
REMARK    4  A    between atoms: C_11  and  C_12
REMARK    5  A    between atoms: C_12  and  C_15
REMARK    6  A    between atoms: C_17  and  C_19
REMARK    7  A    between atoms: C_25  and  C_26
REMARK    8  A    between atoms: C_26  and  O_27
REMARK    9  A    between atoms: C_26  and  C_30
REMARK   10  A    between atoms: C_30  and  O_31
REMARK                            x       y       z     vdW  Elec       q    Type
REMARK                         _______ _______ _______ _____ _____    ______ ____
ROOT
ATOM      1  S   UNL     1      34.570 -18.603 -24.694  0.00  0.00    -0.087 S 
ATOM      2  C   UNL     1      34.925 -18.416 -21.915  0.00  0.00    -0.013 C 
ATOM      3  C   UNL     1      34.688 -17.814 -23.166  0.00  0.00    +0.029 C 
ATOM      4  C   UNL     1      34.515 -16.433 -23.292  0.00  0.00    +0.040 C 
ATOM      5  C   UNL     1      34.584 -15.640 -22.121  0.00  0.00    +0.139 C 
ATOM      6  C   UNL     1      34.987 -17.607 -20.779  0.00  0.00    -0.001 C 
ATOM      7  C   UNL     1      34.819 -16.233 -20.878  0.00  0.00    +0.037 C 
ATOM      8  C   UNL     1      34.289 -16.060 -24.660  0.00  0.00    +0.010 C 
ATOM      9  C   UNL     1      34.294 -17.136 -25.516  0.00  0.00    +0.036 C 
ENDROOT
BRANCH   5  10
ATOM     10  O   UNL     1      34.423 -14.278 -22.179  0.00  0.00    -0.475 OA
BRANCH  10  11
ATOM     11  C   UNL     1      33.176 -13.764 -21.730  0.00  0.00    +0.213 C 
BRANCH  11  12
ATOM     12  C   UNL     1      32.387 -13.219 -22.916  0.00  0.00    +0.105 C 
BRANCH  12  15
ATOM     13  O   UNL     1      33.191  -9.775 -23.820  0.00  0.00    -0.449 OA
ATOM     14  N   UNL     1      31.919 -10.870 -22.304  0.00  0.00    -0.373 NA
ATOM     15  C   UNL     1      32.572 -11.741 -23.110  0.00  0.00    +0.134 C 
ATOM     16  C   UNL     1      33.341 -11.113 -24.028  0.00  0.00    +0.216 C 
ATOM     17  C   UNL     1      32.324  -9.710 -22.772  0.00  0.00    +0.277 C 
ATOM     18  C   UNL     1      34.236 -11.523 -25.115  0.00  0.00    +0.055 C 
BRANCH  17  19
ATOM     19  C   UNL     1      31.987  -8.383 -22.338  0.00  0.00    +0.066 C 
ATOM     20  C   UNL     1      31.211  -7.554 -23.153  0.00  0.00    +0.006 C 
ATOM     21  C   UNL     1      32.433  -7.913 -21.100  0.00  0.00    +0.006 C 
ATOM     22  C   UNL     1      30.883  -6.265 -22.734  0.00  0.00    +0.000 C 
ATOM     23  C   UNL     1      32.105  -6.623 -20.680  0.00  0.00    +0.000 C 
ATOM     24  C   UNL     1      31.330  -5.799 -21.497  0.00  0.00    +0.000 C 
ENDBRANCH  17  19
ENDBRANCH  12  15
ENDBRANCH  11  12
ENDBRANCH  10  11
ENDBRANCH   5  10
BRANCH   2  25
ATOM     25  C   UNL     1      35.111 -19.891 -21.749  0.00  0.00    +0.068 C 
BRANCH  25  26
ATOM     26  C   UNL     1      34.739 -20.375 -20.341  0.00  0.00    +0.218 C 
BRANCH  26  27
ATOM     27  O   UNL     1      35.508 -21.535 -20.042  0.00  0.00    -0.342 OA
ATOM     28  C   UNL     1      36.452 -21.283 -19.011  0.00  0.00    +0.175 C 
ENDBRANCH  26  27
BRANCH  26  30
ATOM     29  O   UNL     1      32.345 -20.065 -20.636  0.00  0.00    -0.248 OA
ATOM     30  C   UNL     1      33.277 -20.766 -20.264  0.00  0.00    +0.342 C 
BRANCH  30  31
ATOM     31  O   UNL     1      33.105 -22.009 -19.744  0.00  0.00    -0.479 OA
ATOM     32  H   UNL     1      33.367 -22.763 -20.236  0.00  0.00    +0.295 HD
ENDBRANCH  30  31
ENDBRANCH  26  30
ENDBRANCH  25  26
ENDBRANCH   2  25
TORSDOF 10
ENDMDL
MODEL 9
REMARK VINA RESULT:     -10.6      2.729      9.598
REMARK  Name = 10274777
REMARK  10 active torsions:
REMARK  status: ('A' for Active; 'I' for Inactive)
REMARK    1  A    between atoms: C_2  and  C_25
REMARK    2  A    between atoms: C_5  and  O_10
REMARK    3  A    between atoms: O_10  and  C_11
REMARK    4  A    between atoms: C_11  and  C_12
REMARK    5  A    between atoms: C_12  and  C_15
REMARK    6  A    between atoms: C_17  and  C_19
REMARK    7  A    between atoms: C_25  and  C_26
REMARK    8  A    between atoms: C_26  and  O_27
REMARK    9  A    between atoms: C_26  and  C_30
REMARK   10  A    between atoms: C_30  and  O_31
REMARK                            x       y       z     vdW  Elec       q    Type
REMARK                         _______ _______ _______ _____ _____    ______ ____
ROOT
ATOM      1  S   UNL     1      32.607 -20.133 -20.712  0.00  0.00    -0.087 S 
ATOM      2  C   UNL     1      35.067 -18.933 -21.340  0.00  0.00    -0.013 C 
ATOM      3  C   UNL     1      34.315 -19.902 -20.648  0.00  0.00    +0.029 C 
ATOM      4  C   UNL     1      34.921 -20.824 -19.791  0.00  0.00    +0.040 C 
ATOM      5  C   UNL     1      36.327 -20.764 -19.631  0.00  0.00    +0.139 C 
ATOM      6  C   UNL     1      36.452 -18.900 -21.161  0.00  0.00    -0.001 C 
ATOM      7  C   UNL     1      37.077 -19.805 -20.315  0.00  0.00    +0.037 C 
ATOM      8  C   UNL     1      33.951 -21.705 -19.204  0.00  0.00    +0.010 C 
ATOM      9  C   UNL     1      32.667 -21.438 -19.618  0.00  0.00    +0.036 C 
ENDROOT
BRANCH   5  10
ATOM     10  O   UNL     1      36.982 -21.642 -18.803  0.00  0.00    -0.475 OA
BRANCH  10  11
ATOM     11  C   UNL     1      37.072 -21.279 -17.431  0.00  0.00    +0.213 C 
BRANCH  11  12
ATOM     12  C   UNL     1      37.431 -22.505 -16.597  0.00  0.00    +0.105 C 
BRANCH  12  15
ATOM     13  O   UNL     1      34.896 -24.444 -14.825  0.00  0.00    -0.449 OA
ATOM     14  N   UNL     1      35.003 -22.608 -16.142  0.00  0.00    -0.373 NA
ATOM     15  C   UNL     1      36.233 -23.145 -15.956  0.00  0.00    +0.134 C 
ATOM     16  C   UNL     1      36.199 -24.246 -15.170  0.00  0.00    +0.216 C 
ATOM     17  C   UNL     1      34.242 -23.423 -15.445  0.00  0.00    +0.277 C 
ATOM     18  C   UNL     1      37.181 -25.202 -14.648  0.00  0.00    +0.055 C 
BRANCH  17  19
ATOM     19  C   UNL     1      32.821 -23.394 -15.243  0.00  0.00    +0.066 C 
ATOM     20  C   UNL     1      31.960 -23.215 -16.330  0.00  0.00    +0.006 C 
ATOM     21  C   UNL     1      32.290 -23.543 -13.959  0.00  0.00    +0.006 C 
ATOM     22  C   UNL     1      30.579 -23.186 -16.134  0.00  0.00    +0.000 C 
ATOM     23  C   UNL     1      30.909 -23.515 -13.763  0.00  0.00    +0.000 C 
ATOM     24  C   UNL     1      30.053 -23.336 -14.850  0.00  0.00    +0.000 C 
ENDBRANCH  17  19
ENDBRANCH  12  15
ENDBRANCH  11  12
ENDBRANCH  10  11
ENDBRANCH   5  10
BRANCH   2  25
ATOM     25  C   UNL     1      34.446 -17.935 -22.265  0.00  0.00    +0.068 C 
BRANCH  25  26
ATOM     26  C   UNL     1      35.401 -17.498 -23.385  0.00  0.00    +0.218 C 
BRANCH  26  27
ATOM     27  O   UNL     1      35.587 -16.089 -23.298  0.00  0.00    -0.342 OA
ATOM     28  C   UNL     1      34.556 -15.474 -22.539  0.00  0.00    +0.175 C 
ENDBRANCH  26  27
BRANCH  26  30
ATOM     29  O   UNL     1      34.836 -17.028 -25.703  0.00  0.00    -0.248 OA
ATOM     30  C   UNL     1      34.818 -17.797 -24.751  0.00  0.00    +0.342 C 
BRANCH  30  31
ATOM     31  O   UNL     1      34.278 -19.041 -24.816  0.00  0.00    -0.479 OA
ATOM     32  H   UNL     1      34.703 -19.759 -24.388  0.00  0.00    +0.295 HD
ENDBRANCH  30  31
ENDBRANCH  26  30
ENDBRANCH  25  26
ENDBRANCH   2  25
TORSDOF 10
ENDMDL
