MODEL 1
REMARK VINA RESULT:     -10.8      0.000      0.000
REMARK  Name = 2099
REMARK  2 active torsions:
REMARK  status: ('A' for Active; 'I' for Inactive)
REMARK    1  A    between atoms: N_2  and  C_16
REMARK    2  A    between atoms: C_16  and  C_19
REMARK                            x       y       z     vdW  Elec       q    Type
REMARK                         _______ _______ _______ _____ _____    ______ ____
ROOT
ATOM      1  O   UNL     1      34.909 -16.530 -20.294  0.00  0.00    -0.270 OA
ATOM      2  N   UNL     1      35.280 -17.693 -22.286  0.00  0.00    -0.270 N 
ATOM      3  N   UNL     1      33.367 -14.542 -24.103  0.00  0.00    -0.328 N 
ATOM      4  C   UNL     1      34.085 -15.608 -23.651  0.00  0.00    +0.043 A 
ATOM      5  C   UNL     1      34.783 -16.599 -24.495  0.00  0.00    +0.065 C 
ATOM      6  C   UNL     1      34.071 -15.606 -22.275  0.00  0.00    +0.067 A 
ATOM      7  C   UNL     1      34.887 -17.902 -23.695  0.00  0.00    +0.100 C 
ATOM      8  C   UNL     1      33.312 -14.472 -21.865  0.00  0.00    +0.021 A 
ATOM      9  C   UNL     1      32.881 -13.825 -23.030  0.00  0.00    +0.060 A 
ATOM     10  C   UNL     1      34.773 -16.629 -21.511  0.00  0.00    +0.250 C 
ATOM     11  C   UNL     1      33.132 -14.215 -25.494  0.00  0.00    +0.130 C 
ATOM     12  C   UNL     1      32.943 -13.924 -20.618  0.00  0.00    +0.002 C 
ATOM     13  C   UNL     1      32.102 -12.663 -23.005  0.00  0.00    +0.017 C 
ATOM     14  C   UNL     1      32.163 -12.762 -20.580  0.00  0.00    +0.000 C 
ATOM     15  C   UNL     1      31.751 -12.143 -21.757  0.00  0.00    +0.001 C 
ENDROOT
BRANCH   2  16
ATOM     16  C   UNL     1      36.000 -18.781 -21.641  0.00  0.00    +0.136 C 
BRANCH  16  19
ATOM     17  N   UNL     1      33.732 -19.553 -21.049  0.00  0.00    -0.318 N 
ATOM     18  N   UNL     1      34.208 -21.244 -19.690  0.00  0.00    -0.319 N 
ATOM     19  C   UNL     1      35.071 -19.711 -20.907  0.00  0.00    +0.052 C 
ATOM     20  C   UNL     1      35.411 -20.733 -20.087  0.00  0.00    +0.034 C 
ATOM     21  C   UNL     1      36.695 -21.287 -19.630  0.00  0.00    +0.048 C 
ATOM     22  C   UNL     1      33.229 -20.503 -20.293  0.00  0.00    +0.181 C 
ATOM     23  H   UNL     1      33.251 -18.885 -21.588  0.00  0.00    +0.148 HD
ATOM     24  H   UNL     1      34.070 -22.007 -19.083  0.00  0.00    +0.148 HD
ENDBRANCH  16  19
ENDBRANCH   2  16
TORSDOF 2
ENDMDL
MODEL 2
REMARK VINA RESULT:     -10.3      4.332      9.148
REMARK  Name = 2099
REMARK  2 active torsions:
REMARK  status: ('A' for Active; 'I' for Inactive)
REMARK    1  A    between atoms: N_2  and  C_16
REMARK    2  A    between atoms: C_16  and  C_19
REMARK                            x       y       z     vdW  Elec       q    Type
REMARK                         _______ _______ _______ _____ _____    ______ ____
ROOT
ATOM      1  O   UNL     1      33.251 -22.752 -19.183  0.00  0.00    -0.270 OA
ATOM      2  N   UNL     1      35.462 -22.035 -18.943  0.00  0.00    -0.270 N 
ATOM      3  N   UNL     1      35.061 -23.165 -15.012  0.00  0.00    -0.328 N 
ATOM      4  C   UNL     1      35.363 -22.823 -16.297  0.00  0.00    +0.043 A 
ATOM      5  C   UNL     1      36.708 -22.484 -16.806  0.00  0.00    +0.065 C 
ATOM      6  C   UNL     1      34.213 -22.859 -17.052  0.00  0.00    +0.067 A 
ATOM      7  C   UNL     1      36.528 -21.578 -18.029  0.00  0.00    +0.100 C 
ATOM      8  C   UNL     1      33.154 -23.255 -16.184  0.00  0.00    +0.021 A 
ATOM      9  C   UNL     1      33.713 -23.437 -14.913  0.00  0.00    +0.060 A 
ATOM     10  C   UNL     1      34.234 -22.550 -18.475  0.00  0.00    +0.250 C 
ATOM     11  C   UNL     1      36.002 -23.220 -13.913  0.00  0.00    +0.130 C 
ATOM     12  C   UNL     1      31.770 -23.478 -16.347  0.00  0.00    +0.002 C 
ATOM     13  C   UNL     1      32.956 -23.828 -13.804  0.00  0.00    +0.017 C 
ATOM     14  C   UNL     1      31.002 -23.870 -15.245  0.00  0.00    +0.000 C 
ATOM     15  C   UNL     1      31.588 -24.042 -13.993  0.00  0.00    +0.001 C 
ENDROOT
BRANCH   2  16
ATOM     16  C   UNL     1      35.612 -21.683 -20.347  0.00  0.00    +0.136 C 
BRANCH  16  19
ATOM     17  N   UNL     1      36.422 -19.373 -20.655  0.00  0.00    -0.318 N 
ATOM     18  N   UNL     1      34.504 -18.291 -20.940  0.00  0.00    -0.319 N 
ATOM     19  C   UNL     1      35.364 -20.218 -20.589  0.00  0.00    +0.052 C 
ATOM     20  C   UNL     1      34.170 -19.603 -20.758  0.00  0.00    +0.034 C 
ATOM     21  C   UNL     1      32.776 -20.073 -20.771  0.00  0.00    +0.048 C 
ATOM     22  C   UNL     1      35.867 -18.202 -20.870  0.00  0.00    +0.181 C 
ATOM     23  H   UNL     1      37.379 -19.586 -20.564  0.00  0.00    +0.148 HD
ATOM     24  H   UNL     1      33.879 -17.547 -21.094  0.00  0.00    +0.148 HD
ENDBRANCH  16  19
ENDBRANCH   2  16
TORSDOF 2
ENDMDL
MODEL 3
REMARK VINA RESULT:      -9.9      6.670     10.008
REMARK  Name = 2099
REMARK  2 active torsions:
REMARK  status: ('A' for Active; 'I' for Inactive)
REMARK    1  A    between atoms: N_2  and  C_16
REMARK    2  A    between atoms: C_16  and  C_19
REMARK                            x       y       z     vdW  Elec       q    Type
REMARK                         _______ _______ _______ _____ _____    ______ ____
ROOT
ATOM      1  O   UNL     1      38.007 -22.917 -15.784  0.00  0.00    -0.270 OA
ATOM      2  N   UNL     1      36.482 -23.708 -14.201  0.00  0.00    -0.270 N 
ATOM      3  N   UNL     1      33.626 -22.986 -17.068  0.00  0.00    -0.328 N 
ATOM      4  C   UNL     1      34.466 -23.348 -16.057  0.00  0.00    +0.043 A 
ATOM      5  C   UNL     1      34.086 -24.111 -14.850  0.00  0.00    +0.065 C 
ATOM      6  C   UNL     1      35.735 -22.902 -16.348  0.00  0.00    +0.067 A 
ATOM      7  C   UNL     1      35.079 -23.751 -13.740  0.00  0.00    +0.100 C 
ATOM      8  C   UNL     1      35.669 -22.241 -17.609  0.00  0.00    +0.021 A 
ATOM      9  C   UNL     1      34.336 -22.307 -18.035  0.00  0.00    +0.060 A 
ATOM     10  C   UNL     1      36.851 -23.157 -15.447  0.00  0.00    +0.250 C 
ATOM     11  C   UNL     1      32.205 -23.255 -17.117  0.00  0.00    +0.130 C 
ATOM     12  C   UNL     1      36.607 -21.590 -18.438  0.00  0.00    +0.002 C 
ATOM     13  C   UNL     1      33.901 -21.753 -19.244  0.00  0.00    +0.017 C 
ATOM     14  C   UNL     1      36.184 -21.031 -19.649  0.00  0.00    +0.000 C 
ATOM     15  C   UNL     1      34.851 -21.113 -20.045  0.00  0.00    +0.001 C 
ENDROOT
BRANCH   2  16
ATOM     16  C   UNL     1      37.504 -24.007 -13.210  0.00  0.00    +0.136 C 
BRANCH  16  19
ATOM     17  N   UNL     1      39.824 -24.731 -13.636  0.00  0.00    -0.318 N 
ATOM     18  N   UNL     1      39.479 -26.723 -14.555  0.00  0.00    -0.319 N 
ATOM     19  C   UNL     1      38.501 -25.014 -13.718  0.00  0.00    +0.052 C 
ATOM     20  C   UNL     1      38.241 -26.222 -14.273  0.00  0.00    +0.034 C 
ATOM     21  C   UNL     1      37.002 -26.959 -14.570  0.00  0.00    +0.048 C 
ATOM     22  C   UNL     1      40.399 -25.792 -14.155  0.00  0.00    +0.181 C 
ATOM     23  H   UNL     1      40.253 -23.922 -13.274  0.00  0.00    +0.148 HD
ATOM     24  H   UNL     1      39.675 -27.594 -14.969  0.00  0.00    +0.148 HD
ENDBRANCH  16  19
ENDBRANCH   2  16
TORSDOF 2
ENDMDL
MODEL 4
REMARK VINA RESULT:      -9.6      1.263      2.865
REMARK  Name = 2099
REMARK  2 active torsions:
REMARK  status: ('A' for Active; 'I' for Inactive)
REMARK    1  A    between atoms: N_2  and  C_16
REMARK    2  A    between atoms: C_16  and  C_19
REMARK                            x       y       z     vdW  Elec       q    Type
REMARK                         _______ _______ _______ _____ _____    ______ ____
ROOT
ATOM      1  O   UNL     1      35.023 -18.099 -24.006  0.00  0.00    -0.270 OA
ATOM      2  N   UNL     1      35.085 -17.608 -21.723  0.00  0.00    -0.270 N 
ATOM      3  N   UNL     1      33.004 -14.209 -22.727  0.00  0.00    -0.328 N 
ATOM      4  C   UNL     1      33.618 -15.324 -22.239  0.00  0.00    +0.043 A 
ATOM      5  C   UNL     1      33.753 -15.680 -20.811  0.00  0.00    +0.065 C 
ATOM      6  C   UNL     1      34.079 -16.079 -23.293  0.00  0.00    +0.067 A 
ATOM      7  C   UNL     1      34.988 -16.576 -20.670  0.00  0.00    +0.100 C 
ATOM      8  C   UNL     1      33.718 -15.394 -24.490  0.00  0.00    +0.021 A 
ATOM      9  C   UNL     1      33.049 -14.225 -24.105  0.00  0.00    +0.060 A 
ATOM     10  C   UNL     1      34.769 -17.343 -23.072  0.00  0.00    +0.250 C 
ATOM     11  C   UNL     1      32.410 -13.158 -21.928  0.00  0.00    +0.130 C 
ATOM     12  C   UNL     1      33.892 -15.645 -25.867  0.00  0.00    +0.002 C 
ATOM     13  C   UNL     1      32.550 -13.301 -25.030  0.00  0.00    +0.017 C 
ATOM     14  C   UNL     1      33.398 -14.728 -26.802  0.00  0.00    +0.000 C 
ATOM     15  C   UNL     1      32.737 -13.575 -26.387  0.00  0.00    +0.001 C 
ENDROOT
BRANCH   2  16
ATOM     16  C   UNL     1      35.778 -18.838 -21.369  0.00  0.00    +0.136 C 
BRANCH  16  19
ATOM     17  N   UNL     1      33.521 -19.720 -20.903  0.00  0.00    -0.318 N 
ATOM     18  N   UNL     1      34.008 -21.440 -19.585  0.00  0.00    -0.319 N 
ATOM     19  C   UNL     1      34.858 -19.830 -20.709  0.00  0.00    +0.052 C 
ATOM     20  C   UNL     1      35.205 -20.867 -19.910  0.00  0.00    +0.034 C 
ATOM     21  C   UNL     1      36.490 -21.387 -19.418  0.00  0.00    +0.048 C 
ATOM     22  C   UNL     1      33.026 -20.716 -20.204  0.00  0.00    +0.181 C 
ATOM     23  H   UNL     1      33.036 -19.052 -21.439  0.00  0.00    +0.148 HD
ATOM     24  H   UNL     1      33.876 -22.229 -19.011  0.00  0.00    +0.148 HD
ENDBRANCH  16  19
ENDBRANCH   2  16
TORSDOF 2
ENDMDL
MODEL 5
REMARK VINA RESULT:      -9.4      1.831      3.179
REMARK  Name = 2099
REMARK  2 active torsions:
REMARK  status: ('A' for Active; 'I' for Inactive)
REMARK    1  A    between atoms: N_2  and  C_16
REMARK    2  A    between atoms: C_16  and  C_19
REMARK                            x       y       z     vdW  Elec       q    Type
REMARK                         _______ _______ _______ _____ _____    ______ ____
ROOT
ATOM      1  O   UNL     1      34.480 -15.768 -24.754  0.00  0.00    -0.270 OA
ATOM      2  N   UNL     1      34.036 -16.736 -22.674  0.00  0.00    -0.270 N 
ATOM      3  N   UNL     1      32.500 -13.062 -21.655  0.00  0.00    -0.328 N 
ATOM      4  C   UNL     1      32.900 -14.347 -21.876  0.00  0.00    +0.043 A 
ATOM      5  C   UNL     1      32.669 -15.491 -20.970  0.00  0.00    +0.065 C 
ATOM      6  C   UNL     1      33.541 -14.413 -23.092  0.00  0.00    +0.067 A 
ATOM      7  C   UNL     1      33.768 -16.524 -21.237  0.00  0.00    +0.100 C 
ATOM      8  C   UNL     1      33.523 -13.100 -23.648  0.00  0.00    +0.021 A 
ATOM      9  C   UNL     1      32.867 -12.275 -22.725  0.00  0.00    +0.060 A 
ATOM     10  C   UNL     1      34.067 -15.672 -23.601  0.00  0.00    +0.250 C 
ATOM     11  C   UNL     1      31.811 -12.588 -20.473  0.00  0.00    +0.130 C 
ATOM     12  C   UNL     1      33.999 -12.524 -24.845  0.00  0.00    +0.002 C 
ATOM     13  C   UNL     1      32.668 -10.907 -22.944  0.00  0.00    +0.017 C 
ATOM     14  C   UNL     1      33.806 -11.157 -25.074  0.00  0.00    +0.000 C 
ATOM     15  C   UNL     1      33.150 -10.363 -24.137  0.00  0.00    +0.001 C 
ENDROOT
BRANCH   2  16
ATOM     16  C   UNL     1      34.536 -18.047 -23.059  0.00  0.00    +0.136 C 
BRANCH  16  19
ATOM     17  N   UNL     1      36.477 -18.638 -21.652  0.00  0.00    -0.318 N 
ATOM     18  N   UNL     1      35.523 -19.989 -20.171  0.00  0.00    -0.319 N 
ATOM     19  C   UNL     1      35.150 -18.778 -21.894  0.00  0.00    +0.052 C 
ATOM     20  C   UNL     1      34.524 -19.595 -21.014  0.00  0.00    +0.034 C 
ATOM     21  C   UNL     1      33.133 -20.049 -20.860  0.00  0.00    +0.048 C 
ATOM     22  C   UNL     1      36.677 -19.389 -20.594  0.00  0.00    +0.181 C 
ATOM     23  H   UNL     1      37.133 -18.101 -22.152  0.00  0.00    +0.148 HD
ATOM     24  H   UNL     1      35.430 -20.594 -19.399  0.00  0.00    +0.148 HD
ENDBRANCH  16  19
ENDBRANCH   2  16
TORSDOF 2
ENDMDL
MODEL 6
REMARK VINA RESULT:      -9.4      8.423     11.085
REMARK  Name = 2099
REMARK  2 active torsions:
REMARK  status: ('A' for Active; 'I' for Inactive)
REMARK    1  A    between atoms: N_2  and  C_16
REMARK    2  A    between atoms: C_16  and  C_19
REMARK                            x       y       z     vdW  Elec       q    Type
REMARK                         _______ _______ _______ _____ _____    ______ ____
ROOT
ATOM      1  O   UNL     1      34.444 -24.312 -12.422  0.00  0.00    -0.270 OA
ATOM      2  N   UNL     1      36.126 -23.811 -13.964  0.00  0.00    -0.270 N 
ATOM      3  N   UNL     1      33.052 -23.131 -16.607  0.00  0.00    -0.328 N 
ATOM      4  C   UNL     1      34.163 -23.243 -15.824  0.00  0.00    +0.043 A 
ATOM      5  C   UNL     1      35.532 -22.839 -16.206  0.00  0.00    +0.065 C 
ATOM      6  C   UNL     1      33.803 -23.779 -14.609  0.00  0.00    +0.067 A 
ATOM      7  C   UNL     1      36.512 -23.683 -15.384  0.00  0.00    +0.100 C 
ATOM      8  C   UNL     1      32.394 -23.997 -14.648  0.00  0.00    +0.021 A 
ATOM      9  C   UNL     1      31.952 -23.585 -15.911  0.00  0.00    +0.060 A 
ATOM     10  C   UNL     1      34.788 -24.002 -13.559  0.00  0.00    +0.250 C 
ATOM     11  C   UNL     1      33.028 -22.631 -17.965  0.00  0.00    +0.130 C 
ATOM     12  C   UNL     1      31.444 -24.504 -13.736  0.00  0.00    +0.002 C 
ATOM     13  C   UNL     1      30.610 -23.658 -16.303  0.00  0.00    +0.017 C 
ATOM     14  C   UNL     1      30.100 -24.583 -14.116  0.00  0.00    +0.000 C 
ATOM     15  C   UNL     1      29.691 -24.165 -15.381  0.00  0.00    +0.001 C 
ENDROOT
BRANCH   2  16
ATOM     16  C   UNL     1      37.206 -24.005 -13.009  0.00  0.00    +0.136 C 
BRANCH  16  19
ATOM     17  N   UNL     1      39.548 -24.530 -13.587  0.00  0.00    -0.318 N 
ATOM     18  N   UNL     1      39.337 -26.609 -14.337  0.00  0.00    -0.319 N 
ATOM     19  C   UNL     1      38.258 -24.945 -13.534  0.00  0.00    +0.052 C 
ATOM     20  C   UNL     1      38.080 -26.211 -13.982  0.00  0.00    +0.034 C 
ATOM     21  C   UNL     1      36.904 -27.085 -14.121  0.00  0.00    +0.048 C 
ATOM     22  C   UNL     1      40.185 -25.566 -14.081  0.00  0.00    +0.181 C 
ATOM     23  H   UNL     1      39.918 -23.658 -13.318  0.00  0.00    +0.148 HD
ATOM     24  H   UNL     1      39.588 -27.486 -14.707  0.00  0.00    +0.148 HD
ENDBRANCH  16  19
ENDBRANCH   2  16
TORSDOF 2
ENDMDL
MODEL 7
REMARK VINA RESULT:      -9.3      3.001      8.088
REMARK  Name = 2099
REMARK  2 active torsions:
REMARK  status: ('A' for Active; 'I' for Inactive)
REMARK    1  A    between atoms: N_2  and  C_16
REMARK    2  A    between atoms: C_16  and  C_19
REMARK                            x       y       z     vdW  Elec       q    Type
REMARK                         _______ _______ _______ _____ _____    ______ ____
ROOT
ATOM      1  O   UNL     1      32.694 -21.398 -20.307  0.00  0.00    -0.270 OA
ATOM      2  N   UNL     1      34.791 -20.467 -20.750  0.00  0.00    -0.270 N 
ATOM      3  N   UNL     1      35.998 -22.359 -17.306  0.00  0.00    -0.328 N 
ATOM      4  C   UNL     1      35.762 -21.746 -18.501  0.00  0.00    +0.043 A 
ATOM      5  C   UNL     1      36.788 -21.152 -19.383  0.00  0.00    +0.065 C 
ATOM      6  C   UNL     1      34.412 -21.783 -18.765  0.00  0.00    +0.067 A 
ATOM      7  C   UNL     1      36.108 -20.061 -20.218  0.00  0.00    +0.100 C 
ATOM      8  C   UNL     1      33.791 -22.465 -17.678  0.00  0.00    +0.021 A 
ATOM      9  C   UNL     1      34.807 -22.812 -16.779  0.00  0.00    +0.060 A 
ATOM     10  C   UNL     1      33.865 -21.212 -19.988  0.00  0.00    +0.250 C 
ATOM     11  C   UNL     1      37.293 -22.502 -16.676  0.00  0.00    +0.130 C 
ATOM     12  C   UNL     1      32.464 -22.825 -17.362  0.00  0.00    +0.002 C 
ATOM     13  C   UNL     1      34.558 -23.497 -15.584  0.00  0.00    +0.017 C 
ATOM     14  C   UNL     1      32.202 -23.510 -16.170  0.00  0.00    +0.000 C 
ATOM     15  C   UNL     1      33.235 -23.841 -15.296  0.00  0.00    +0.001 C 
ENDROOT
BRANCH   2  16
ATOM     16  C   UNL     1      34.369 -19.842 -21.994  0.00  0.00    +0.136 C 
BRANCH  16  19
ATOM     17  N   UNL     1      34.594 -17.693 -20.802  0.00  0.00    -0.318 N 
ATOM     18  N   UNL     1      34.990 -16.314 -22.497  0.00  0.00    -0.319 N 
ATOM     19  C   UNL     1      34.608 -18.356 -21.985  0.00  0.00    +0.052 C 
ATOM     20  C   UNL     1      34.847 -17.555 -23.050  0.00  0.00    +0.034 C 
ATOM     21  C   UNL     1      34.957 -17.793 -24.498  0.00  0.00    +0.048 C 
ATOM     22  C   UNL     1      34.830 -16.447 -21.145  0.00  0.00    +0.181 C 
ATOM     23  H   UNL     1      34.443 -18.058 -19.901  0.00  0.00    +0.148 HD
ATOM     24  H   UNL     1      35.176 -15.478 -22.982  0.00  0.00    +0.148 HD
ENDBRANCH  16  19
ENDBRANCH   2  16
TORSDOF 2
ENDMDL
MODEL 8
REMARK VINA RESULT:      -9.1      2.461      7.316
REMARK  Name = 2099
REMARK  2 active torsions:
REMARK  status: ('A' for Active; 'I' for Inactive)
REMARK    1  A    between atoms: N_2  and  C_16
REMARK    2  A    between atoms: C_16  and  C_19
REMARK                            x       y       z     vdW  Elec       q    Type
REMARK                         _______ _______ _______ _____ _____    ______ ____
ROOT
ATOM      1  O   UNL     1      33.250 -13.818 -21.138  0.00  0.00    -0.270 OA
ATOM      2  N   UNL     1      32.914 -13.054 -23.321  0.00  0.00    -0.270 N 
ATOM      3  N   UNL     1      34.360 -16.722 -24.481  0.00  0.00    -0.328 N 
ATOM      4  C   UNL     1      33.792 -15.505 -24.245  0.00  0.00    +0.043 A 
ATOM      5  C   UNL     1      33.170 -14.632 -25.262  0.00  0.00    +0.065 C 
ATOM      6  C   UNL     1      33.875 -15.225 -22.901  0.00  0.00    +0.067 A 
ATOM      7  C   UNL     1      33.257 -13.189 -24.751  0.00  0.00    +0.100 C 
ATOM      8  C   UNL     1      34.519 -16.336 -22.280  0.00  0.00    +0.021 A 
ATOM      9  C   UNL     1      34.813 -17.256 -23.294  0.00  0.00    +0.060 A 
ATOM     10  C   UNL     1      33.334 -13.989 -22.351  0.00  0.00    +0.250 C 
ATOM     11  C   UNL     1      34.485 -17.354 -25.777  0.00  0.00    +0.130 C 
ATOM     12  C   UNL     1      34.885 -16.656 -20.956  0.00  0.00    +0.002 C 
ATOM     13  C   UNL     1      35.454 -18.475 -23.045  0.00  0.00    +0.017 C 
ATOM     14  C   UNL     1      35.527 -17.872 -20.694  0.00  0.00    +0.000 C 
ATOM     15  C   UNL     1      35.806 -18.766 -21.724  0.00  0.00    +0.001 C 
ENDROOT
BRANCH   2  16
ATOM     16  C   UNL     1      32.357 -11.777 -22.901  0.00  0.00    +0.136 C 
BRANCH  16  19
ATOM     17  N   UNL     1      34.427 -10.835 -23.861  0.00  0.00    -0.318 N 
ATOM     18  N   UNL     1      33.872  -8.692 -24.029  0.00  0.00    -0.319 N 
ATOM     19  C   UNL     1      33.165 -10.615 -23.417  0.00  0.00    +0.052 C 
ATOM     20  C   UNL     1      32.781  -9.320 -23.500  0.00  0.00    +0.034 C 
ATOM     21  C   UNL     1      31.544  -8.601 -23.155  0.00  0.00    +0.048 C 
ATOM     22  C   UNL     1      34.835  -9.642 -24.229  0.00  0.00    +0.181 C 
ATOM     23  H   UNL     1      34.920 -11.687 -23.899  0.00  0.00    +0.148 HD
ATOM     24  H   UNL     1      33.951  -7.731 -24.231  0.00  0.00    +0.148 HD
ENDBRANCH  16  19
ENDBRANCH   2  16
TORSDOF 2
ENDMDL
MODEL 9
REMARK VINA RESULT:      -9.0      2.662      7.613
REMARK  Name = 2099
REMARK  2 active torsions:
REMARK  status: ('A' for Active; 'I' for Inactive)
REMARK    1  A    between atoms: N_2  and  C_16
REMARK    2  A    between atoms: C_16  and  C_19
REMARK                            x       y       z     vdW  Elec       q    Type
REMARK                         _______ _______ _______ _____ _____    ______ ____
ROOT
ATOM      1  O   UNL     1      33.231 -13.946 -25.292  0.00  0.00    -0.270 OA
ATOM      2  N   UNL     1      33.022 -13.027 -23.154  0.00  0.00    -0.270 N 
ATOM      3  N   UNL     1      34.674 -16.550 -21.831  0.00  0.00    -0.328 N 
ATOM      4  C   UNL     1      34.195 -15.309 -22.128  0.00  0.00    +0.043 A 
ATOM      5  C   UNL     1      34.055 -14.187 -21.177  0.00  0.00    +0.065 C 
ATOM      6  C   UNL     1      33.876 -15.260 -23.466  0.00  0.00    +0.067 A 
ATOM      7  C   UNL     1      32.944 -13.270 -21.699  0.00  0.00    +0.100 C 
ATOM      8  C   UNL     1      34.187 -16.537 -24.018  0.00  0.00    +0.021 A 
ATOM      9  C   UNL     1      34.682 -17.325 -22.971  0.00  0.00    +0.060 A 
ATOM     10  C   UNL     1      33.350 -14.046 -24.074  0.00  0.00    +0.250 C 
ATOM     11  C   UNL     1      35.096 -16.996 -20.520  0.00  0.00    +0.130 C 
ATOM     12  C   UNL     1      34.097 -17.110 -25.304  0.00  0.00    +0.002 C 
ATOM     13  C   UNL     1      35.089 -18.652 -23.151  0.00  0.00    +0.017 C 
ATOM     14  C   UNL     1      34.501 -18.436 -25.497  0.00  0.00    +0.000 C 
ATOM     15  C   UNL     1      34.990 -19.193 -24.435  0.00  0.00    +0.001 C 
ENDROOT
BRANCH   2  16
ATOM     16  C   UNL     1      32.484 -11.763 -23.634  0.00  0.00    +0.136 C 
BRANCH  16  19
ATOM     17  N   UNL     1      34.547 -11.164 -24.849  0.00  0.00    -0.318 N 
ATOM     18  N   UNL     1      34.855  -9.080 -24.148  0.00  0.00    -0.319 N 
ATOM     19  C   UNL     1      33.574 -10.785 -23.984  0.00  0.00    +0.052 C 
ATOM     20  C   UNL     1      33.720  -9.518 -23.528  0.00  0.00    +0.034 C 
ATOM     21  C   UNL     1      32.948  -8.675 -22.602  0.00  0.00    +0.048 C 
ATOM     22  C   UNL     1      35.316 -10.102 -24.930  0.00  0.00    +0.181 C 
ATOM     23  H   UNL     1      34.653 -12.029 -25.307  0.00  0.00    +0.148 HD
ATOM     24  H   UNL     1      35.266  -8.190 -24.051  0.00  0.00    +0.148 HD
ENDBRANCH  16  19
ENDBRANCH   2  16
TORSDOF 2
ENDMDL
