MODEL 1
REMARK VINA RESULT:      -7.8      0.000      0.000
REMARK  Name = 446476
REMARK  4 active torsions:
REMARK  status: ('A' for Active; 'I' for Inactive)
REMARK    1  A    between atoms: C_3  and  N_14
REMARK    2  A    between atoms: C_3  and  C_19
REMARK    3  A    between atoms: C_4  and  C_8
REMARK    4  A    between atoms: C_19  and  C_20
REMARK                            x       y       z     vdW  Elec       q    Type
REMARK                         _______ _______ _______ _____ _____    ______ ____
ROOT
ATOM      1  C   UNL     1      35.009 -19.534 -23.230  0.00  0.00    -0.011 C 
ATOM      2  C   UNL     1      33.854 -17.850 -24.136  0.00  0.00    +0.002 C 
ATOM      3  C   UNL     1      35.638 -18.286 -22.542  0.00  0.00    +0.012 C 
ATOM      4  C   UNL     1      34.895 -17.100 -23.244  0.00  0.00    +0.011 C 
ATOM      5  C   UNL     1      33.537 -19.113 -23.333  0.00  0.00    -0.001 C 
ATOM      6  C   UNL     1      35.377 -19.623 -24.724  0.00  0.00    -0.002 C 
ATOM      7  C   UNL     1      34.598 -18.456 -25.345  0.00  0.00    +0.000 C 
ENDROOT
BRANCH   4   8
ATOM      8  C   UNL     1      34.221 -16.128 -22.333  0.00  0.00    -0.024 C 
ATOM      9  C   UNL     1      34.746 -14.847 -22.173  0.00  0.00    -0.004 C 
ATOM     10  C   UNL     1      33.066 -16.503 -21.647  0.00  0.00    -0.004 C 
ATOM     11  C   UNL     1      34.116 -13.938 -21.322  0.00  0.00    -0.000 C 
ATOM     12  C   UNL     1      32.437 -15.594 -20.796  0.00  0.00    -0.000 C 
ATOM     13  C   UNL     1      32.961 -14.311 -20.634  0.00  0.00    -0.000 C 
ENDBRANCH   4   8
BRANCH   3  14
ATOM     14  N   UNL     1      37.087 -18.193 -22.701  0.00  0.00    +0.388 N 
ATOM     15  H   UNL     1      37.462 -19.108 -22.949  0.00  0.00    -0.089 HD
ATOM     16  H   UNL     1      37.506 -17.878 -21.826  0.00  0.00    -0.089 HD
ATOM     17  H   UNL     1      37.306 -17.525 -23.442  0.00  0.00    -0.089 HD
ENDBRANCH   3  14
BRANCH   3  19
ATOM     18  O   UNL     1      35.619 -17.458 -20.301  0.00  0.00    -0.293 OA
ATOM     19  C   UNL     1      35.418 -18.411 -21.051  0.00  0.00    +0.155 C 
BRANCH  19  20
ATOM     20  C   UNL     1      34.952 -19.713 -20.494  0.00  0.00    +0.033 C 
ATOM     21  C   UNL     1      35.892 -20.658 -20.148  0.00  0.00    +0.003 C 
ATOM     22  C   UNL     1      33.599 -19.922 -20.345  0.00  0.00    +0.003 C 
ATOM     23  C   UNL     1      35.456 -21.876 -19.627  0.00  0.00    +0.000 C 
ATOM     24  C   UNL     1      33.164 -21.141 -19.824  0.00  0.00    +0.000 C 
ATOM     25  C   UNL     1      34.092 -22.117 -19.465  0.00  0.00    +0.000 C 
ENDBRANCH  19  20
ENDBRANCH   3  19
TORSDOF 4
ENDMDL
MODEL 2
REMARK VINA RESULT:      -7.0      6.574      9.862
REMARK  Name = 446476
REMARK  4 active torsions:
REMARK  status: ('A' for Active; 'I' for Inactive)
REMARK    1  A    between atoms: C_3  and  N_14
REMARK    2  A    between atoms: C_3  and  C_19
REMARK    3  A    between atoms: C_4  and  C_8
REMARK    4  A    between atoms: C_19  and  C_20
REMARK                            x       y       z     vdW  Elec       q    Type
REMARK                         _______ _______ _______ _____ _____    ______ ____
ROOT
ATOM      1  C   UNL     1      36.295 -25.386 -13.310  0.00  0.00    -0.011 C 
ATOM      2  C   UNL     1      37.840 -24.097 -14.280  0.00  0.00    +0.002 C 
ATOM      3  C   UNL     1      35.464 -24.150 -13.764  0.00  0.00    +0.012 C 
ATOM      4  C   UNL     1      36.559 -23.204 -14.361  0.00  0.00    +0.011 C 
ATOM      5  C   UNL     1      37.300 -25.516 -14.462  0.00  0.00    -0.001 C 
ATOM      6  C   UNL     1      37.250 -25.052 -12.147  0.00  0.00    -0.002 C 
ATOM      7  C   UNL     1      38.302 -24.151 -12.808  0.00  0.00    +0.000 C 
ENDROOT
BRANCH   4   8
ATOM      8  C   UNL     1      36.320 -22.734 -15.757  0.00  0.00    -0.024 C 
ATOM      9  C   UNL     1      37.375 -22.216 -16.507  0.00  0.00    -0.004 C 
ATOM     10  C   UNL     1      35.042 -22.815 -16.309  0.00  0.00    -0.004 C 
ATOM     11  C   UNL     1      37.152 -21.777 -17.812  0.00  0.00    -0.000 C 
ATOM     12  C   UNL     1      34.819 -22.375 -17.615  0.00  0.00    -0.000 C 
ATOM     13  C   UNL     1      35.874 -21.857 -18.366  0.00  0.00    -0.000 C 
ENDBRANCH   4   8
BRANCH   3  14
ATOM     14  N   UNL     1      34.720 -23.510 -12.683  0.00  0.00    +0.388 N 
ATOM     15  H   UNL     1      35.332 -22.864 -12.184  0.00  0.00    -0.089 HD
ATOM     16  H   UNL     1      34.378 -24.222 -12.037  0.00  0.00    -0.089 HD
ATOM     17  H   UNL     1      33.929 -22.996 -13.072  0.00  0.00    -0.089 HD
ENDBRANCH   3  14
BRANCH   3  19
ATOM     18  O   UNL     1      34.710 -25.293 -15.722  0.00  0.00    -0.293 OA
ATOM     19  C   UNL     1      34.406 -24.627 -14.735  0.00  0.00    +0.155 C 
BRANCH  19  20
ATOM     20  C   UNL     1      32.980 -24.277 -14.481  0.00  0.00    +0.033 C 
ATOM     21  C   UNL     1      32.495 -23.083 -14.965  0.00  0.00    +0.003 C 
ATOM     22  C   UNL     1      32.198 -25.163 -13.772  0.00  0.00    +0.003 C 
ATOM     23  C   UNL     1      31.161 -22.756 -14.728  0.00  0.00    +0.000 C 
ATOM     24  C   UNL     1      30.863 -24.834 -13.536  0.00  0.00    +0.000 C 
ATOM     25  C   UNL     1      30.344 -23.631 -14.014  0.00  0.00    +0.000 C 
ENDBRANCH  19  20
ENDBRANCH   3  19
TORSDOF 4
ENDMDL
MODEL 3
REMARK VINA RESULT:      -6.8      2.633      5.642
REMARK  Name = 446476
REMARK  4 active torsions:
REMARK  status: ('A' for Active; 'I' for Inactive)
REMARK    1  A    between atoms: C_3  and  N_14
REMARK    2  A    between atoms: C_3  and  C_19
REMARK    3  A    between atoms: C_4  and  C_8
REMARK    4  A    between atoms: C_19  and  C_20
REMARK                            x       y       z     vdW  Elec       q    Type
REMARK                         _______ _______ _______ _____ _____    ______ ____
ROOT
ATOM      1  C   UNL     1      34.225 -17.291 -21.122  0.00  0.00    -0.011 C 
ATOM      2  C   UNL     1      35.204 -17.326 -23.130  0.00  0.00    +0.002 C 
ATOM      3  C   UNL     1      34.187 -15.791 -21.541  0.00  0.00    +0.012 C 
ATOM      4  C   UNL     1      34.955 -15.799 -22.905  0.00  0.00    +0.011 C 
ATOM      5  C   UNL     1      33.994 -17.988 -22.469  0.00  0.00    -0.001 C 
ATOM      6  C   UNL     1      35.655 -17.771 -20.804  0.00  0.00    -0.002 C 
ATOM      7  C   UNL     1      36.334 -17.778 -22.181  0.00  0.00    +0.000 C 
ENDROOT
BRANCH   4   8
ATOM      8  C   UNL     1      34.228 -15.198 -24.062  0.00  0.00    -0.024 C 
ATOM      9  C   UNL     1      34.148 -13.812 -24.188  0.00  0.00    -0.004 C 
ATOM     10  C   UNL     1      33.632 -16.023 -25.015  0.00  0.00    -0.004 C 
ATOM     11  C   UNL     1      33.469 -13.249 -25.269  0.00  0.00    -0.000 C 
ATOM     12  C   UNL     1      32.953 -15.460 -26.096  0.00  0.00    -0.000 C 
ATOM     13  C   UNL     1      32.872 -14.073 -26.223  0.00  0.00    -0.000 C 
ENDBRANCH   4   8
BRANCH   3  14
ATOM     14  N   UNL     1      34.806 -14.892 -20.571  0.00  0.00    +0.388 N 
ATOM     15  H   UNL     1      35.306 -14.152 -21.063  0.00  0.00    -0.089 HD
ATOM     16  H   UNL     1      35.460 -15.417 -19.990  0.00  0.00    -0.089 HD
ATOM     17  H   UNL     1      34.083 -14.479 -19.981  0.00  0.00    -0.089 HD
ENDBRANCH   3  14
BRANCH   3  19
ATOM     18  O   UNL     1      31.850 -16.164 -21.871  0.00  0.00    -0.293 OA
ATOM     19  C   UNL     1      32.739 -15.359 -21.603  0.00  0.00    +0.155 C 
BRANCH  19  20
ATOM     20  C   UNL     1      32.396 -13.933 -21.335  0.00  0.00    +0.033 C 
ATOM     21  C   UNL     1      32.091 -13.115 -22.399  0.00  0.00    +0.003 C 
ATOM     22  C   UNL     1      32.397 -13.487 -20.032  0.00  0.00    +0.003 C 
ATOM     23  C   UNL     1      31.770 -11.781 -22.149  0.00  0.00    +0.000 C 
ATOM     24  C   UNL     1      32.076 -12.152 -19.782  0.00  0.00    +0.000 C 
ATOM     25  C   UNL     1      31.763 -11.300 -20.840  0.00  0.00    +0.000 C 
ENDBRANCH  19  20
ENDBRANCH   3  19
TORSDOF 4
ENDMDL
MODEL 4
REMARK VINA RESULT:      -6.8      3.435      6.669
REMARK  Name = 446476
REMARK  4 active torsions:
REMARK  status: ('A' for Active; 'I' for Inactive)
REMARK    1  A    between atoms: C_3  and  N_14
REMARK    2  A    between atoms: C_3  and  C_19
REMARK    3  A    between atoms: C_4  and  C_8
REMARK    4  A    between atoms: C_19  and  C_20
REMARK                            x       y       z     vdW  Elec       q    Type
REMARK                         _______ _______ _______ _____ _____    ______ ____
ROOT
ATOM      1  C   UNL     1      33.444 -15.666 -21.115  0.00  0.00    -0.011 C 
ATOM      2  C   UNL     1      34.465 -16.351 -22.980  0.00  0.00    +0.002 C 
ATOM      3  C   UNL     1      33.746 -14.324 -21.846  0.00  0.00    +0.012 C 
ATOM      4  C   UNL     1      34.543 -14.796 -23.107  0.00  0.00    +0.011 C 
ATOM      5  C   UNL     1      33.117 -16.588 -22.297  0.00  0.00    -0.001 C 
ATOM      6  C   UNL     1      34.724 -16.341 -20.583  0.00  0.00    -0.002 C 
ATOM      7  C   UNL     1      35.435 -16.796 -21.865  0.00  0.00    +0.000 C 
ENDROOT
BRANCH   4   8
ATOM      8  C   UNL     1      34.007 -14.337 -24.422  0.00  0.00    -0.024 C 
ATOM      9  C   UNL     1      34.019 -12.981 -24.743  0.00  0.00    -0.004 C 
ATOM     10  C   UNL     1      33.495 -15.266 -25.328  0.00  0.00    -0.004 C 
ATOM     11  C   UNL     1      33.518 -12.551 -25.973  0.00  0.00    -0.000 C 
ATOM     12  C   UNL     1      32.994 -14.837 -26.557  0.00  0.00    -0.000 C 
ATOM     13  C   UNL     1      33.006 -13.479 -26.880  0.00  0.00    -0.000 C 
ENDBRANCH   4   8
BRANCH   3  14
ATOM     14  N   UNL     1      34.509 -13.374 -21.041  0.00  0.00    +0.388 N 
ATOM     15  H   UNL     1      35.260 -13.864 -20.556  0.00  0.00    -0.089 HD
ATOM     16  H   UNL     1      33.892 -12.934 -20.358  0.00  0.00    -0.089 HD
ATOM     17  H   UNL     1      34.908 -12.657 -21.649  0.00  0.00    -0.089 HD
ENDBRANCH   3  14
BRANCH   3  19
ATOM     18  O   UNL     1      31.615 -14.113 -22.906  0.00  0.00    -0.293 OA
ATOM     19  C   UNL     1      32.428 -13.633 -22.120  0.00  0.00    +0.155 C 
BRANCH  19  20
ATOM     20  C   UNL     1      32.124 -12.352 -21.421  0.00  0.00    +0.033 C 
ATOM     21  C   UNL     1      32.089 -11.189 -22.157  0.00  0.00    +0.003 C 
ATOM     22  C   UNL     1      31.887 -12.379 -20.064  0.00  0.00    +0.003 C 
ATOM     23  C   UNL     1      31.803  -9.991 -21.504  0.00  0.00    +0.000 C 
ATOM     24  C   UNL     1      31.601 -11.179 -19.411  0.00  0.00    +0.000 C 
ATOM     25  C   UNL     1      31.559  -9.986 -20.131  0.00  0.00    +0.000 C 
ENDBRANCH  19  20
ENDBRANCH   3  19
TORSDOF 4
ENDMDL
MODEL 5
REMARK VINA RESULT:      -6.8      8.624     12.360
REMARK  Name = 446476
REMARK  4 active torsions:
REMARK  status: ('A' for Active; 'I' for Inactive)
REMARK    1  A    between atoms: C_3  and  N_14
REMARK    2  A    between atoms: C_3  and  C_19
REMARK    3  A    between atoms: C_4  and  C_8
REMARK    4  A    between atoms: C_19  and  C_20
REMARK                            x       y       z     vdW  Elec       q    Type
REMARK                         _______ _______ _______ _____ _____    ______ ____
ROOT
ATOM      1  C   UNL     1      31.318  -7.326 -21.899  0.00  0.00    -0.011 C 
ATOM      2  C   UNL     1      32.542  -9.129 -21.408  0.00  0.00    +0.002 C 
ATOM      3  C   UNL     1      32.569  -7.141 -22.808  0.00  0.00    +0.012 C 
ATOM      4  C   UNL     1      33.470  -8.354 -22.398  0.00  0.00    +0.011 C 
ATOM      5  C   UNL     1      31.135  -8.849 -21.940  0.00  0.00    -0.001 C 
ATOM      6  C   UNL     1      31.648  -7.128 -20.406  0.00  0.00    -0.002 C 
ATOM      7  C   UNL     1      32.504  -8.357 -20.072  0.00  0.00    +0.000 C 
ENDROOT
BRANCH   4   8
ATOM      8  C   UNL     1      33.918  -9.236 -23.516  0.00  0.00    -0.024 C 
ATOM      9  C   UNL     1      34.971  -8.835 -24.337  0.00  0.00    -0.004 C 
ATOM     10  C   UNL     1      33.285 -10.458 -23.736  0.00  0.00    -0.004 C 
ATOM     11  C   UNL     1      35.391  -9.659 -25.382  0.00  0.00    -0.000 C 
ATOM     12  C   UNL     1      33.705 -11.282 -24.780  0.00  0.00    -0.000 C 
ATOM     13  C   UNL     1      34.759 -10.882 -25.603  0.00  0.00    -0.000 C 
ENDBRANCH   4   8
BRANCH   3  14
ATOM     14  N   UNL     1      33.252  -5.864 -22.618  0.00  0.00    +0.388 N 
ATOM     15  H   UNL     1      32.890  -5.182 -23.284  0.00  0.00    -0.089 HD
ATOM     16  H   UNL     1      34.253  -5.988 -22.768  0.00  0.00    -0.089 HD
ATOM     17  H   UNL     1      33.089  -5.530 -21.668  0.00  0.00    -0.089 HD
ENDBRANCH   3  14
BRANCH   3  19
ATOM     18  O   UNL     1      31.400  -8.026 -24.694  0.00  0.00    -0.293 OA
ATOM     19  C   UNL     1      32.104  -7.123 -24.248  0.00  0.00    +0.155 C 
BRANCH  19  20
ATOM     20  C   UNL     1      32.512  -5.991 -25.127  0.00  0.00    +0.033 C 
ATOM     21  C   UNL     1      33.730  -6.054 -25.764  0.00  0.00    +0.003 C 
ATOM     22  C   UNL     1      31.653  -4.923 -25.270  0.00  0.00    +0.003 C 
ATOM     23  C   UNL     1      34.112  -4.995 -26.587  0.00  0.00    +0.000 C 
ATOM     24  C   UNL     1      32.036  -3.863 -26.093  0.00  0.00    +0.000 C 
ATOM     25  C   UNL     1      33.264  -3.900 -26.752  0.00  0.00    +0.000 C 
ENDBRANCH  19  20
ENDBRANCH   3  19
TORSDOF 4
ENDMDL
MODEL 6
REMARK VINA RESULT:      -6.7      5.663      9.110
REMARK  Name = 446476
REMARK  4 active torsions:
REMARK  status: ('A' for Active; 'I' for Inactive)
REMARK    1  A    between atoms: C_3  and  N_14
REMARK    2  A    between atoms: C_3  and  C_19
REMARK    3  A    between atoms: C_4  and  C_8
REMARK    4  A    between atoms: C_19  and  C_20
REMARK                            x       y       z     vdW  Elec       q    Type
REMARK                         _______ _______ _______ _____ _____    ______ ____
ROOT
ATOM      1  C   UNL     1      32.684 -23.690 -13.912  0.00  0.00    -0.011 C 
ATOM      2  C   UNL     1      31.654 -23.407 -15.874  0.00  0.00    +0.002 C 
ATOM      3  C   UNL     1      33.792 -24.083 -14.934  0.00  0.00    +0.012 C 
ATOM      4  C   UNL     1      33.044 -23.975 -16.305  0.00  0.00    +0.011 C 
ATOM      5  C   UNL     1      31.981 -22.545 -14.653  0.00  0.00    -0.001 C 
ATOM      6  C   UNL     1      31.544 -24.726 -13.860  0.00  0.00    -0.002 C 
ATOM      7  C   UNL     1      30.847 -24.545 -15.215  0.00  0.00    +0.000 C 
ENDROOT
BRANCH   4   8
ATOM      8  C   UNL     1      33.689 -23.100 -17.328  0.00  0.00    -0.024 C 
ATOM      9  C   UNL     1      32.899 -22.365 -18.210  0.00  0.00    -0.004 C 
ATOM     10  C   UNL     1      35.079 -23.018 -17.398  0.00  0.00    -0.004 C 
ATOM     11  C   UNL     1      33.501 -21.546 -19.167  0.00  0.00    -0.000 C 
ATOM     12  C   UNL     1      35.681 -22.200 -18.354  0.00  0.00    -0.000 C 
ATOM     13  C   UNL     1      34.892 -21.463 -19.238  0.00  0.00    -0.000 C 
ENDBRANCH   4   8
BRANCH   3  14
ATOM     14  N   UNL     1      34.346 -25.417 -14.717  0.00  0.00    +0.388 N 
ATOM     15  H   UNL     1      34.636 -25.512 -13.744  0.00  0.00    -0.089 HD
ATOM     16  H   UNL     1      35.152 -25.554 -15.327  0.00  0.00    -0.089 HD
ATOM     17  H   UNL     1      33.636 -26.119 -14.930  0.00  0.00    -0.089 HD
ENDBRANCH   3  14
BRANCH   3  19
ATOM     18  O   UNL     1      34.904 -21.979 -15.139  0.00  0.00    -0.293 OA
ATOM     19  C   UNL     1      34.960 -23.141 -14.745  0.00  0.00    +0.155 C 
BRANCH  19  20
ATOM     20  C   UNL     1      36.192 -23.641 -14.070  0.00  0.00    +0.033 C 
ATOM     21  C   UNL     1      36.308 -23.487 -12.707  0.00  0.00    +0.003 C 
ATOM     22  C   UNL     1      37.168 -24.241 -14.835  0.00  0.00    +0.003 C 
ATOM     23  C   UNL     1      37.460 -23.955 -12.076  0.00  0.00    +0.000 C 
ATOM     24  C   UNL     1      38.320 -24.709 -14.203  0.00  0.00    +0.000 C 
ATOM     25  C   UNL     1      38.466 -24.566 -12.824  0.00  0.00    +0.000 C 
ENDBRANCH  19  20
ENDBRANCH   3  19
TORSDOF 4
ENDMDL
MODEL 7
REMARK VINA RESULT:      -6.7      7.579     10.928
REMARK  Name = 446476
REMARK  4 active torsions:
REMARK  status: ('A' for Active; 'I' for Inactive)
REMARK    1  A    between atoms: C_3  and  N_14
REMARK    2  A    between atoms: C_3  and  C_19
REMARK    3  A    between atoms: C_4  and  C_8
REMARK    4  A    between atoms: C_19  and  C_20
REMARK                            x       y       z     vdW  Elec       q    Type
REMARK                         _______ _______ _______ _____ _____    ______ ____
ROOT
ATOM      1  C   UNL     1      30.798 -10.083 -21.564  0.00  0.00    -0.011 C 
ATOM      2  C   UNL     1      32.196 -11.783 -21.938  0.00  0.00    +0.002 C 
ATOM      3  C   UNL     1      32.083  -9.358 -22.061  0.00  0.00    +0.012 C 
ATOM      4  C   UNL     1      33.094 -10.539 -22.235  0.00  0.00    +0.011 C 
ATOM      5  C   UNL     1      30.812 -11.352 -22.426  0.00  0.00    -0.001 C 
ATOM      6  C   UNL     1      30.981 -10.698 -20.162  0.00  0.00    -0.002 C 
ATOM      7  C   UNL     1      31.956 -11.856 -20.415  0.00  0.00    +0.000 C 
ENDROOT
BRANCH   4   8
ATOM      8  C   UNL     1      33.738 -10.650 -23.578  0.00  0.00    -0.024 C 
ATOM      9  C   UNL     1      34.661  -9.689 -23.988  0.00  0.00    -0.004 C 
ATOM     10  C   UNL     1      33.415 -11.715 -24.419  0.00  0.00    -0.004 C 
ATOM     11  C   UNL     1      35.263  -9.792 -25.242  0.00  0.00    -0.000 C 
ATOM     12  C   UNL     1      34.017 -11.817 -25.673  0.00  0.00    -0.000 C 
ATOM     13  C   UNL     1      34.941 -10.856 -26.085  0.00  0.00    -0.000 C 
ENDBRANCH   4   8
BRANCH   3  14
ATOM     14  N   UNL     1      32.583  -8.343 -21.137  0.00  0.00    +0.388 N 
ATOM     15  H   UNL     1      33.109  -8.793 -20.388  0.00  0.00    -0.089 HD
ATOM     16  H   UNL     1      31.797  -7.828 -20.739  0.00  0.00    -0.089 HD
ATOM     17  H   UNL     1      33.192  -7.696 -21.639  0.00  0.00    -0.089 HD
ENDBRANCH   3  14
BRANCH   3  19
ATOM     18  O   UNL     1      31.548  -9.188 -24.383  0.00  0.00    -0.293 OA
ATOM     19  C   UNL     1      31.735  -8.598 -23.322  0.00  0.00    +0.155 C 
BRANCH  19  20
ATOM     20  C   UNL     1      31.620  -7.113 -23.264  0.00  0.00    +0.033 C 
ATOM     21  C   UNL     1      32.316  -6.359 -24.183  0.00  0.00    +0.003 C 
ATOM     22  C   UNL     1      30.821  -6.548 -22.294  0.00  0.00    +0.003 C 
ATOM     23  C   UNL     1      32.208  -4.970 -24.130  0.00  0.00    +0.000 C 
ATOM     24  C   UNL     1      30.714  -5.158 -22.241  0.00  0.00    +0.000 C 
ATOM     25  C   UNL     1      31.407  -4.369 -23.159  0.00  0.00    +0.000 C 
ENDBRANCH  19  20
ENDBRANCH   3  19
TORSDOF 4
ENDMDL
MODEL 8
REMARK VINA RESULT:      -6.7      2.712      5.249
REMARK  Name = 446476
REMARK  4 active torsions:
REMARK  status: ('A' for Active; 'I' for Inactive)
REMARK    1  A    between atoms: C_3  and  N_14
REMARK    2  A    between atoms: C_3  and  C_19
REMARK    3  A    between atoms: C_4  and  C_8
REMARK    4  A    between atoms: C_19  and  C_20
REMARK                            x       y       z     vdW  Elec       q    Type
REMARK                         _______ _______ _______ _____ _____    ______ ____
ROOT
ATOM      1  C   UNL     1      33.883 -14.638 -20.937  0.00  0.00    -0.011 C 
ATOM      2  C   UNL     1      32.815 -12.914 -21.872  0.00  0.00    +0.002 C 
ATOM      3  C   UNL     1      33.360 -15.249 -22.270  0.00  0.00    +0.012 C 
ATOM      4  C   UNL     1      32.533 -14.071 -22.884  0.00  0.00    +0.011 C 
ATOM      5  C   UNL     1      34.231 -13.209 -21.375  0.00  0.00    -0.001 C 
ATOM      6  C   UNL     1      32.744 -14.352 -19.940  0.00  0.00    -0.002 C 
ATOM      7  C   UNL     1      31.998 -13.179 -20.590  0.00  0.00    +0.000 C 
ENDROOT
BRANCH   4   8
ATOM      8  C   UNL     1      32.904 -13.672 -24.273  0.00  0.00    -0.024 C 
ATOM      9  C   UNL     1      32.643 -14.534 -25.337  0.00  0.00    -0.004 C 
ATOM     10  C   UNL     1      33.510 -12.438 -24.505  0.00  0.00    -0.004 C 
ATOM     11  C   UNL     1      32.990 -14.162 -26.636  0.00  0.00    -0.000 C 
ATOM     12  C   UNL     1      33.856 -12.066 -25.804  0.00  0.00    -0.000 C 
ATOM     13  C   UNL     1      33.596 -12.928 -26.870  0.00  0.00    -0.000 C 
ENDBRANCH   4   8
BRANCH   3  14
ATOM     14  N   UNL     1      32.548 -16.450 -22.089  0.00  0.00    +0.388 N 
ATOM     15  H   UNL     1      32.456 -16.652 -21.094  0.00  0.00    -0.089 HD
ATOM     16  H   UNL     1      32.997 -17.238 -22.557  0.00  0.00    -0.089 HD
ATOM     17  H   UNL     1      31.623 -16.299 -22.493  0.00  0.00    -0.089 HD
ENDBRANCH   3  14
BRANCH   3  19
ATOM     18  O   UNL     1      35.448 -14.919 -23.382  0.00  0.00    -0.293 OA
ATOM     19  C   UNL     1      34.555 -15.706 -23.078  0.00  0.00    +0.155 C 
BRANCH  19  20
ATOM     20  C   UNL     1      34.638 -17.131 -23.506  0.00  0.00    +0.033 C 
ATOM     21  C   UNL     1      34.368 -17.444 -24.819  0.00  0.00    +0.003 C 
ATOM     22  C   UNL     1      34.985 -18.083 -22.572  0.00  0.00    +0.003 C 
ATOM     23  C   UNL     1      34.447 -18.778 -25.220  0.00  0.00    +0.000 C 
ATOM     24  C   UNL     1      35.063 -19.416 -22.973  0.00  0.00    +0.000 C 
ATOM     25  C   UNL     1      34.795 -19.764 -24.297  0.00  0.00    +0.000 C 
ENDBRANCH  19  20
ENDBRANCH   3  19
TORSDOF 4
ENDMDL
MODEL 9
REMARK VINA RESULT:      -6.6      5.699      9.682
REMARK  Name = 446476
REMARK  4 active torsions:
REMARK  status: ('A' for Active; 'I' for Inactive)
REMARK    1  A    between atoms: C_3  and  N_14
REMARK    2  A    between atoms: C_3  and  C_19
REMARK    3  A    between atoms: C_4  and  C_8
REMARK    4  A    between atoms: C_19  and  C_20
REMARK                            x       y       z     vdW  Elec       q    Type
REMARK                         _______ _______ _______ _____ _____    ______ ____
ROOT
ATOM      1  C   UNL     1      37.234 -23.626 -13.729  0.00  0.00    -0.011 C 
ATOM      2  C   UNL     1      35.586 -24.741 -12.714  0.00  0.00    +0.002 C 
ATOM      3  C   UNL     1      36.226 -23.868 -14.891  0.00  0.00    +0.012 C 
ATOM      4  C   UNL     1      35.114 -24.729 -14.204  0.00  0.00    +0.011 C 
ATOM      5  C   UNL     1      36.284 -23.389 -12.548  0.00  0.00    -0.001 C 
ATOM      6  C   UNL     1      37.923 -24.927 -13.274  0.00  0.00    -0.002 C 
ATOM      7  C   UNL     1      36.787 -25.702 -12.592  0.00  0.00    +0.000 C 
ENDROOT
BRANCH   4   8
ATOM      8  C   UNL     1      33.721 -24.205 -14.322  0.00  0.00    -0.024 C 
ATOM      9  C   UNL     1      33.081 -23.676 -13.203  0.00  0.00    -0.004 C 
ATOM     10  C   UNL     1      33.065 -24.246 -15.551  0.00  0.00    -0.004 C 
ATOM     11  C   UNL     1      31.779 -23.186 -13.313  0.00  0.00    -0.000 C 
ATOM     12  C   UNL     1      31.763 -23.756 -15.661  0.00  0.00    -0.000 C 
ATOM     13  C   UNL     1      31.120 -23.225 -14.542  0.00  0.00    -0.000 C 
ENDBRANCH   4   8
BRANCH   3  14
ATOM     14  N   UNL     1      36.809 -24.548 -16.045  0.00  0.00    +0.388 N 
ATOM     15  H   UNL     1      36.085 -25.081 -16.528  0.00  0.00    -0.089 HD
ATOM     16  H   UNL     1      37.545 -25.181 -15.731  0.00  0.00    -0.089 HD
ATOM     17  H   UNL     1      37.204 -23.857 -16.683  0.00  0.00    -0.089 HD
ENDBRANCH   3  14
BRANCH   3  19
ATOM     18  O   UNL     1      35.468 -21.615 -14.648  0.00  0.00    -0.293 OA
ATOM     19  C   UNL     1      35.783 -22.520 -15.417  0.00  0.00    +0.155 C 
BRANCH  19  20
ATOM     20  C   UNL     1      35.732 -22.299 -16.890  0.00  0.00    +0.033 C 
ATOM     21  C   UNL     1      34.599 -22.672 -17.576  0.00  0.00    +0.003 C 
ATOM     22  C   UNL     1      36.821 -21.726 -17.511  0.00  0.00    +0.003 C 
ATOM     23  C   UNL     1      34.551 -22.464 -18.955  0.00  0.00    +0.000 C 
ATOM     24  C   UNL     1      36.773 -21.519 -18.889  0.00  0.00    +0.000 C 
ATOM     25  C   UNL     1      35.638 -21.888 -19.611  0.00  0.00    +0.000 C 
ENDBRANCH  19  20
ENDBRANCH   3  19
TORSDOF 4
ENDMDL
