MODEL 1
REMARK VINA RESULT:      -6.4      0.000      0.000
REMARK  Name = 15759
REMARK  3 active torsions:
REMARK  status: ('A' for Active; 'I' for Inactive)
REMARK    1  A    between atoms: C_1  and  C_10
REMARK    2  A    between atoms: C_2  and  N_7
REMARK    3  A    between atoms: C_10  and  C_11
REMARK                            x       y       z     vdW  Elec       q    Type
REMARK                         _______ _______ _______ _____ _____    ______ ____
ROOT
ATOM      1  C   UNL     1      34.882 -21.158 -19.660  0.00  0.00    -0.009 C 
ATOM      2  C   UNL     1      33.489 -21.076 -19.704  0.00  0.00    +0.037 C 
ATOM      3  C   UNL     1      35.655 -20.326 -20.471  0.00  0.00    -0.003 C 
ATOM      4  C   UNL     1      32.872 -20.164 -20.560  0.00  0.00    +0.014 C 
ATOM      5  C   UNL     1      35.036 -19.413 -21.326  0.00  0.00    -0.000 C 
ATOM      6  C   UNL     1      33.644 -19.332 -21.370  0.00  0.00    +0.001 C 
ENDROOT
BRANCH   2   7
ATOM      7  N   UNL     1      32.691 -21.909 -18.891  0.00  0.00    -0.357 N 
ATOM      8  H   UNL     1      32.424 -21.611 -17.992  0.00  0.00    +0.142 HD
ATOM      9  H   UNL     1      32.401 -22.790 -19.224  0.00  0.00    +0.142 HD
ENDBRANCH   2   7
BRANCH   1  10
ATOM     10  C   UNL     1      35.571 -22.125 -18.754  0.00  0.00    +0.028 C 
BRANCH  10  11
ATOM     11  C   UNL     1      36.768 -21.492 -18.034  0.00  0.00    +0.005 C 
ATOM     12  C   UNL     1      36.925 -22.026 -16.620  0.00  0.00    +0.000 C 
ENDBRANCH  10  11
ENDBRANCH   1  10
TORSDOF 3
ENDMDL
MODEL 2
REMARK VINA RESULT:      -6.4      1.512      4.029
REMARK  Name = 15759
REMARK  3 active torsions:
REMARK  status: ('A' for Active; 'I' for Inactive)
REMARK    1  A    between atoms: C_1  and  C_10
REMARK    2  A    between atoms: C_2  and  N_7
REMARK    3  A    between atoms: C_10  and  C_11
REMARK                            x       y       z     vdW  Elec       q    Type
REMARK                         _______ _______ _______ _____ _____    ______ ____
ROOT
ATOM      1  C   UNL     1      34.838 -19.745 -20.784  0.00  0.00    -0.009 C 
ATOM      2  C   UNL     1      33.782 -20.510 -20.286  0.00  0.00    +0.037 C 
ATOM      3  C   UNL     1      36.153 -20.085 -20.467  0.00  0.00    -0.003 C 
ATOM      4  C   UNL     1      34.042 -21.612 -19.473  0.00  0.00    +0.014 C 
ATOM      5  C   UNL     1      36.413 -21.189 -19.654  0.00  0.00    -0.000 C 
ATOM      6  C   UNL     1      35.357 -21.952 -19.156  0.00  0.00    +0.001 C 
ENDROOT
BRANCH   2   7
ATOM      7  N   UNL     1      32.444 -20.181 -20.596  0.00  0.00    -0.357 N 
ATOM      8  H   UNL     1      32.245 -19.606 -21.370  0.00  0.00    +0.142 HD
ATOM      9  H   UNL     1      31.710 -20.527 -20.037  0.00  0.00    +0.142 HD
ENDBRANCH   2   7
BRANCH   1  10
ATOM     10  C   UNL     1      34.589 -18.559 -21.657  0.00  0.00    +0.028 C 
BRANCH  10  11
ATOM     11  C   UNL     1      35.509 -18.540 -22.884  0.00  0.00    +0.005 C 
ATOM     12  C   UNL     1      34.827 -19.122 -24.111  0.00  0.00    +0.000 C 
ENDBRANCH  10  11
ENDBRANCH   1  10
TORSDOF 3
ENDMDL
MODEL 3
REMARK VINA RESULT:      -6.4      3.209      4.669
REMARK  Name = 15759
REMARK  3 active torsions:
REMARK  status: ('A' for Active; 'I' for Inactive)
REMARK    1  A    between atoms: C_1  and  C_10
REMARK    2  A    between atoms: C_2  and  N_7
REMARK    3  A    between atoms: C_10  and  C_11
REMARK                            x       y       z     vdW  Elec       q    Type
REMARK                         _______ _______ _______ _____ _____    ______ ____
ROOT
ATOM      1  C   UNL     1      34.746 -18.495 -22.540  0.00  0.00    -0.009 C 
ATOM      2  C   UNL     1      34.870 -17.113 -22.390  0.00  0.00    +0.037 C 
ATOM      3  C   UNL     1      34.633 -19.050 -23.815  0.00  0.00    -0.003 C 
ATOM      4  C   UNL     1      34.877 -16.288 -23.515  0.00  0.00    +0.014 C 
ATOM      5  C   UNL     1      34.641 -18.225 -24.939  0.00  0.00    -0.000 C 
ATOM      6  C   UNL     1      34.763 -16.843 -24.789  0.00  0.00    +0.001 C 
ENDROOT
BRANCH   2   7
ATOM      7  N   UNL     1      34.986 -16.533 -21.109  0.00  0.00    -0.357 N 
ATOM      8  H   UNL     1      34.227 -16.040 -20.720  0.00  0.00    +0.142 HD
ATOM      9  H   UNL     1      35.826 -16.621 -20.602  0.00  0.00    +0.142 HD
ENDBRANCH   2   7
BRANCH   1  10
ATOM     10  C   UNL     1      34.735 -19.403 -21.354  0.00  0.00    +0.028 C 
BRANCH  10  11
ATOM     11  C   UNL     1      33.309 -19.753 -20.907  0.00  0.00    +0.005 C 
ATOM     12  C   UNL     1      33.297 -20.878 -19.886  0.00  0.00    +0.000 C 
ENDBRANCH  10  11
ENDBRANCH   1  10
TORSDOF 3
ENDMDL
MODEL 4
REMARK VINA RESULT:      -6.3      2.031      4.515
REMARK  Name = 15759
REMARK  3 active torsions:
REMARK  status: ('A' for Active; 'I' for Inactive)
REMARK    1  A    between atoms: C_1  and  C_10
REMARK    2  A    between atoms: C_2  and  N_7
REMARK    3  A    between atoms: C_10  and  C_11
REMARK                            x       y       z     vdW  Elec       q    Type
REMARK                         _______ _______ _______ _____ _____    ______ ____
ROOT
ATOM      1  C   UNL     1      34.519 -19.953 -20.630  0.00  0.00    -0.009 C 
ATOM      2  C   UNL     1      35.729 -20.382 -20.084  0.00  0.00    +0.037 C 
ATOM      3  C   UNL     1      33.336 -20.621 -20.314  0.00  0.00    -0.003 C 
ATOM      4  C   UNL     1      35.755 -21.480 -19.224  0.00  0.00    +0.014 C 
ATOM      5  C   UNL     1      33.363 -21.718 -19.453  0.00  0.00    -0.000 C 
ATOM      6  C   UNL     1      34.572 -22.148 -18.908  0.00  0.00    +0.001 C 
ENDROOT
BRANCH   2   7
ATOM      7  N   UNL     1      36.937 -19.719 -20.392  0.00  0.00    -0.357 N 
ATOM      8  H   UNL     1      36.917 -18.847 -20.849  0.00  0.00    +0.142 HD
ATOM      9  H   UNL     1      37.799 -20.128 -20.151  0.00  0.00    +0.142 HD
ENDBRANCH   2   7
BRANCH   1  10
ATOM     10  C   UNL     1      34.462 -18.781 -21.555  0.00  0.00    +0.028 C 
BRANCH  10  11
ATOM     11  C   UNL     1      34.628 -19.193 -23.023  0.00  0.00    +0.005 C 
ATOM     12  C   UNL     1      35.125 -18.041 -23.881  0.00  0.00    +0.000 C 
ENDBRANCH  10  11
ENDBRANCH   1  10
TORSDOF 3
ENDMDL
MODEL 5
REMARK VINA RESULT:      -6.2      1.763      2.289
REMARK  Name = 15759
REMARK  3 active torsions:
REMARK  status: ('A' for Active; 'I' for Inactive)
REMARK    1  A    between atoms: C_1  and  C_10
REMARK    2  A    between atoms: C_2  and  N_7
REMARK    3  A    between atoms: C_10  and  C_11
REMARK                            x       y       z     vdW  Elec       q    Type
REMARK                         _______ _______ _______ _____ _____    ______ ____
ROOT
ATOM      1  C   UNL     1      35.268 -20.913 -19.713  0.00  0.00    -0.009 C 
ATOM      2  C   UNL     1      35.323 -19.788 -20.538  0.00  0.00    +0.037 C 
ATOM      3  C   UNL     1      34.044 -21.533 -19.462  0.00  0.00    -0.003 C 
ATOM      4  C   UNL     1      34.155 -19.285 -21.110  0.00  0.00    +0.014 C 
ATOM      5  C   UNL     1      32.875 -21.030 -20.036  0.00  0.00    -0.000 C 
ATOM      6  C   UNL     1      32.931 -19.905 -20.859  0.00  0.00    +0.001 C 
ENDROOT
BRANCH   2   7
ATOM      7  N   UNL     1      36.552 -19.147 -20.803  0.00  0.00    -0.357 N 
ATOM      8  H   UNL     1      36.797 -18.913 -21.728  0.00  0.00    +0.142 HD
ATOM      9  H   UNL     1      37.166 -18.933 -20.063  0.00  0.00    +0.142 HD
ENDBRANCH   2   7
BRANCH   1  10
ATOM     10  C   UNL     1      36.503 -21.473 -19.087  0.00  0.00    +0.028 C 
BRANCH  10  11
ATOM     11  C   UNL     1      36.239 -22.024 -17.680  0.00  0.00    +0.005 C 
ATOM     12  C   UNL     1      37.289 -21.561 -16.684  0.00  0.00    +0.000 C 
ENDBRANCH  10  11
ENDBRANCH   1  10
TORSDOF 3
ENDMDL
MODEL 6
REMARK VINA RESULT:      -6.2     10.956     12.522
REMARK  Name = 15759
REMARK  3 active torsions:
REMARK  status: ('A' for Active; 'I' for Inactive)
REMARK    1  A    between atoms: C_1  and  C_10
REMARK    2  A    between atoms: C_2  and  N_7
REMARK    3  A    between atoms: C_10  and  C_11
REMARK                            x       y       z     vdW  Elec       q    Type
REMARK                         _______ _______ _______ _____ _____    ______ ____
ROOT
ATOM      1  C   UNL     1      32.045  -9.202 -21.597  0.00  0.00    -0.009 C 
ATOM      2  C   UNL     1      32.265  -8.988 -20.235  0.00  0.00    +0.037 C 
ATOM      3  C   UNL     1      31.408 -10.366 -22.025  0.00  0.00    -0.003 C 
ATOM      4  C   UNL     1      31.849  -9.940 -19.304  0.00  0.00    +0.014 C 
ATOM      5  C   UNL     1      30.991 -11.317 -21.093  0.00  0.00    -0.000 C 
ATOM      6  C   UNL     1      31.212 -11.104 -19.732  0.00  0.00    +0.001 C 
ENDROOT
BRANCH   2   7
ATOM      7  N   UNL     1      32.908  -7.815 -19.783  0.00  0.00    -0.357 N 
ATOM      8  H   UNL     1      33.891  -7.767 -19.769  0.00  0.00    +0.142 HD
ATOM      9  H   UNL     1      32.373  -7.045 -19.482  0.00  0.00    +0.142 HD
ENDBRANCH   2   7
BRANCH   1  10
ATOM     10  C   UNL     1      32.480  -8.200 -22.616  0.00  0.00    +0.028 C 
BRANCH  10  11
ATOM     11  C   UNL     1      33.725  -8.661 -23.385  0.00  0.00    +0.005 C 
ATOM     12  C   UNL     1      34.787  -7.575 -23.443  0.00  0.00    +0.000 C 
ENDBRANCH  10  11
ENDBRANCH   1  10
TORSDOF 3
ENDMDL
MODEL 7
REMARK VINA RESULT:      -6.1      3.842      5.159
REMARK  Name = 15759
REMARK  3 active torsions:
REMARK  status: ('A' for Active; 'I' for Inactive)
REMARK    1  A    between atoms: C_1  and  C_10
REMARK    2  A    between atoms: C_2  and  N_7
REMARK    3  A    between atoms: C_10  and  C_11
REMARK                            x       y       z     vdW  Elec       q    Type
REMARK                         _______ _______ _______ _____ _____    ______ ____
ROOT
ATOM      1  C   UNL     1      35.016 -17.076 -21.648  0.00  0.00    -0.009 C 
ATOM      2  C   UNL     1      35.050 -16.684 -22.987  0.00  0.00    +0.037 C 
ATOM      3  C   UNL     1      34.653 -16.158 -20.663  0.00  0.00    -0.003 C 
ATOM      4  C   UNL     1      34.723 -15.375 -23.339  0.00  0.00    +0.014 C 
ATOM      5  C   UNL     1      34.325 -14.848 -21.015  0.00  0.00    -0.000 C 
ATOM      6  C   UNL     1      34.360 -14.457 -22.353  0.00  0.00    +0.001 C 
ENDROOT
BRANCH   2   7
ATOM      7  N   UNL     1      35.415 -17.599 -23.998  0.00  0.00    -0.357 N 
ATOM      8  H   UNL     1      34.770 -17.837 -24.703  0.00  0.00    +0.142 HD
ATOM      9  H   UNL     1      36.315 -18.000 -23.999  0.00  0.00    +0.142 HD
ENDBRANCH   2   7
BRANCH   1  10
ATOM     10  C   UNL     1      35.363 -18.471 -21.242  0.00  0.00    +0.028 C 
BRANCH  10  11
ATOM     11  C   UNL     1      34.117 -19.349 -21.067  0.00  0.00    +0.005 C 
ATOM     12  C   UNL     1      34.401 -20.570 -20.208  0.00  0.00    +0.000 C 
ENDBRANCH  10  11
ENDBRANCH   1  10
TORSDOF 3
ENDMDL
MODEL 8
REMARK VINA RESULT:      -6.0      1.681      2.365
REMARK  Name = 15759
REMARK  3 active torsions:
REMARK  status: ('A' for Active; 'I' for Inactive)
REMARK    1  A    between atoms: C_1  and  C_10
REMARK    2  A    between atoms: C_2  and  N_7
REMARK    3  A    between atoms: C_10  and  C_11
REMARK                            x       y       z     vdW  Elec       q    Type
REMARK                         _______ _______ _______ _____ _____    ______ ____
ROOT
ATOM      1  C   UNL     1      34.426 -21.270 -19.730  0.00  0.00    -0.009 C 
ATOM      2  C   UNL     1      33.885 -20.241 -20.503  0.00  0.00    +0.037 C 
ATOM      3  C   UNL     1      35.805 -21.338 -19.529  0.00  0.00    -0.003 C 
ATOM      4  C   UNL     1      34.722 -19.284 -21.074  0.00  0.00    +0.014 C 
ATOM      5  C   UNL     1      36.642 -20.379 -20.099  0.00  0.00    -0.000 C 
ATOM      6  C   UNL     1      36.101 -19.352 -20.872  0.00  0.00    +0.001 C 
ENDROOT
BRANCH   2   7
ATOM      7  N   UNL     1      32.492 -20.156 -20.718  0.00  0.00    -0.357 N 
ATOM      8  H   UNL     1      32.095 -19.318 -21.048  0.00  0.00    +0.142 HD
ATOM      9  H   UNL     1      31.917 -20.936 -20.537  0.00  0.00    +0.142 HD
ENDBRANCH   2   7
BRANCH   1  10
ATOM     10  C   UNL     1      33.554 -22.310 -19.107  0.00  0.00    +0.028 C 
BRANCH  10  11
ATOM     11  C   UNL     1      34.111 -22.807 -17.767  0.00  0.00    +0.005 C 
ATOM     12  C   UNL     1      33.009 -23.295 -16.842  0.00  0.00    +0.000 C 
ENDBRANCH  10  11
ENDBRANCH   1  10
TORSDOF 3
ENDMDL
MODEL 9
REMARK VINA RESULT:      -6.0      4.496      6.165
REMARK  Name = 15759
REMARK  3 active torsions:
REMARK  status: ('A' for Active; 'I' for Inactive)
REMARK    1  A    between atoms: C_1  and  C_10
REMARK    2  A    between atoms: C_2  and  N_7
REMARK    3  A    between atoms: C_10  and  C_11
REMARK                            x       y       z     vdW  Elec       q    Type
REMARK                         _______ _______ _______ _____ _____    ______ ____
ROOT
ATOM      1  C   UNL     1      34.675 -16.525 -23.094  0.00  0.00    -0.009 C 
ATOM      2  C   UNL     1      35.000 -17.620 -22.292  0.00  0.00    +0.037 C 
ATOM      3  C   UNL     1      34.429 -16.708 -24.455  0.00  0.00    -0.003 C 
ATOM      4  C   UNL     1      35.078 -18.895 -22.851  0.00  0.00    +0.014 C 
ATOM      5  C   UNL     1      34.506 -17.984 -25.013  0.00  0.00    -0.000 C 
ATOM      6  C   UNL     1      34.832 -19.078 -24.212  0.00  0.00    +0.001 C 
ENDROOT
BRANCH   2   7
ATOM      7  N   UNL     1      35.253 -17.455 -20.913  0.00  0.00    -0.357 N 
ATOM      8  H   UNL     1      36.105 -17.064 -20.612  0.00  0.00    +0.142 HD
ATOM      9  H   UNL     1      34.577 -17.730 -20.251  0.00  0.00    +0.142 HD
ENDBRANCH   2   7
BRANCH   1  10
ATOM     10  C   UNL     1      34.585 -15.148 -22.522  0.00  0.00    +0.028 C 
BRANCH  10  11
ATOM     11  C   UNL     1      33.133 -14.714 -22.286  0.00  0.00    +0.005 C 
ATOM     12  C   UNL     1      32.729 -14.862 -20.828  0.00  0.00    +0.000 C 
ENDBRANCH  10  11
ENDBRANCH   1  10
TORSDOF 3
ENDMDL
