MODEL 1
REMARK VINA RESULT:     -12.1      0.000      0.000
REMARK  Name = 9823454
REMARK  7 active torsions:
REMARK  status: ('A' for Active; 'I' for Inactive)
REMARK    1  A    between atoms: C_1  and  C_4
REMARK    2  A    between atoms: C_1  and  N_8
REMARK    3  A    between atoms: C_1  and  C_23
REMARK    4  A    between atoms: N_3  and  O_6
REMARK    5  A    between atoms: N_8  and  S_10
REMARK    6  A    between atoms: S_10  and  C_13
REMARK    7  A    between atoms: C_23  and  C_24
REMARK                            x       y       z     vdW  Elec       q    Type
REMARK                         _______ _______ _______ _____ _____    ______ ____
ROOT
ATOM      1  C   UNL     1      34.576 -24.095 -13.480  0.00  0.00    +0.158 C 
ENDROOT
BRANCH   1   4
ATOM      2  O   UNL     1      35.197 -24.270 -11.151  0.00  0.00    -0.272 OA
ATOM      3  N   UNL     1      36.268 -25.613 -12.693  0.00  0.00    -0.196 N 
ATOM      4  C   UNL     1      35.364 -24.655 -12.307  0.00  0.00    +0.260 C 
ATOM      5  H   UNL     1      36.367 -25.891 -13.633  0.00  0.00    +0.182 HD
BRANCH   3   6
ATOM      6  O   UNL     1      37.043 -26.172 -11.667  0.00  0.00    -0.295 OA
ATOM      7  H   UNL     1      36.949 -27.138 -11.682  0.00  0.00    +0.241 HD
ENDBRANCH   3   6
ENDBRANCH   1   4
BRANCH   1   8
ATOM      8  N   UNL     1      35.465 -23.092 -14.115  0.00  0.00    -0.172 NA
ATOM      9  H   UNL     1      34.869 -22.326 -14.427  0.00  0.00    +0.149 HD
BRANCH   8  10
ATOM     10  S   UNL     1      36.429 -23.537 -15.440  0.00  0.00    +0.061 S 
ATOM     11  O   UNL     1      36.419 -24.980 -15.582  0.00  0.00    -0.153 OA
ATOM     12  O   UNL     1      37.688 -22.820 -15.362  0.00  0.00    -0.153 OA
BRANCH  10  13
ATOM     13  C   UNL     1      35.527 -22.849 -16.794  0.00  0.00    +0.122 C 
ATOM     14  C   UNL     1      36.191 -22.057 -17.716  0.00  0.00    +0.020 C 
ATOM     15  C   UNL     1      35.488 -21.502 -18.798  0.00  0.00    +0.001 C 
ATOM     16  C   UNL     1      34.177 -23.114 -16.910  0.00  0.00    +0.020 C 
ATOM     17  C   UNL     1      34.104 -21.764 -18.931  0.00  0.00    +0.000 C 
ATOM     18  C   UNL     1      33.463 -22.572 -17.979  0.00  0.00    +0.001 C 
ATOM     19  C   UNL     1      36.129 -20.693 -19.750  0.00  0.00    +0.000 C 
ATOM     20  C   UNL     1      33.401 -21.208 -20.013  0.00  0.00    +0.000 C 
ATOM     21  C   UNL     1      35.415 -20.150 -20.819  0.00  0.00    +0.000 C 
ATOM     22  C   UNL     1      34.055 -20.407 -20.950  0.00  0.00    +0.000 C 
ENDBRANCH  10  13
ENDBRANCH   8  10
ENDBRANCH   1   8
BRANCH   1  23
ATOM     23  C   UNL     1      33.280 -23.416 -13.006  0.00  0.00    +0.053 C 
BRANCH  23  24
ATOM     24  C   UNL     1      32.087 -23.782 -13.824  0.00  0.00    -0.020 C 
ATOM     25  C   UNL     1      31.428 -22.807 -14.574  0.00  0.00    -0.004 C 
ATOM     26  C   UNL     1      30.304 -23.135 -15.349  0.00  0.00    -0.000 C 
ATOM     27  C   UNL     1      31.632 -25.097 -13.840  0.00  0.00    -0.004 C 
ATOM     28  C   UNL     1      29.842 -24.473 -15.364  0.00  0.00    -0.000 C 
ATOM     29  C   UNL     1      30.517 -25.442 -14.605  0.00  0.00    -0.000 C 
ATOM     30  C   UNL     1      29.629 -22.166 -16.108  0.00  0.00    -0.000 C 
ATOM     31  C   UNL     1      28.718 -24.802 -16.139  0.00  0.00    -0.000 C 
ATOM     32  C   UNL     1      28.514 -22.511 -16.873  0.00  0.00    -0.000 C 
ATOM     33  C   UNL     1      28.059 -23.825 -16.887  0.00  0.00    -0.000 C 
ENDBRANCH  23  24
ENDBRANCH   1  23
TORSDOF 7
ENDMDL
MODEL 2
REMARK VINA RESULT:     -11.8      8.254     11.439
REMARK  Name = 9823454
REMARK  7 active torsions:
REMARK  status: ('A' for Active; 'I' for Inactive)
REMARK    1  A    between atoms: C_1  and  C_4
REMARK    2  A    between atoms: C_1  and  N_8
REMARK    3  A    between atoms: C_1  and  C_23
REMARK    4  A    between atoms: N_3  and  O_6
REMARK    5  A    between atoms: N_8  and  S_10
REMARK    6  A    between atoms: S_10  and  C_13
REMARK    7  A    between atoms: C_23  and  C_24
REMARK                            x       y       z     vdW  Elec       q    Type
REMARK                         _______ _______ _______ _____ _____    ______ ____
ROOT
ATOM      1  C   UNL     1      34.252 -16.713 -23.399  0.00  0.00    +0.158 C 
ENDROOT
BRANCH   1   4
ATOM      2  O   UNL     1      34.645 -17.523 -25.642  0.00  0.00    -0.272 OA
ATOM      3  N   UNL     1      33.587 -15.491 -25.362  0.00  0.00    -0.196 N 
ATOM      4  C   UNL     1      34.190 -16.641 -24.916  0.00  0.00    +0.260 C 
ATOM      5  H   UNL     1      33.236 -14.810 -24.743  0.00  0.00    +0.182 HD
BRANCH   3   6
ATOM      6  O   UNL     1      33.500 -15.345 -26.754  0.00  0.00    -0.295 OA
ATOM      7  H   UNL     1      34.021 -14.576 -27.031  0.00  0.00    +0.241 HD
ENDBRANCH   3   6
ENDBRANCH   1   4
BRANCH   1   8
ATOM      8  N   UNL     1      33.966 -15.338 -22.923  0.00  0.00    -0.172 NA
ATOM      9  H   UNL     1      34.856 -14.840 -22.907  0.00  0.00    +0.149 HD
BRANCH   8  10
ATOM     10  S   UNL     1      33.244 -15.103 -21.405  0.00  0.00    +0.061 S 
ATOM     11  O   UNL     1      34.258 -15.183 -20.370  0.00  0.00    -0.153 OA
ATOM     12  O   UNL     1      32.051 -15.925 -21.323  0.00  0.00    -0.153 OA
BRANCH  10  13
ATOM     13  C   UNL     1      32.706 -13.423 -21.513  0.00  0.00    +0.122 C 
ATOM     14  C   UNL     1      33.056 -12.672 -22.622  0.00  0.00    +0.020 C 
ATOM     15  C   UNL     1      32.637 -11.335 -22.723  0.00  0.00    +0.001 C 
ATOM     16  C   UNL     1      31.947 -12.891 -20.489  0.00  0.00    +0.020 C 
ATOM     17  C   UNL     1      31.858 -10.773 -21.683  0.00  0.00    +0.000 C 
ATOM     18  C   UNL     1      31.522 -11.564 -20.573  0.00  0.00    +0.001 C 
ATOM     19  C   UNL     1      32.974 -10.543 -23.833  0.00  0.00    +0.000 C 
ATOM     20  C   UNL     1      31.440  -9.436 -21.783  0.00  0.00    +0.000 C 
ATOM     21  C   UNL     1      32.550  -9.217 -23.916  0.00  0.00    +0.000 C 
ATOM     22  C   UNL     1      31.784  -8.665 -22.894  0.00  0.00    +0.000 C 
ENDBRANCH  10  13
ENDBRANCH   8  10
ENDBRANCH   1   8
BRANCH   1  23
ATOM     23  C   UNL     1      35.646 -17.151 -22.919  0.00  0.00    +0.053 C 
BRANCH  23  24
ATOM     24  C   UNL     1      35.610 -18.302 -21.972  0.00  0.00    -0.020 C 
ATOM     25  C   UNL     1      34.387 -18.849 -21.582  0.00  0.00    -0.004 C 
ATOM     26  C   UNL     1      34.337 -19.933 -20.691  0.00  0.00    -0.000 C 
ATOM     27  C   UNL     1      36.798 -18.831 -21.476  0.00  0.00    -0.004 C 
ATOM     28  C   UNL     1      35.546 -20.470 -20.187  0.00  0.00    -0.000 C 
ATOM     29  C   UNL     1      36.767 -19.908 -20.590  0.00  0.00    -0.000 C 
ATOM     30  C   UNL     1      33.115 -20.494 -20.289  0.00  0.00    -0.000 C 
ATOM     31  C   UNL     1      35.496 -21.554 -19.296  0.00  0.00    -0.000 C 
ATOM     32  C   UNL     1      33.084 -21.572 -19.402  0.00  0.00    -0.000 C 
ATOM     33  C   UNL     1      34.272 -22.099 -18.906  0.00  0.00    -0.000 C 
ENDBRANCH  23  24
ENDBRANCH   1  23
TORSDOF 7
ENDMDL
MODEL 3
REMARK VINA RESULT:     -11.8      1.527      6.051
REMARK  Name = 9823454
REMARK  7 active torsions:
REMARK  status: ('A' for Active; 'I' for Inactive)
REMARK    1  A    between atoms: C_1  and  C_4
REMARK    2  A    between atoms: C_1  and  N_8
REMARK    3  A    between atoms: C_1  and  C_23
REMARK    4  A    between atoms: N_3  and  O_6
REMARK    5  A    between atoms: N_8  and  S_10
REMARK    6  A    between atoms: S_10  and  C_13
REMARK    7  A    between atoms: C_23  and  C_24
REMARK                            x       y       z     vdW  Elec       q    Type
REMARK                         _______ _______ _______ _____ _____    ______ ____
ROOT
ATOM      1  C   UNL     1      35.996 -22.439 -15.595  0.00  0.00    +0.158 C 
ENDROOT
BRANCH   1   4
ATOM      2  O   UNL     1      37.581 -22.743 -13.796  0.00  0.00    -0.272 OA
ATOM      3  N   UNL     1      37.938 -23.845 -15.793  0.00  0.00    -0.196 N 
ATOM      4  C   UNL     1      37.245 -23.014 -14.948  0.00  0.00    +0.260 C 
ATOM      5  H   UNL     1      37.631 -24.034 -16.710  0.00  0.00    +0.182 HD
BRANCH   3   6
ATOM      6  O   UNL     1      39.111 -24.408 -15.272  0.00  0.00    -0.295 OA
ATOM      7  H   UNL     1      39.319 -25.225 -15.753  0.00  0.00    +0.241 HD
ENDBRANCH   3   6
ENDBRANCH   1   4
BRANCH   1   8
ATOM      8  N   UNL     1      34.927 -22.560 -14.574  0.00  0.00    -0.172 NA
ATOM      9  H   UNL     1      35.205 -21.978 -13.785  0.00  0.00    +0.149 HD
BRANCH   8  10
ATOM     10  S   UNL     1      34.529 -24.085 -13.944  0.00  0.00    +0.061 S 
ATOM     11  O   UNL     1      34.662 -24.061 -12.499  0.00  0.00    -0.153 OA
ATOM     12  O   UNL     1      35.208 -25.104 -14.722  0.00  0.00    -0.153 OA
BRANCH  10  13
ATOM     13  C   UNL     1      32.809 -24.202 -14.330  0.00  0.00    +0.122 C 
ATOM     14  C   UNL     1      32.262 -23.327 -15.253  0.00  0.00    +0.020 C 
ATOM     15  C   UNL     1      30.896 -23.406 -15.571  0.00  0.00    +0.001 C 
ATOM     16  C   UNL     1      32.041 -25.164 -13.704  0.00  0.00    +0.020 C 
ATOM     17  C   UNL     1      30.095 -24.386 -14.939  0.00  0.00    +0.000 C 
ATOM     18  C   UNL     1      30.682 -25.258 -14.008  0.00  0.00    +0.001 C 
ATOM     19  C   UNL     1      30.309 -22.534 -16.502  0.00  0.00    +0.000 C 
ATOM     20  C   UNL     1      28.729 -24.465 -15.255  0.00  0.00    +0.000 C 
ATOM     21  C   UNL     1      28.950 -22.626 -16.805  0.00  0.00    +0.000 C 
ATOM     22  C   UNL     1      28.162 -23.590 -16.184  0.00  0.00    +0.000 C 
ENDBRANCH  10  13
ENDBRANCH   8  10
ENDBRANCH   1   8
BRANCH   1  23
ATOM     23  C   UNL     1      35.606 -23.231 -16.854  0.00  0.00    +0.053 C 
BRANCH  23  24
ATOM     24  C   UNL     1      35.119 -22.368 -17.969  0.00  0.00    -0.020 C 
ATOM     25  C   UNL     1      36.017 -21.570 -18.678  0.00  0.00    -0.004 C 
ATOM     26  C   UNL     1      35.574 -20.752 -19.730  0.00  0.00    -0.000 C 
ATOM     27  C   UNL     1      33.768 -22.360 -18.302  0.00  0.00    -0.004 C 
ATOM     28  C   UNL     1      34.199 -20.744 -20.068  0.00  0.00    -0.000 C 
ATOM     29  C   UNL     1      33.310 -21.554 -19.344  0.00  0.00    -0.000 C 
ATOM     30  C   UNL     1      36.464 -19.942 -20.453  0.00  0.00    -0.000 C 
ATOM     31  C   UNL     1      33.756 -19.927 -21.120  0.00  0.00    -0.000 C 
ATOM     32  C   UNL     1      36.006 -19.136 -21.496  0.00  0.00    -0.000 C 
ATOM     33  C   UNL     1      34.655 -19.128 -21.828  0.00  0.00    -0.000 C 
ENDBRANCH  23  24
ENDBRANCH   1  23
TORSDOF 7
ENDMDL
MODEL 4
REMARK VINA RESULT:     -11.2      9.350     12.595
REMARK  Name = 9823454
REMARK  7 active torsions:
REMARK  status: ('A' for Active; 'I' for Inactive)
REMARK    1  A    between atoms: C_1  and  C_4
REMARK    2  A    between atoms: C_1  and  N_8
REMARK    3  A    between atoms: C_1  and  C_23
REMARK    4  A    between atoms: N_3  and  O_6
REMARK    5  A    between atoms: N_8  and  S_10
REMARK    6  A    between atoms: S_10  and  C_13
REMARK    7  A    between atoms: C_23  and  C_24
REMARK                            x       y       z     vdW  Elec       q    Type
REMARK                         _______ _______ _______ _____ _____    ______ ____
ROOT
ATOM      1  C   UNL     1      34.196 -15.891 -23.604  0.00  0.00    +0.158 C 
ENDROOT
BRANCH   1   4
ATOM      2  O   UNL     1      34.884 -16.882 -25.698  0.00  0.00    -0.272 OA
ATOM      3  N   UNL     1      33.421 -15.096 -25.738  0.00  0.00    -0.196 N 
ATOM      4  C   UNL     1      34.216 -16.028 -25.117  0.00  0.00    +0.260 C 
ATOM      5  H   UNL     1      32.902 -14.429 -25.232  0.00  0.00    +0.182 HD
BRANCH   3   6
ATOM      6  O   UNL     1      33.395 -15.150 -27.139  0.00  0.00    -0.295 OA
ATOM      7  H   UNL     1      33.155 -16.046 -27.422  0.00  0.00    +0.241 HD
ENDBRANCH   3   6
ENDBRANCH   1   4
BRANCH   1   8
ATOM      8  N   UNL     1      34.250 -14.434 -23.334  0.00  0.00    -0.172 NA
ATOM      9  H   UNL     1      34.930 -14.297 -22.588  0.00  0.00    +0.149 HD
BRANCH   8  10
ATOM     10  S   UNL     1      32.840 -13.607 -22.873  0.00  0.00    +0.061 S 
ATOM     11  O   UNL     1      32.673 -13.703 -21.435  0.00  0.00    -0.153 OA
ATOM     12  O   UNL     1      31.760 -13.994 -23.761  0.00  0.00    -0.153 OA
BRANCH  10  13
ATOM     13  C   UNL     1      33.254 -11.935 -23.264  0.00  0.00    +0.122 C 
ATOM     14  C   UNL     1      32.604 -10.906 -22.605  0.00  0.00    +0.020 C 
ATOM     15  C   UNL     1      32.921  -9.570 -22.904  0.00  0.00    +0.001 C 
ATOM     16  C   UNL     1      34.219 -11.685 -24.220  0.00  0.00    +0.020 C 
ATOM     17  C   UNL     1      33.908  -9.296 -23.881  0.00  0.00    +0.000 C 
ATOM     18  C   UNL     1      34.548 -10.364 -24.529  0.00  0.00    +0.001 C 
ATOM     19  C   UNL     1      32.281  -8.502 -22.255  0.00  0.00    +0.000 C 
ATOM     20  C   UNL     1      34.224  -7.961 -24.181  0.00  0.00    +0.000 C 
ATOM     21  C   UNL     1      32.608  -7.182 -22.566  0.00  0.00    +0.000 C 
ATOM     22  C   UNL     1      33.578  -6.912 -23.526  0.00  0.00    +0.000 C 
ENDBRANCH  10  13
ENDBRANCH   8  10
ENDBRANCH   1   8
BRANCH   1  23
ATOM     23  C   UNL     1      35.412 -16.584 -22.966  0.00  0.00    +0.053 C 
BRANCH  23  24
ATOM     24  C   UNL     1      35.049 -17.764 -22.129  0.00  0.00    -0.020 C 
ATOM     25  C   UNL     1      36.050 -18.532 -21.533  0.00  0.00    -0.004 C 
ATOM     26  C   UNL     1      35.724 -19.646 -20.742  0.00  0.00    -0.000 C 
ATOM     27  C   UNL     1      33.711 -18.099 -21.942  0.00  0.00    -0.004 C 
ATOM     28  C   UNL     1      34.363 -19.985 -20.553  0.00  0.00    -0.000 C 
ATOM     29  C   UNL     1      33.369 -19.201 -21.159  0.00  0.00    -0.000 C 
ATOM     30  C   UNL     1      36.719 -20.429 -20.136  0.00  0.00    -0.000 C 
ATOM     31  C   UNL     1      34.038 -21.099 -19.761  0.00  0.00    -0.000 C 
ATOM     32  C   UNL     1      36.377 -21.533 -19.352  0.00  0.00    -0.000 C 
ATOM     33  C   UNL     1      35.040 -21.867 -19.167  0.00  0.00    -0.000 C 
ENDBRANCH  23  24
ENDBRANCH   1  23
TORSDOF 7
ENDMDL
MODEL 5
REMARK VINA RESULT:     -11.0      1.148      1.918
REMARK  Name = 9823454
REMARK  7 active torsions:
REMARK  status: ('A' for Active; 'I' for Inactive)
REMARK    1  A    between atoms: C_1  and  C_4
REMARK    2  A    between atoms: C_1  and  N_8
REMARK    3  A    between atoms: C_1  and  C_23
REMARK    4  A    between atoms: N_3  and  O_6
REMARK    5  A    between atoms: N_8  and  S_10
REMARK    6  A    between atoms: S_10  and  C_13
REMARK    7  A    between atoms: C_23  and  C_24
REMARK                            x       y       z     vdW  Elec       q    Type
REMARK                         _______ _______ _______ _____ _____    ______ ____
ROOT
ATOM      1  C   UNL     1      35.056 -24.976 -13.196  0.00  0.00    +0.158 C 
ENDROOT
BRANCH   1   4
ATOM      2  O   UNL     1      36.793 -25.881 -11.780  0.00  0.00    -0.272 OA
ATOM      3  N   UNL     1      35.682 -23.974 -11.100  0.00  0.00    -0.196 N 
ATOM      4  C   UNL     1      35.945 -25.009 -11.964  0.00  0.00    +0.260 C 
ATOM      5  H   UNL     1      34.992 -23.297 -11.289  0.00  0.00    +0.182 HD
BRANCH   3   6
ATOM      6  O   UNL     1      36.456 -23.941  -9.932  0.00  0.00    -0.295 OA
ATOM      7  H   UNL     1      35.895 -23.695  -9.179  0.00  0.00    +0.241 HD
ENDBRANCH   3   6
ENDBRANCH   1   4
BRANCH   1   8
ATOM      8  N   UNL     1      35.981 -24.950 -14.354  0.00  0.00    -0.172 NA
ATOM      9  H   UNL     1      36.496 -25.830 -14.340  0.00  0.00    +0.149 HD
BRANCH   8  10
ATOM     10  S   UNL     1      37.132 -23.709 -14.490  0.00  0.00    +0.061 S 
ATOM     11  O   UNL     1      38.443 -24.289 -14.714  0.00  0.00    -0.153 OA
ATOM     12  O   UNL     1      36.928 -22.763 -13.409  0.00  0.00    -0.153 OA
BRANCH  10  13
ATOM     13  C   UNL     1      36.629 -22.906 -15.981  0.00  0.00    +0.122 C 
ATOM     14  C   UNL     1      35.359 -23.141 -16.480  0.00  0.00    +0.020 C 
ATOM     15  C   UNL     1      34.944 -22.510 -17.664  0.00  0.00    +0.001 C 
ATOM     16  C   UNL     1      37.512 -22.059 -16.621  0.00  0.00    +0.020 C 
ATOM     17  C   UNL     1      35.837 -21.639 -18.333  0.00  0.00    +0.000 C 
ATOM     18  C   UNL     1      37.116 -21.423 -17.799  0.00  0.00    +0.001 C 
ATOM     19  C   UNL     1      33.664 -22.726 -18.199  0.00  0.00    +0.000 C 
ATOM     20  C   UNL     1      35.422 -21.009 -19.519  0.00  0.00    +0.000 C 
ATOM     21  C   UNL     1      33.268 -22.092 -19.378  0.00  0.00    +0.000 C 
ATOM     22  C   UNL     1      34.145 -21.235 -20.035  0.00  0.00    +0.000 C 
ENDBRANCH  10  13
ENDBRANCH   8  10
ENDBRANCH   1   8
BRANCH   1  23
ATOM     23  C   UNL     1      34.170 -23.719 -13.210  0.00  0.00    +0.053 C 
BRANCH  23  24
ATOM     24  C   UNL     1      32.808 -23.961 -13.768  0.00  0.00    -0.020 C 
ATOM     25  C   UNL     1      32.298 -23.119 -14.757  0.00  0.00    -0.004 C 
ATOM     26  C   UNL     1      31.018 -23.334 -15.293  0.00  0.00    -0.000 C 
ATOM     27  C   UNL     1      32.046 -25.028 -13.302  0.00  0.00    -0.004 C 
ATOM     28  C   UNL     1      30.244 -24.420 -14.818  0.00  0.00    -0.000 C 
ATOM     29  C   UNL     1      30.772 -25.257 -13.823  0.00  0.00    -0.000 C 
ATOM     30  C   UNL     1      30.491 -22.496 -16.287  0.00  0.00    -0.000 C 
ATOM     31  C   UNL     1      28.963 -24.635 -15.354  0.00  0.00    -0.000 C 
ATOM     32  C   UNL     1      29.216 -22.725 -16.809  0.00  0.00    -0.000 C 
ATOM     33  C   UNL     1      28.454 -23.791 -16.342  0.00  0.00    -0.000 C 
ENDBRANCH  23  24
ENDBRANCH   1  23
TORSDOF 7
ENDMDL
MODEL 6
REMARK VINA RESULT:     -11.0      9.173     13.159
REMARK  Name = 9823454
REMARK  7 active torsions:
REMARK  status: ('A' for Active; 'I' for Inactive)
REMARK    1  A    between atoms: C_1  and  C_4
REMARK    2  A    between atoms: C_1  and  N_8
REMARK    3  A    between atoms: C_1  and  C_23
REMARK    4  A    between atoms: N_3  and  O_6
REMARK    5  A    between atoms: N_8  and  S_10
REMARK    6  A    between atoms: S_10  and  C_13
REMARK    7  A    between atoms: C_23  and  C_24
REMARK                            x       y       z     vdW  Elec       q    Type
REMARK                         _______ _______ _______ _____ _____    ______ ____
ROOT
ATOM      1  C   UNL     1      33.648 -14.371 -24.112  0.00  0.00    +0.158 C 
ENDROOT
BRANCH   1   4
ATOM      2  O   UNL     1      33.595 -15.908 -25.977  0.00  0.00    -0.272 OA
ATOM      3  N   UNL     1      33.541 -13.639 -26.402  0.00  0.00    -0.196 N 
ATOM      4  C   UNL     1      33.589 -14.742 -25.585  0.00  0.00    +0.260 C 
ATOM      5  H   UNL     1      33.538 -12.722 -26.044  0.00  0.00    +0.182 HD
BRANCH   3   6
ATOM      6  O   UNL     1      33.495 -13.900 -27.779  0.00  0.00    -0.295 OA
ATOM      7  H   UNL     1      34.334 -13.632 -28.186  0.00  0.00    +0.241 HD
ENDBRANCH   3   6
ENDBRANCH   1   4
BRANCH   1   8
ATOM      8  N   UNL     1      33.837 -15.649 -23.386  0.00  0.00    -0.172 NA
ATOM      9  H   UNL     1      33.180 -16.317 -23.789  0.00  0.00    +0.149 HD
BRANCH   8  10
ATOM     10  S   UNL     1      33.625 -15.705 -21.702  0.00  0.00    +0.061 S 
ATOM     11  O   UNL     1      32.207 -15.714 -21.395  0.00  0.00    -0.153 OA
ATOM     12  O   UNL     1      34.498 -14.722 -21.089  0.00  0.00    -0.153 OA
BRANCH  10  13
ATOM     13  C   UNL     1      34.279 -17.296 -21.304  0.00  0.00    +0.122 C 
ATOM     14  C   UNL     1      33.428 -18.277 -20.825  0.00  0.00    +0.020 C 
ATOM     15  C   UNL     1      33.933 -19.548 -20.503  0.00  0.00    +0.001 C 
ATOM     16  C   UNL     1      35.629 -17.533 -21.478  0.00  0.00    +0.020 C 
ATOM     17  C   UNL     1      35.314 -19.808 -20.676  0.00  0.00    +0.000 C 
ATOM     18  C   UNL     1      36.148 -18.790 -21.164  0.00  0.00    +0.001 C 
ATOM     19  C   UNL     1      33.098 -20.566 -20.015  0.00  0.00    +0.000 C 
ATOM     20  C   UNL     1      35.819 -21.078 -20.353  0.00  0.00    +0.000 C 
ATOM     21  C   UNL     1      33.617 -21.822 -19.700  0.00  0.00    +0.000 C 
ATOM     22  C   UNL     1      34.974 -22.077 -19.869  0.00  0.00    +0.000 C 
ENDBRANCH  10  13
ENDBRANCH   8  10
ENDBRANCH   1   8
BRANCH   1  23
ATOM     23  C   UNL     1      32.342 -13.700 -23.655  0.00  0.00    +0.053 C 
BRANCH  23  24
ATOM     24  C   UNL     1      32.510 -12.264 -23.289  0.00  0.00    -0.020 C 
ATOM     25  C   UNL     1      33.498 -11.497 -23.908  0.00  0.00    -0.004 C 
ATOM     26  C   UNL     1      33.669 -10.143 -23.574  0.00  0.00    -0.000 C 
ATOM     27  C   UNL     1      31.682 -11.690 -22.329  0.00  0.00    -0.004 C 
ATOM     28  C   UNL     1      32.826  -9.560 -22.598  0.00  0.00    -0.000 C 
ATOM     29  C   UNL     1      31.838 -10.347 -21.986  0.00  0.00    -0.000 C 
ATOM     30  C   UNL     1      34.658  -9.358 -24.187  0.00  0.00    -0.000 C 
ATOM     31  C   UNL     1      32.997  -8.207 -22.264  0.00  0.00    -0.000 C 
ATOM     32  C   UNL     1      34.814  -8.014 -23.843  0.00  0.00    -0.000 C 
ATOM     33  C   UNL     1      33.986  -7.441 -22.883  0.00  0.00    -0.000 C 
ENDBRANCH  23  24
ENDBRANCH   1  23
TORSDOF 7
ENDMDL
MODEL 7
REMARK VINA RESULT:     -11.0      9.042     12.513
REMARK  Name = 9823454
REMARK  7 active torsions:
REMARK  status: ('A' for Active; 'I' for Inactive)
REMARK    1  A    between atoms: C_1  and  C_4
REMARK    2  A    between atoms: C_1  and  N_8
REMARK    3  A    between atoms: C_1  and  C_23
REMARK    4  A    between atoms: N_3  and  O_6
REMARK    5  A    between atoms: N_8  and  S_10
REMARK    6  A    between atoms: S_10  and  C_13
REMARK    7  A    between atoms: C_23  and  C_24
REMARK                            x       y       z     vdW  Elec       q    Type
REMARK                         _______ _______ _______ _____ _____    ______ ____
ROOT
ATOM      1  C   UNL     1      33.190 -13.933 -22.969  0.00  0.00    +0.158 C 
ENDROOT
BRANCH   1   4
ATOM      2  O   UNL     1      33.502 -12.928 -25.144  0.00  0.00    -0.272 OA
ATOM      3  N   UNL     1      33.429 -15.230 -24.982  0.00  0.00    -0.196 N 
ATOM      4  C   UNL     1      33.393 -13.954 -24.475  0.00  0.00    +0.260 C 
ATOM      5  H   UNL     1      33.337 -16.024 -24.407  0.00  0.00    +0.182 HD
BRANCH   3   6
ATOM      6  O   UNL     1      33.603 -15.332 -26.369  0.00  0.00    -0.295 OA
ATOM      7  H   UNL     1      33.811 -14.458 -26.734  0.00  0.00    +0.241 HD
ENDBRANCH   3   6
ENDBRANCH   1   4
BRANCH   1   8
ATOM      8  N   UNL     1      33.289 -15.347 -22.534  0.00  0.00    -0.172 NA
ATOM      9  H   UNL     1      32.588 -15.482 -21.806  0.00  0.00    +0.149 HD
BRANCH   8  10
ATOM     10  S   UNL     1      34.756 -15.942 -21.919  0.00  0.00    +0.061 S 
ATOM     11  O   UNL     1      35.164 -15.138 -20.782  0.00  0.00    -0.153 OA
ATOM     12  O   UNL     1      35.671 -16.161 -23.023  0.00  0.00    -0.153 OA
BRANCH  10  13
ATOM     13  C   UNL     1      34.281 -17.534 -21.318  0.00  0.00    +0.122 C 
ATOM     14  C   UNL     1      35.262 -18.460 -21.007  0.00  0.00    +0.020 C 
ATOM     15  C   UNL     1      34.901 -19.730 -20.530  0.00  0.00    +0.001 C 
ATOM     16  C   UNL     1      32.939 -17.826 -21.169  0.00  0.00    +0.020 C 
ATOM     17  C   UNL     1      33.531 -20.046 -20.371  0.00  0.00    +0.000 C 
ATOM     18  C   UNL     1      32.563 -19.083 -20.695  0.00  0.00    +0.001 C 
ATOM     19  C   UNL     1      35.871 -20.694 -20.206  0.00  0.00    +0.000 C 
ATOM     20  C   UNL     1      33.170 -21.317 -19.894  0.00  0.00    +0.000 C 
ATOM     21  C   UNL     1      35.494 -21.951 -19.732  0.00  0.00    +0.000 C 
ATOM     22  C   UNL     1      34.147 -22.262 -19.577  0.00  0.00    +0.000 C 
ENDBRANCH  10  13
ENDBRANCH   8  10
ENDBRANCH   1   8
BRANCH   1  23
ATOM     23  C   UNL     1      31.807 -13.371 -22.601  0.00  0.00    +0.053 C 
BRANCH  23  24
ATOM     24  C   UNL     1      31.871 -12.065 -21.883  0.00  0.00    -0.020 C 
ATOM     25  C   UNL     1      32.168 -10.896 -22.585  0.00  0.00    -0.004 C 
ATOM     26  C   UNL     1      32.232  -9.659 -21.923  0.00  0.00    -0.000 C 
ATOM     27  C   UNL     1      31.635 -12.013 -20.513  0.00  0.00    -0.004 C 
ATOM     28  C   UNL     1      31.991  -9.607 -20.529  0.00  0.00    -0.000 C 
ATOM     29  C   UNL     1      31.693 -10.793 -19.839  0.00  0.00    -0.000 C 
ATOM     30  C   UNL     1      32.530  -8.474 -22.614  0.00  0.00    -0.000 C 
ATOM     31  C   UNL     1      32.055  -8.370 -19.867  0.00  0.00    -0.000 C 
ATOM     32  C   UNL     1      32.589  -7.252 -21.940  0.00  0.00    -0.000 C 
ATOM     33  C   UNL     1      32.353  -7.202 -20.569  0.00  0.00    -0.000 C 
ENDBRANCH  23  24
ENDBRANCH   1  23
TORSDOF 7
ENDMDL
MODEL 8
REMARK VINA RESULT:     -10.9      9.155     12.564
REMARK  Name = 9823454
REMARK  7 active torsions:
REMARK  status: ('A' for Active; 'I' for Inactive)
REMARK    1  A    between atoms: C_1  and  C_4
REMARK    2  A    between atoms: C_1  and  N_8
REMARK    3  A    between atoms: C_1  and  C_23
REMARK    4  A    between atoms: N_3  and  O_6
REMARK    5  A    between atoms: N_8  and  S_10
REMARK    6  A    between atoms: S_10  and  C_13
REMARK    7  A    between atoms: C_23  and  C_24
REMARK                            x       y       z     vdW  Elec       q    Type
REMARK                         _______ _______ _______ _____ _____    ______ ____
ROOT
ATOM      1  C   UNL     1      33.154 -14.139 -22.307  0.00  0.00    +0.158 C 
ENDROOT
BRANCH   1   4
ATOM      2  O   UNL     1      32.320 -14.008 -24.572  0.00  0.00    -0.272 OA
ATOM      3  N   UNL     1      34.130 -12.705 -23.975  0.00  0.00    -0.196 N 
ATOM      4  C   UNL     1      33.137 -13.623 -23.737  0.00  0.00    +0.260 C 
ATOM      5  H   UNL     1      34.764 -12.426 -23.274  0.00  0.00    +0.182 HD
BRANCH   3   6
ATOM      6  O   UNL     1      34.187 -12.189 -25.277  0.00  0.00    -0.295 OA
ATOM      7  H   UNL     1      34.831 -12.694 -25.797  0.00  0.00    +0.241 HD
ENDBRANCH   3   6
ENDBRANCH   1   4
BRANCH   1   8
ATOM      8  N   UNL     1      33.197 -15.617 -22.417  0.00  0.00    -0.172 NA
ATOM      9  H   UNL     1      33.220 -15.983 -21.466  0.00  0.00    +0.149 HD
BRANCH   8  10
ATOM     10  S   UNL     1      34.464 -16.365 -23.264  0.00  0.00    +0.061 S 
ATOM     11  O   UNL     1      35.624 -15.493 -23.266  0.00  0.00    -0.153 OA
ATOM     12  O   UNL     1      33.945 -16.892 -24.512  0.00  0.00    -0.153 OA
BRANCH  10  13
ATOM     13  C   UNL     1      34.826 -17.751 -22.230  0.00  0.00    +0.122 C 
ATOM     14  C   UNL     1      33.781 -18.485 -21.694  0.00  0.00    +0.020 C 
ATOM     15  C   UNL     1      34.052 -19.590 -20.869  0.00  0.00    +0.001 C 
ATOM     16  C   UNL     1      36.143 -18.076 -21.974  0.00  0.00    +0.020 C 
ATOM     17  C   UNL     1      35.397 -19.937 -20.597  0.00  0.00    +0.000 C 
ATOM     18  C   UNL     1      36.430 -19.171 -21.158  0.00  0.00    +0.001 C 
ATOM     19  C   UNL     1      33.017 -20.356 -20.309  0.00  0.00    +0.000 C 
ATOM     20  C   UNL     1      35.667 -21.041 -19.772  0.00  0.00    +0.000 C 
ATOM     21  C   UNL     1      33.304 -21.450 -19.491  0.00  0.00    +0.000 C 
ATOM     22  C   UNL     1      34.626 -21.792 -19.224  0.00  0.00    +0.000 C 
ENDBRANCH  10  13
ENDBRANCH   8  10
ENDBRANCH   1   8
BRANCH   1  23
ATOM     23  C   UNL     1      31.889 -13.710 -21.545  0.00  0.00    +0.053 C 
BRANCH  23  24
ATOM     24  C   UNL     1      31.901 -12.274 -21.139  0.00  0.00    -0.020 C 
ATOM     25  C   UNL     1      31.905 -11.274 -22.112  0.00  0.00    -0.004 C 
ATOM     26  C   UNL     1      31.917  -9.918 -21.745  0.00  0.00    -0.000 C 
ATOM     27  C   UNL     1      31.907 -11.934 -19.790  0.00  0.00    -0.004 C 
ATOM     28  C   UNL     1      31.923  -9.573 -20.372  0.00  0.00    -0.000 C 
ATOM     29  C   UNL     1      31.918 -10.593 -19.408  0.00  0.00    -0.000 C 
ATOM     30  C   UNL     1      31.922  -8.899 -22.710  0.00  0.00    -0.000 C 
ATOM     31  C   UNL     1      31.935  -8.217 -20.006  0.00  0.00    -0.000 C 
ATOM     32  C   UNL     1      31.933  -7.556 -22.328  0.00  0.00    -0.000 C 
ATOM     33  C   UNL     1      31.940  -7.217 -20.979  0.00  0.00    -0.000 C 
ENDBRANCH  23  24
ENDBRANCH   1  23
TORSDOF 7
ENDMDL
MODEL 9
REMARK VINA RESULT:     -10.8      3.145      5.723
REMARK  Name = 9823454
REMARK  7 active torsions:
REMARK  status: ('A' for Active; 'I' for Inactive)
REMARK    1  A    between atoms: C_1  and  C_4
REMARK    2  A    between atoms: C_1  and  N_8
REMARK    3  A    between atoms: C_1  and  C_23
REMARK    4  A    between atoms: N_3  and  O_6
REMARK    5  A    between atoms: N_8  and  S_10
REMARK    6  A    between atoms: S_10  and  C_13
REMARK    7  A    between atoms: C_23  and  C_24
REMARK                            x       y       z     vdW  Elec       q    Type
REMARK                         _______ _______ _______ _____ _____    ______ ____
ROOT
ATOM      1  C   UNL     1      32.302 -22.950 -16.217  0.00  0.00    +0.158 C 
ENDROOT
BRANCH   1   4
ATOM      2  O   UNL     1      30.390 -22.808 -14.746  0.00  0.00    -0.272 OA
ATOM      3  N   UNL     1      30.096 -22.389 -16.997  0.00  0.00    -0.196 N 
ATOM      4  C   UNL     1      30.838 -22.710 -15.887  0.00  0.00    +0.260 C 
ATOM      5  H   UNL     1      30.498 -22.321 -17.894  0.00  0.00    +0.182 HD
BRANCH   3   6
ATOM      6  O   UNL     1      28.731 -22.162 -16.776  0.00  0.00    -0.295 OA
ATOM      7  H   UNL     1      28.344 -22.931 -16.328  0.00  0.00    +0.241 HD
ENDBRANCH   3   6
ENDBRANCH   1   4
BRANCH   1   8
ATOM      8  N   UNL     1      32.420 -22.742 -17.681  0.00  0.00    -0.172 NA
ATOM      9  H   UNL     1      31.782 -23.402 -18.125  0.00  0.00    +0.149 HD
BRANCH   8  10
ATOM     10  S   UNL     1      33.926 -22.928 -18.442  0.00  0.00    +0.061 S 
ATOM     11  O   UNL     1      33.895 -24.101 -19.296  0.00  0.00    -0.153 OA
ATOM     12  O   UNL     1      34.973 -22.776 -17.449  0.00  0.00    -0.153 OA
BRANCH  10  13
ATOM     13  C   UNL     1      33.989 -21.500 -19.480  0.00  0.00    +0.122 C 
ATOM     14  C   UNL     1      35.219 -21.013 -19.888  0.00  0.00    +0.020 C 
ATOM     15  C   UNL     1      35.286 -19.879 -20.713  0.00  0.00    +0.001 C 
ATOM     16  C   UNL     1      32.809 -20.895 -19.866  0.00  0.00    +0.020 C 
ATOM     17  C   UNL     1      34.086 -19.246 -21.118  0.00  0.00    +0.000 C 
ATOM     18  C   UNL     1      32.856 -19.767 -20.686  0.00  0.00    +0.001 C 
ATOM     19  C   UNL     1      36.517 -19.358 -21.145  0.00  0.00    +0.000 C 
ATOM     20  C   UNL     1      34.153 -18.111 -21.942  0.00  0.00    +0.000 C 
ATOM     21  C   UNL     1      36.564 -18.229 -21.964  0.00  0.00    +0.000 C 
ATOM     22  C   UNL     1      35.385 -17.608 -22.362  0.00  0.00    +0.000 C 
ENDBRANCH  10  13
ENDBRANCH   8  10
ENDBRANCH   1   8
BRANCH   1  23
ATOM     23  C   UNL     1      32.726 -24.384 -15.859  0.00  0.00    +0.053 C 
BRANCH  23  24
ATOM     24  C   UNL     1      33.829 -24.441 -14.856  0.00  0.00    -0.020 C 
ATOM     25  C   UNL     1      35.066 -24.981 -15.209  0.00  0.00    -0.004 C 
ATOM     26  C   UNL     1      36.114 -25.042 -14.276  0.00  0.00    -0.000 C 
ATOM     27  C   UNL     1      33.623 -23.956 -13.568  0.00  0.00    -0.004 C 
ATOM     28  C   UNL     1      35.904 -24.549 -12.966  0.00  0.00    -0.000 C 
ATOM     29  C   UNL     1      34.652 -24.009 -12.628  0.00  0.00    -0.000 C 
ATOM     30  C   UNL     1      37.365 -25.583 -14.614  0.00  0.00    -0.000 C 
ATOM     31  C   UNL     1      36.952 -24.610 -12.033  0.00  0.00    -0.000 C 
ATOM     32  C   UNL     1      38.395 -25.635 -13.674  0.00  0.00    -0.000 C 
ATOM     33  C   UNL     1      38.188 -25.151 -12.386  0.00  0.00    -0.000 C 
ENDBRANCH  23  24
ENDBRANCH   1  23
TORSDOF 7
ENDMDL
