MODEL 1
REMARK VINA RESULT:     -10.9      0.000      0.000
REMARK  Name = 71345
REMARK  7 active torsions:
REMARK  status: ('A' for Active; 'I' for Inactive)
REMARK    1  A    between atoms: C_1  and  C_5
REMARK    2  A    between atoms: C_1  and  C_15
REMARK    3  A    between atoms: C_15  and  O_16
REMARK    4  A    between atoms: O_16  and  C_17
REMARK    5  A    between atoms: C_22  and  C_24
REMARK    6  A    between atoms: C_24  and  O_25
REMARK    7  A    between atoms: O_25  and  C_26
REMARK                            x       y       z     vdW  Elec       q    Type
REMARK                         _______ _______ _______ _____ _____    ______ ____
ROOT
ATOM      1  C   UNL     1      36.174 -21.626 -19.419  0.00  0.00    +0.047 C 
ENDROOT
BRANCH   1   5
ATOM      2  N   UNL     1      34.964 -18.003 -21.411  0.00  0.00    -0.292 N 
ATOM      3  N   UNL     1      35.222 -16.232 -23.007  0.00  0.00    -0.133 NA
ATOM      4  N   UNL     1      34.862 -15.014 -23.493  0.00  0.00    -0.151 NA
ATOM      5  C   UNL     1      35.788 -20.628 -20.507  0.00  0.00    +0.007 C 
ATOM      6  C   UNL     1      34.361 -20.114 -20.294  0.00  0.00    +0.022 C 
ATOM      7  C   UNL     1      36.760 -19.444 -20.532  0.00  0.00    +0.022 C 
ATOM      8  C   UNL     1      33.970 -19.080 -21.350  0.00  0.00    +0.092 C 
ATOM      9  C   UNL     1      36.363 -18.417 -21.591  0.00  0.00    +0.092 C 
ATOM     10  C   UNL     1      34.593 -16.750 -21.912  0.00  0.00    +0.153 C 
ATOM     11  C   UNL     1      33.573 -16.043 -21.275  0.00  0.00    +0.037 C 
ATOM     12  C   UNL     1      33.206 -14.803 -21.770  0.00  0.00    +0.019 C 
ATOM     13  C   UNL     1      33.874 -14.327 -22.879  0.00  0.00    +0.081 C 
ATOM     14  C   UNL     1      33.519 -12.998 -23.451  0.00  0.00    +0.054 C 
ENDBRANCH   1   5
BRANCH   1  15
ATOM     15  C   UNL     1      34.950 -22.245 -18.769  0.00  0.00    +0.205 C 
BRANCH  15  16
ATOM     16  O   UNL     1      35.310 -22.707 -17.474  0.00  0.00    -0.475 OA
BRANCH  16  17
ATOM     17  C   UNL     1      34.286 -23.087 -16.645  0.00  0.00    +0.139 C 
ATOM     18  C   UNL     1      32.984 -23.114 -17.129  0.00  0.00    +0.037 C 
ATOM     19  C   UNL     1      34.561 -23.439 -15.329  0.00  0.00    +0.037 C 
ATOM     20  C   UNL     1      31.942 -23.499 -16.286  0.00  0.00    +0.010 C 
ATOM     21  C   UNL     1      33.519 -23.824 -14.486  0.00  0.00    +0.010 C 
ATOM     22  C   UNL     1      32.210 -23.854 -14.964  0.00  0.00    +0.076 C 
BRANCH  22  24
ATOM     23  O   UNL     1      30.886 -23.743 -12.984  0.00  0.00    -0.245 OA
ATOM     24  C   UNL     1      31.122 -24.255 -14.085  0.00  0.00    +0.341 C 
BRANCH  24  25
ATOM     25  O   UNL     1      30.388 -25.275 -14.628  0.00  0.00    -0.445 OA
BRANCH  25  26
ATOM     26  C   UNL     1      28.969 -25.092 -14.681  0.00  0.00    +0.209 C 
ATOM     27  C   UNL     1      28.619 -24.320 -15.935  0.00  0.00    +0.051 C 
ENDBRANCH  25  26
ENDBRANCH  24  25
ENDBRANCH  22  24
ENDBRANCH  16  17
ENDBRANCH  15  16
ENDBRANCH   1  15
TORSDOF 7
ENDMDL
MODEL 2
REMARK VINA RESULT:     -10.6      6.421     12.849
REMARK  Name = 71345
REMARK  7 active torsions:
REMARK  status: ('A' for Active; 'I' for Inactive)
REMARK    1  A    between atoms: C_1  and  C_5
REMARK    2  A    between atoms: C_1  and  C_15
REMARK    3  A    between atoms: C_15  and  O_16
REMARK    4  A    between atoms: O_16  and  C_17
REMARK    5  A    between atoms: C_22  and  C_24
REMARK    6  A    between atoms: C_24  and  O_25
REMARK    7  A    between atoms: O_25  and  C_26
REMARK                            x       y       z     vdW  Elec       q    Type
REMARK                         _______ _______ _______ _____ _____    ______ ____
ROOT
ATOM      1  C   UNL     1      33.857 -13.760 -24.099  0.00  0.00    +0.047 C 
ENDROOT
BRANCH   1   5
ATOM      2  N   UNL     1      34.261 -17.347 -21.747  0.00  0.00    -0.292 N 
ATOM      3  N   UNL     1      35.497 -19.148 -20.759  0.00  0.00    -0.133 NA
ATOM      4  N   UNL     1      35.536 -20.355 -20.131  0.00  0.00    -0.151 NA
ATOM      5  C   UNL     1      34.312 -14.753 -23.032  0.00  0.00    +0.007 C 
ATOM      6  C   UNL     1      33.133 -15.197 -22.162  0.00  0.00    +0.022 C 
ATOM      7  C   UNL     1      34.967 -15.981 -23.673  0.00  0.00    +0.022 C 
ATOM      8  C   UNL     1      33.561 -16.224 -21.114  0.00  0.00    +0.092 C 
ATOM      9  C   UNL     1      35.393 -17.001 -22.619  0.00  0.00    +0.092 C 
ATOM     10  C   UNL     1      34.300 -18.588 -21.100  0.00  0.00    +0.153 C 
ATOM     11  C   UNL     1      33.100 -19.239 -20.813  0.00  0.00    +0.037 C 
ATOM     12  C   UNL     1      33.139 -20.466 -20.173  0.00  0.00    +0.019 C 
ATOM     13  C   UNL     1      34.376 -20.987 -19.850  0.00  0.00    +0.081 C 
ATOM     14  C   UNL     1      34.473 -22.305 -19.162  0.00  0.00    +0.054 C 
ENDBRANCH   1   5
BRANCH   1  15
ATOM     15  C   UNL     1      33.166 -12.558 -23.483  0.00  0.00    +0.205 C 
BRANCH  15  16
ATOM     16  O   UNL     1      33.692 -11.379 -24.078  0.00  0.00    -0.475 OA
BRANCH  16  17
ATOM     17  C   UNL     1      33.351 -10.186 -23.495  0.00  0.00    +0.139 C 
ATOM     18  C   UNL     1      32.255 -10.125 -22.644  0.00  0.00    +0.037 C 
ATOM     19  C   UNL     1      34.106  -9.050 -23.763  0.00  0.00    +0.037 C 
ATOM     20  C   UNL     1      31.907  -8.911 -22.051  0.00  0.00    +0.010 C 
ATOM     21  C   UNL     1      33.758  -7.836 -23.171  0.00  0.00    +0.010 C 
ATOM     22  C   UNL     1      32.659  -7.766 -22.315  0.00  0.00    +0.076 C 
BRANCH  22  24
ATOM     23  O   UNL     1      32.067  -6.350 -20.491  0.00  0.00    -0.245 OA
ATOM     24  C   UNL     1      32.296  -6.501 -21.698  0.00  0.00    +0.341 C 
BRANCH  24  25
ATOM     25  O   UNL     1      32.237  -5.490 -22.619  0.00  0.00    -0.445 OA
BRANCH  25  26
ATOM     26  C   UNL     1      30.946  -5.176 -23.152  0.00  0.00    +0.209 C 
ATOM     27  C   UNL     1      31.046  -5.080 -24.659  0.00  0.00    +0.051 C 
ENDBRANCH  25  26
ENDBRANCH  24  25
ENDBRANCH  22  24
ENDBRANCH  16  17
ENDBRANCH  15  16
ENDBRANCH   1  15
TORSDOF 7
ENDMDL
MODEL 3
REMARK VINA RESULT:     -10.3      3.070      3.796
REMARK  Name = 71345
REMARK  7 active torsions:
REMARK  status: ('A' for Active; 'I' for Inactive)
REMARK    1  A    between atoms: C_1  and  C_5
REMARK    2  A    between atoms: C_1  and  C_15
REMARK    3  A    between atoms: C_15  and  O_16
REMARK    4  A    between atoms: O_16  and  C_17
REMARK    5  A    between atoms: C_22  and  C_24
REMARK    6  A    between atoms: C_24  and  O_25
REMARK    7  A    between atoms: O_25  and  C_26
REMARK                            x       y       z     vdW  Elec       q    Type
REMARK                         _______ _______ _______ _____ _____    ______ ____
ROOT
ATOM      1  C   UNL     1      35.514 -22.008 -19.179  0.00  0.00    +0.047 C 
ENDROOT
BRANCH   1   5
ATOM      2  N   UNL     1      34.740 -18.314 -21.255  0.00  0.00    -0.292 N 
ATOM      3  N   UNL     1      35.251 -16.579 -22.830  0.00  0.00    -0.133 NA
ATOM      4  N   UNL     1      35.024 -15.339 -23.342  0.00  0.00    -0.151 NA
ATOM      5  C   UNL     1      35.286 -20.990 -20.293  0.00  0.00    +0.007 C 
ATOM      6  C   UNL     1      33.893 -20.363 -20.181  0.00  0.00    +0.022 C 
ATOM      7  C   UNL     1      36.349 -19.887 -20.250  0.00  0.00    +0.022 C 
ATOM      8  C   UNL     1      33.662 -19.308 -21.264  0.00  0.00    +0.092 C 
ATOM      9  C   UNL     1      36.111 -18.839 -21.336  0.00  0.00    +0.092 C 
ATOM     10  C   UNL     1      34.506 -17.039 -21.782  0.00  0.00    +0.153 C 
ATOM     11  C   UNL     1      33.504 -16.248 -21.219  0.00  0.00    +0.037 C 
ATOM     12  C   UNL     1      33.272 -14.987 -21.740  0.00  0.00    +0.019 C 
ATOM     13  C   UNL     1      34.053 -14.572 -22.799  0.00  0.00    +0.081 C 
ATOM     14  C   UNL     1      33.846 -13.222 -23.396  0.00  0.00    +0.054 C 
ENDBRANCH   1   5
BRANCH   1  15
ATOM     15  C   UNL     1      36.660 -21.598 -18.273  0.00  0.00    +0.205 C 
BRANCH  15  16
ATOM     16  O   UNL     1      36.185 -21.554 -16.934  0.00  0.00    -0.475 OA
BRANCH  16  17
ATOM     17  C   UNL     1      36.433 -22.654 -16.153  0.00  0.00    +0.139 C 
ATOM     18  C   UNL     1      35.377 -23.461 -15.749  0.00  0.00    +0.037 C 
ATOM     19  C   UNL     1      37.737 -22.947 -15.773  0.00  0.00    +0.037 C 
ATOM     20  C   UNL     1      35.629 -24.580 -14.953  0.00  0.00    +0.010 C 
ATOM     21  C   UNL     1      37.989 -24.064 -14.978  0.00  0.00    +0.010 C 
ATOM     22  C   UNL     1      36.936 -24.881 -14.568  0.00  0.00    +0.076 C 
BRANCH  22  24
ATOM     23  O   UNL     1      37.321 -27.200 -14.169  0.00  0.00    -0.245 OA
ATOM     24  C   UNL     1      37.197 -26.046 -13.738  0.00  0.00    +0.341 C 
BRANCH  24  25
ATOM     25  O   UNL     1      37.289 -25.711 -12.414  0.00  0.00    -0.445 OA
BRANCH  25  26
ATOM     26  C   UNL     1      36.206 -24.954 -11.863  0.00  0.00    +0.209 C 
ATOM     27  C   UNL     1      36.750 -23.665 -11.285  0.00  0.00    +0.051 C 
ENDBRANCH  25  26
ENDBRANCH  24  25
ENDBRANCH  22  24
ENDBRANCH  16  17
ENDBRANCH  15  16
ENDBRANCH   1  15
TORSDOF 7
ENDMDL
MODEL 4
REMARK VINA RESULT:     -10.3      4.996     10.229
REMARK  Name = 71345
REMARK  7 active torsions:
REMARK  status: ('A' for Active; 'I' for Inactive)
REMARK    1  A    between atoms: C_1  and  C_5
REMARK    2  A    between atoms: C_1  and  C_15
REMARK    3  A    between atoms: C_15  and  O_16
REMARK    4  A    between atoms: O_16  and  C_17
REMARK    5  A    between atoms: C_22  and  C_24
REMARK    6  A    between atoms: C_24  and  O_25
REMARK    7  A    between atoms: O_25  and  C_26
REMARK                            x       y       z     vdW  Elec       q    Type
REMARK                         _______ _______ _______ _____ _____    ______ ____
ROOT
ATOM      1  C   UNL     1      34.219 -18.968 -21.917  0.00  0.00    +0.047 C 
ENDROOT
BRANCH   1   5
ATOM      2  N   UNL     1      34.976 -21.700 -18.674  0.00  0.00    -0.292 N 
ATOM      3  N   UNL     1      34.450 -23.561 -17.257  0.00  0.00    -0.133 NA
ATOM      4  N   UNL     1      34.674 -24.296 -16.133  0.00  0.00    -0.151 NA
ATOM      5  C   UNL     1      34.435 -20.253 -21.123  0.00  0.00    +0.007 C 
ATOM      6  C   UNL     1      35.831 -20.278 -20.494  0.00  0.00    +0.022 C 
ATOM      7  C   UNL     1      33.376 -20.401 -20.026  0.00  0.00    +0.022 C 
ATOM      8  C   UNL     1      36.051 -21.539 -19.659  0.00  0.00    +0.092 C 
ATOM      9  C   UNL     1      33.603 -21.665 -19.197  0.00  0.00    +0.092 C 
ATOM     10  C   UNL     1      35.207 -22.456 -17.519  0.00  0.00    +0.153 C 
ATOM     11  C   UNL     1      36.219 -22.062 -16.644  0.00  0.00    +0.037 C 
ATOM     12  C   UNL     1      36.448 -22.809 -15.501  0.00  0.00    +0.019 C 
ATOM     13  C   UNL     1      35.654 -23.917 -15.285  0.00  0.00    +0.081 C 
ATOM     14  C   UNL     1      35.857 -24.755 -14.070  0.00  0.00    +0.054 C 
ENDBRANCH   1   5
BRANCH   1  15
ATOM     15  C   UNL     1      35.263 -17.921 -21.579  0.00  0.00    +0.205 C 
BRANCH  15  16
ATOM     16  O   UNL     1      35.227 -16.907 -22.574  0.00  0.00    -0.475 OA
BRANCH  16  17
ATOM     17  C   UNL     1      34.420 -15.826 -22.328  0.00  0.00    +0.139 C 
ATOM     18  C   UNL     1      34.237 -15.388 -21.022  0.00  0.00    +0.037 C 
ATOM     19  C   UNL     1      33.792 -15.181 -23.387  0.00  0.00    +0.037 C 
ATOM     20  C   UNL     1      33.415 -14.289 -20.771  0.00  0.00    +0.010 C 
ATOM     21  C   UNL     1      32.970 -14.083 -23.136  0.00  0.00    +0.010 C 
ATOM     22  C   UNL     1      32.781 -13.636 -21.829  0.00  0.00    +0.076 C 
BRANCH  22  24
ATOM     23  O   UNL     1      31.467 -11.743 -22.439  0.00  0.00    -0.245 OA
ATOM     24  C   UNL     1      31.924 -12.492 -21.566  0.00  0.00    +0.341 C 
BRANCH  24  25
ATOM     25  O   UNL     1      31.684 -12.340 -20.227  0.00  0.00    -0.445 OA
BRANCH  25  26
ATOM     26  C   UNL     1      31.043 -11.127 -19.818  0.00  0.00    +0.209 C 
ATOM     27  C   UNL     1      32.093 -10.163 -19.308  0.00  0.00    +0.051 C 
ENDBRANCH  25  26
ENDBRANCH  24  25
ENDBRANCH  22  24
ENDBRANCH  16  17
ENDBRANCH  15  16
ENDBRANCH   1  15
TORSDOF 7
ENDMDL
MODEL 5
REMARK VINA RESULT:     -10.2      3.948      7.312
REMARK  Name = 71345
REMARK  7 active torsions:
REMARK  status: ('A' for Active; 'I' for Inactive)
REMARK    1  A    between atoms: C_1  and  C_5
REMARK    2  A    between atoms: C_1  and  C_15
REMARK    3  A    between atoms: C_15  and  O_16
REMARK    4  A    between atoms: O_16  and  C_17
REMARK    5  A    between atoms: C_22  and  C_24
REMARK    6  A    between atoms: C_24  and  O_25
REMARK    7  A    between atoms: O_25  and  C_26
REMARK                            x       y       z     vdW  Elec       q    Type
REMARK                         _______ _______ _______ _____ _____    ______ ____
ROOT
ATOM      1  C   UNL     1      33.982 -15.435 -23.553  0.00  0.00    +0.047 C 
ENDROOT
BRANCH   1   5
ATOM      2  N   UNL     1      32.585 -11.419 -22.865  0.00  0.00    -0.292 N 
ATOM      3  N   UNL     1      31.893  -9.229 -23.557  0.00  0.00    -0.133 NA
ATOM      4  N   UNL     1      31.594  -7.934 -23.266  0.00  0.00    -0.151 NA
ATOM      5  C   UNL     1      33.142 -14.162 -23.605  0.00  0.00    +0.007 C 
ATOM      6  C   UNL     1      32.622 -13.794 -22.213  0.00  0.00    +0.022 C 
ATOM      7  C   UNL     1      33.955 -12.995 -24.174  0.00  0.00    +0.022 C 
ATOM      8  C   UNL     1      31.813 -12.497 -22.238  0.00  0.00    +0.092 C 
ATOM      9  C   UNL     1      33.138 -11.704 -24.197  0.00  0.00    +0.092 C 
ATOM     10  C   UNL     1      32.276 -10.087 -22.566  0.00  0.00    +0.153 C 
ATOM     11  C   UNL     1      32.368  -9.652 -21.244  0.00  0.00    +0.037 C 
ATOM     12  C   UNL     1      32.063  -8.335 -20.948  0.00  0.00    +0.019 C 
ATOM     13  C   UNL     1      31.681  -7.511 -21.987  0.00  0.00    +0.081 C 
ATOM     14  C   UNL     1      31.344  -6.084 -21.723  0.00  0.00    +0.054 C 
ENDBRANCH   1   5
BRANCH   1  15
ATOM     15  C   UNL     1      34.166 -15.924 -22.128  0.00  0.00    +0.205 C 
BRANCH  15  16
ATOM     16  O   UNL     1      35.228 -16.868 -22.107  0.00  0.00    -0.475 OA
BRANCH  16  17
ATOM     17  C   UNL     1      34.973 -18.073 -21.504  0.00  0.00    +0.139 C 
ATOM     18  C   UNL     1      36.031 -18.896 -21.138  0.00  0.00    +0.037 C 
ATOM     19  C   UNL     1      33.659 -18.459 -21.268  0.00  0.00    +0.037 C 
ATOM     20  C   UNL     1      35.772 -20.122 -20.525  0.00  0.00    +0.010 C 
ATOM     21  C   UNL     1      33.400 -19.686 -20.656  0.00  0.00    +0.010 C 
ATOM     22  C   UNL     1      34.456 -20.517 -20.284  0.00  0.00    +0.076 C 
BRANCH  22  24
ATOM     23  O   UNL     1      33.073 -22.333 -19.596  0.00  0.00    -0.245 OA
ATOM     24  C   UNL     1      34.187 -21.796 -19.646  0.00  0.00    +0.341 C 
BRANCH  24  25
ATOM     25  O   UNL     1      35.321 -22.336 -19.104  0.00  0.00    -0.445 OA
BRANCH  25  26
ATOM     26  C   UNL     1      35.431 -22.310 -17.677  0.00  0.00    +0.209 C 
ATOM     27  C   UNL     1      36.829 -21.869 -17.298  0.00  0.00    +0.051 C 
ENDBRANCH  25  26
ENDBRANCH  24  25
ENDBRANCH  22  24
ENDBRANCH  16  17
ENDBRANCH  15  16
ENDBRANCH   1  15
TORSDOF 7
ENDMDL
MODEL 6
REMARK VINA RESULT:     -10.2      4.913     10.894
REMARK  Name = 71345
REMARK  7 active torsions:
REMARK  status: ('A' for Active; 'I' for Inactive)
REMARK    1  A    between atoms: C_1  and  C_5
REMARK    2  A    between atoms: C_1  and  C_15
REMARK    3  A    between atoms: C_15  and  O_16
REMARK    4  A    between atoms: O_16  and  C_17
REMARK    5  A    between atoms: C_22  and  C_24
REMARK    6  A    between atoms: C_24  and  O_25
REMARK    7  A    between atoms: O_25  and  C_26
REMARK                            x       y       z     vdW  Elec       q    Type
REMARK                         _______ _______ _______ _____ _____    ______ ____
ROOT
ATOM      1  C   UNL     1      33.977 -20.030 -21.022  0.00  0.00    +0.047 C 
ENDROOT
BRANCH   1   5
ATOM      2  N   UNL     1      35.098 -22.403 -17.605  0.00  0.00    -0.292 N 
ATOM      3  N   UNL     1      34.918 -24.295 -16.142  0.00  0.00    -0.133 NA
ATOM      4  N   UNL     1      35.219 -24.920 -14.972  0.00  0.00    -0.151 NA
ATOM      5  C   UNL     1      34.429 -21.201 -20.153  0.00  0.00    +0.007 C 
ATOM      6  C   UNL     1      35.733 -20.869 -19.424  0.00  0.00    +0.022 C 
ATOM      7  C   UNL     1      33.350 -21.570 -19.130  0.00  0.00    +0.022 C 
ATOM      8  C   UNL     1      36.180 -22.014 -18.516  0.00  0.00    +0.092 C 
ATOM      9  C   UNL     1      33.804 -22.716 -18.228  0.00  0.00    +0.092 C 
ATOM     10  C   UNL     1      35.408 -23.047 -16.402  0.00  0.00    +0.153 C 
ATOM     11  C   UNL     1      36.221 -22.394 -15.475  0.00  0.00    +0.037 C 
ATOM     12  C   UNL     1      36.527 -23.030 -14.285  0.00  0.00    +0.019 C 
ATOM     13  C   UNL     1      36.007 -24.291 -14.074  0.00  0.00    +0.081 C 
ATOM     14  C   UNL     1      36.305 -25.019 -12.809  0.00  0.00    +0.054 C 
ENDBRANCH   1   5
BRANCH   1  15
ATOM     15  C   UNL     1      35.049 -18.961 -21.117  0.00  0.00    +0.205 C 
BRANCH  15  16
ATOM     16  O   UNL     1      35.532 -18.922 -22.454  0.00  0.00    -0.475 OA
BRANCH  16  17
ATOM     17  C   UNL     1      35.033 -17.934 -23.263  0.00  0.00    +0.139 C 
ATOM     18  C   UNL     1      34.684 -18.230 -24.575  0.00  0.00    +0.037 C 
ATOM     19  C   UNL     1      34.884 -16.645 -22.763  0.00  0.00    +0.037 C 
ATOM     20  C   UNL     1      34.178 -17.224 -25.399  0.00  0.00    +0.010 C 
ATOM     21  C   UNL     1      34.379 -15.640 -23.587  0.00  0.00    +0.010 C 
ATOM     22  C   UNL     1      34.025 -15.929 -24.904  0.00  0.00    +0.076 C 
BRANCH  22  24
ATOM     23  O   UNL     1      33.424 -14.958 -26.997  0.00  0.00    -0.245 OA
ATOM     24  C   UNL     1      33.498 -14.881 -25.764  0.00  0.00    +0.341 C 
BRANCH  24  25
ATOM     25  O   UNL     1      33.092 -13.793 -25.040  0.00  0.00    -0.445 OA
BRANCH  25  26
ATOM     26  C   UNL     1      33.587 -12.516 -25.458  0.00  0.00    +0.209 C 
ATOM     27  C   UNL     1      33.776 -11.638 -24.240  0.00  0.00    +0.051 C 
ENDBRANCH  25  26
ENDBRANCH  24  25
ENDBRANCH  22  24
ENDBRANCH  16  17
ENDBRANCH  15  16
ENDBRANCH   1  15
TORSDOF 7
ENDMDL
MODEL 7
REMARK VINA RESULT:     -10.2      4.657      8.356
REMARK  Name = 71345
REMARK  7 active torsions:
REMARK  status: ('A' for Active; 'I' for Inactive)
REMARK    1  A    between atoms: C_1  and  C_5
REMARK    2  A    between atoms: C_1  and  C_15
REMARK    3  A    between atoms: C_15  and  O_16
REMARK    4  A    between atoms: O_16  and  C_17
REMARK    5  A    between atoms: C_22  and  C_24
REMARK    6  A    between atoms: C_24  and  O_25
REMARK    7  A    between atoms: O_25  and  C_26
REMARK                            x       y       z     vdW  Elec       q    Type
REMARK                         _______ _______ _______ _____ _____    ______ ____
ROOT
ATOM      1  C   UNL     1      33.272 -14.893 -25.015  0.00  0.00    +0.047 C 
ENDROOT
BRANCH   1   5
ATOM      2  N   UNL     1      32.703 -10.983 -23.300  0.00  0.00    -0.292 N 
ATOM      3  N   UNL     1      32.394  -9.452 -21.480  0.00  0.00    -0.133 NA
ATOM      4  N   UNL     1      32.070  -8.215 -21.015  0.00  0.00    -0.151 NA
ATOM      5  C   UNL     1      33.464 -13.639 -24.167  0.00  0.00    +0.007 C 
ATOM      6  C   UNL     1      33.682 -12.409 -25.053  0.00  0.00    +0.022 C 
ATOM      7  C   UNL     1      32.253 -13.405 -23.257  0.00  0.00    +0.022 C 
ATOM      8  C   UNL     1      33.834 -11.135 -24.222  0.00  0.00    +0.092 C 
ATOM      9  C   UNL     1      32.414 -12.131 -22.429  0.00  0.00    +0.092 C 
ATOM     10  C   UNL     1      32.371  -9.710 -22.821  0.00  0.00    +0.153 C 
ATOM     11  C   UNL     1      32.018  -8.715 -23.733  0.00  0.00    +0.037 C 
ATOM     12  C   UNL     1      31.689  -7.457 -23.259  0.00  0.00    +0.019 C 
ATOM     13  C   UNL     1      31.728  -7.250 -21.895  0.00  0.00    +0.081 C 
ATOM     14  C   UNL     1      31.382  -5.913 -21.333  0.00  0.00    +0.054 C 
ENDBRANCH   1   5
BRANCH   1  15
ATOM     15  C   UNL     1      34.558 -15.691 -25.129  0.00  0.00    +0.205 C 
BRANCH  15  16
ATOM     16  O   UNL     1      35.201 -15.697 -23.861  0.00  0.00    -0.475 OA
BRANCH  16  17
ATOM     17  C   UNL     1      34.970 -16.782 -23.055  0.00  0.00    +0.139 C 
ATOM     18  C   UNL     1      35.167 -18.063 -23.554  0.00  0.00    +0.037 C 
ATOM     19  C   UNL     1      34.539 -16.588 -21.748  0.00  0.00    +0.037 C 
ATOM     20  C   UNL     1      34.932 -19.168 -22.735  0.00  0.00    +0.010 C 
ATOM     21  C   UNL     1      34.302 -17.692 -20.929  0.00  0.00    +0.010 C 
ATOM     22  C   UNL     1      34.498 -18.981 -21.421  0.00  0.00    +0.076 C 
BRANCH  22  24
ATOM     23  O   UNL     1      33.156 -20.410 -20.064  0.00  0.00    -0.245 OA
ATOM     24  C   UNL     1      34.252 -20.133 -20.568  0.00  0.00    +0.341 C 
BRANCH  24  25
ATOM     25  O   UNL     1      35.387 -20.877 -20.389  0.00  0.00    -0.445 OA
BRANCH  25  26
ATOM     26  C   UNL     1      35.333 -21.907 -19.395  0.00  0.00    +0.209 C 
ATOM     27  C   UNL     1      36.400 -21.641 -18.353  0.00  0.00    +0.051 C 
ENDBRANCH  25  26
ENDBRANCH  24  25
ENDBRANCH  22  24
ENDBRANCH  16  17
ENDBRANCH  15  16
ENDBRANCH   1  15
TORSDOF 7
ENDMDL
MODEL 8
REMARK VINA RESULT:     -10.1      2.930      4.976
REMARK  Name = 71345
REMARK  7 active torsions:
REMARK  status: ('A' for Active; 'I' for Inactive)
REMARK    1  A    between atoms: C_1  and  C_5
REMARK    2  A    between atoms: C_1  and  C_15
REMARK    3  A    between atoms: C_15  and  O_16
REMARK    4  A    between atoms: O_16  and  C_17
REMARK    5  A    between atoms: C_22  and  C_24
REMARK    6  A    between atoms: C_24  and  O_25
REMARK    7  A    between atoms: O_25  and  C_26
REMARK                            x       y       z     vdW  Elec       q    Type
REMARK                         _______ _______ _______ _____ _____    ______ ____
ROOT
ATOM      1  C   UNL     1      34.738 -23.826 -14.303  0.00  0.00    +0.047 C 
ENDROOT
BRANCH   1   5
ATOM      2  N   UNL     1      34.795 -21.997 -18.203  0.00  0.00    -0.292 N 
ATOM      3  N   UNL     1      35.874 -21.124 -20.159  0.00  0.00    -0.133 NA
ATOM      4  N   UNL     1      35.830 -20.414 -21.319  0.00  0.00    -0.151 NA
ATOM      5  C   UNL     1      35.005 -23.575 -15.785  0.00  0.00    +0.007 C 
ATOM      6  C   UNL     1      33.692 -23.470 -16.566  0.00  0.00    +0.022 C 
ATOM      7  C   UNL     1      35.823 -22.295 -15.983  0.00  0.00    +0.022 C 
ATOM      8  C   UNL     1      33.939 -23.177 -18.046  0.00  0.00    +0.092 C 
ATOM      9  C   UNL     1      36.065 -22.011 -17.465  0.00  0.00    +0.092 C 
ATOM     10  C   UNL     1      34.750 -21.267 -19.397  0.00  0.00    +0.153 C 
ATOM     11  C   UNL     1      33.543 -20.690 -19.792  0.00  0.00    +0.037 C 
ATOM     12  C   UNL     1      33.498 -19.968 -20.972  0.00  0.00    +0.019 C 
ATOM     13  C   UNL     1      34.663 -19.855 -21.704  0.00  0.00    +0.081 C 
ATOM     14  C   UNL     1      34.670 -19.088 -22.981  0.00  0.00    +0.054 C 
ENDBRANCH   1   5
BRANCH   1  15
ATOM     15  C   UNL     1      33.659 -24.873 -14.100  0.00  0.00    +0.205 C 
BRANCH  15  16
ATOM     16  O   UNL     1      32.528 -24.248 -13.507  0.00  0.00    -0.475 OA
BRANCH  16  17
ATOM     17  C   UNL     1      31.456 -24.002 -14.326  0.00  0.00    +0.139 C 
ATOM     18  C   UNL     1      31.071 -22.691 -14.579  0.00  0.00    +0.037 C 
ATOM     19  C   UNL     1      30.765 -25.067 -14.891  0.00  0.00    +0.037 C 
ATOM     20  C   UNL     1      29.980 -22.441 -15.412  0.00  0.00    +0.010 C 
ATOM     21  C   UNL     1      29.673 -24.817 -15.722  0.00  0.00    +0.010 C 
ATOM     22  C   UNL     1      29.281 -23.504 -15.983  0.00  0.00    +0.076 C 
BRANCH  22  24
ATOM     23  O   UNL     1      27.594 -24.093 -17.562  0.00  0.00    -0.245 OA
ATOM     24  C   UNL     1      28.143 -23.242 -16.850  0.00  0.00    +0.341 C 
BRANCH  24  25
ATOM     25  O   UNL     1      27.751 -21.933 -16.783  0.00  0.00    -0.445 OA
BRANCH  25  26
ATOM     26  C   UNL     1      26.341 -21.680 -16.769  0.00  0.00    +0.209 C 
ATOM     27  C   UNL     1      25.931 -21.109 -18.110  0.00  0.00    +0.051 C 
ENDBRANCH  25  26
ENDBRANCH  24  25
ENDBRANCH  22  24
ENDBRANCH  16  17
ENDBRANCH  15  16
ENDBRANCH   1  15
TORSDOF 7
ENDMDL
MODEL 9
REMARK VINA RESULT:     -10.1      5.224      9.652
REMARK  Name = 71345
REMARK  7 active torsions:
REMARK  status: ('A' for Active; 'I' for Inactive)
REMARK    1  A    between atoms: C_1  and  C_5
REMARK    2  A    between atoms: C_1  and  C_15
REMARK    3  A    between atoms: C_15  and  O_16
REMARK    4  A    between atoms: O_16  and  C_17
REMARK    5  A    between atoms: C_22  and  C_24
REMARK    6  A    between atoms: C_24  and  O_25
REMARK    7  A    between atoms: O_25  and  C_26
REMARK                            x       y       z     vdW  Elec       q    Type
REMARK                         _______ _______ _______ _____ _____    ______ ____
ROOT
ATOM      1  C   UNL     1      32.292 -13.344 -23.016  0.00  0.00    +0.047 C 
ENDROOT
BRANCH   1   5
ATOM      2  N   UNL     1      32.029  -9.045 -22.911  0.00  0.00    -0.292 N 
ATOM      3  N   UNL     1      31.750  -6.929 -21.818  0.00  0.00    -0.133 NA
ATOM      4  N   UNL     1      31.530  -5.588 -21.873  0.00  0.00    -0.151 NA
ATOM      5  C   UNL     1      32.555 -11.882 -22.664  0.00  0.00    +0.007 C 
ATOM      6  C   UNL     1      32.977 -11.090 -23.905  0.00  0.00    +0.022 C 
ATOM      7  C   UNL     1      31.311 -11.238 -22.045  0.00  0.00    +0.022 C 
ATOM      8  C   UNL     1      33.204  -9.613 -23.581  0.00  0.00    +0.092 C 
ATOM      9  C   UNL     1      31.546  -9.763 -21.723  0.00  0.00    +0.092 C 
ATOM     10  C   UNL     1      31.804  -7.665 -22.967  0.00  0.00    +0.153 C 
ATOM     11  C   UNL     1      31.636  -7.057 -24.212  0.00  0.00    +0.037 C 
ATOM     12  C   UNL     1      31.413  -5.692 -24.267  0.00  0.00    +0.019 C 
ATOM     13  C   UNL     1      31.368  -4.996 -23.076  0.00  0.00    +0.081 C 
ATOM     14  C   UNL     1      31.130  -3.525 -23.080  0.00  0.00    +0.054 C 
ENDBRANCH   1   5
BRANCH   1  15
ATOM     15  C   UNL     1      33.294 -13.862 -24.031  0.00  0.00    +0.205 C 
BRANCH  15  16
ATOM     16  O   UNL     1      34.527 -14.104 -23.367  0.00  0.00    -0.475 OA
BRANCH  16  17
ATOM     17  C   UNL     1      34.691 -15.340 -22.796  0.00  0.00    +0.139 C 
ATOM     18  C   UNL     1      34.645 -15.471 -21.414  0.00  0.00    +0.037 C 
ATOM     19  C   UNL     1      34.905 -16.448 -23.608  0.00  0.00    +0.037 C 
ATOM     20  C   UNL     1      34.813 -16.729 -20.834  0.00  0.00    +0.010 C 
ATOM     21  C   UNL     1      35.073 -17.705 -23.028  0.00  0.00    +0.010 C 
ATOM     22  C   UNL     1      35.028 -17.846 -21.641  0.00  0.00    +0.076 C 
BRANCH  22  24
ATOM     23  O   UNL     1      36.161 -19.474 -20.319  0.00  0.00    -0.245 OA
ATOM     24  C   UNL     1      35.204 -19.156 -21.035  0.00  0.00    +0.341 C 
BRANCH  24  25
ATOM     25  O   UNL     1      34.175 -20.001 -21.356  0.00  0.00    -0.445 OA
BRANCH  25  26
ATOM     26  C   UNL     1      33.155 -20.182 -20.368  0.00  0.00    +0.209 C 
ATOM     27  C   UNL     1      33.443 -21.450 -19.592  0.00  0.00    +0.051 C 
ENDBRANCH  25  26
ENDBRANCH  24  25
ENDBRANCH  22  24
ENDBRANCH  16  17
ENDBRANCH  15  16
ENDBRANCH   1  15
TORSDOF 7
ENDMDL
