MODEL 1
REMARK VINA RESULT:      -3.9      0.000      0.000
REMARK  Name = 447638
REMARK  5 active torsions:
REMARK  status: ('A' for Active; 'I' for Inactive)
REMARK    1  A    between atoms: C_1  and  O_2
REMARK    2  A    between atoms: C_1  and  C_4
REMARK    3  A    between atoms: C_1  and  C_7
REMARK    4  A    between atoms: C_4  and  S_5
REMARK    5  A    between atoms: C_7  and  O_8
REMARK                            x       y       z     vdW  Elec       q    Type
REMARK                         _______ _______ _______ _____ _____    ______ ____
ROOT
ATOM      1  C   UNL     1      41.199 -15.229 -15.131  0.00  0.00    +0.150 C 
ENDROOT
BRANCH   1   2
ATOM      2  O   UNL     1      40.029 -16.049 -15.139  0.00  0.00    -0.381 OA
ATOM      3  H   UNL     1      40.097 -16.703 -15.853  0.00  0.00    +0.210 HD
ENDBRANCH   1   2
BRANCH   1   4
ATOM      4  C   UNL     1      41.931 -15.379 -16.468  0.00  0.00    +0.085 C 
BRANCH   4   5
ATOM      5  S   UNL     1      41.340 -14.260 -17.779  0.00  0.00    -0.165 S 
ATOM      6  H   UNL     1      40.155 -14.717 -18.264  0.00  0.00    +0.102 HD
ENDBRANCH   4   5
ENDBRANCH   1   4
BRANCH   1   7
ATOM      7  C   UNL     1      40.817 -13.796 -14.768  0.00  0.00    +0.167 C 
BRANCH   7   8
ATOM      8  O   UNL     1      40.827 -13.667 -13.348  0.00  0.00    -0.379 OA
ATOM      9  H   UNL     1      41.460 -12.977 -13.092  0.00  0.00    +0.211 HD
ENDBRANCH   7   8
ENDBRANCH   1   7
TORSDOF 5
ENDMDL
MODEL 2
REMARK VINA RESULT:      -3.8     11.267     11.536
REMARK  Name = 447638
REMARK  5 active torsions:
REMARK  status: ('A' for Active; 'I' for Inactive)
REMARK    1  A    between atoms: C_1  and  O_2
REMARK    2  A    between atoms: C_1  and  C_4
REMARK    3  A    between atoms: C_1  and  C_7
REMARK    4  A    between atoms: C_4  and  S_5
REMARK    5  A    between atoms: C_7  and  O_8
REMARK                            x       y       z     vdW  Elec       q    Type
REMARK                         _______ _______ _______ _____ _____    ______ ____
ROOT
ATOM      1  C   UNL     1      38.735 -25.509 -14.552  0.00  0.00    +0.150 C 
ENDROOT
BRANCH   1   2
ATOM      2  O   UNL     1      38.074 -26.407 -15.445  0.00  0.00    -0.381 OA
ATOM      3  H   UNL     1      37.130 -26.445 -15.226  0.00  0.00    +0.210 HD
ENDBRANCH   1   2
BRANCH   1   4
ATOM      4  C   UNL     1      38.253 -25.772 -13.122  0.00  0.00    +0.085 C 
BRANCH   4   5
ATOM      5  S   UNL     1      38.031 -24.271 -12.114  0.00  0.00    -0.165 S 
ATOM      6  H   UNL     1      36.976 -24.442 -11.273  0.00  0.00    +0.102 HD
ENDBRANCH   4   5
ENDBRANCH   1   4
BRANCH   1   7
ATOM      7  C   UNL     1      40.245 -25.612 -14.746  0.00  0.00    +0.167 C 
BRANCH   7   8
ATOM      8  O   UNL     1      40.508 -25.980 -16.098  0.00  0.00    -0.379 OA
ATOM      9  H   UNL     1      41.458 -25.895 -16.277  0.00  0.00    +0.211 HD
ENDBRANCH   7   8
ENDBRANCH   1   7
TORSDOF 5
ENDMDL
MODEL 3
REMARK VINA RESULT:      -3.7     10.597     11.234
REMARK  Name = 447638
REMARK  5 active torsions:
REMARK  status: ('A' for Active; 'I' for Inactive)
REMARK    1  A    between atoms: C_1  and  O_2
REMARK    2  A    between atoms: C_1  and  C_4
REMARK    3  A    between atoms: C_1  and  C_7
REMARK    4  A    between atoms: C_4  and  S_5
REMARK    5  A    between atoms: C_7  and  O_8
REMARK                            x       y       z     vdW  Elec       q    Type
REMARK                         _______ _______ _______ _____ _____    ______ ____
ROOT
ATOM      1  C   UNL     1      38.807 -25.046 -14.617  0.00  0.00    +0.150 C 
ENDROOT
BRANCH   1   2
ATOM      2  O   UNL     1      38.775 -23.948 -15.530  0.00  0.00    -0.381 OA
ATOM      3  H   UNL     1      38.394 -23.172 -15.089  0.00  0.00    +0.210 HD
ENDBRANCH   1   2
BRANCH   1   4
ATOM      4  C   UNL     1      37.615 -25.967 -14.892  0.00  0.00    +0.085 C 
BRANCH   4   5
ATOM      5  S   UNL     1      35.995 -25.134 -14.853  0.00  0.00    -0.165 S 
ATOM      6  H   UNL     1      35.082 -25.947 -14.257  0.00  0.00    +0.102 HD
ENDBRANCH   4   5
ENDBRANCH   1   4
BRANCH   1   7
ATOM      7  C   UNL     1      40.171 -25.729 -14.685  0.00  0.00    +0.167 C 
BRANCH   7   8
ATOM      8  O   UNL     1      40.483 -25.990 -16.051  0.00  0.00    -0.379 OA
ATOM      9  H   UNL     1      41.440 -26.124 -16.143  0.00  0.00    +0.211 HD
ENDBRANCH   7   8
ENDBRANCH   1   7
TORSDOF 5
ENDMDL
MODEL 4
REMARK VINA RESULT:      -3.6     10.727     11.247
REMARK  Name = 447638
REMARK  5 active torsions:
REMARK  status: ('A' for Active; 'I' for Inactive)
REMARK    1  A    between atoms: C_1  and  O_2
REMARK    2  A    between atoms: C_1  and  C_4
REMARK    3  A    between atoms: C_1  and  C_7
REMARK    4  A    between atoms: C_4  and  S_5
REMARK    5  A    between atoms: C_7  and  O_8
REMARK                            x       y       z     vdW  Elec       q    Type
REMARK                         _______ _______ _______ _____ _____    ______ ____
ROOT
ATOM      1  C   UNL     1      36.929 -23.638 -11.899  0.00  0.00    +0.150 C 
ENDROOT
BRANCH   1   2
ATOM      2  O   UNL     1      37.515 -22.609 -11.100  0.00  0.00    -0.381 OA
ATOM      3  H   UNL     1      38.449 -22.504 -11.340  0.00  0.00    +0.210 HD
ENDBRANCH   1   2
BRANCH   1   4
ATOM      4  C   UNL     1      38.012 -24.641 -12.305  0.00  0.00    +0.085 C 
BRANCH   4   5
ATOM      5  S   UNL     1      37.378 -26.161 -13.082  0.00  0.00    -0.165 S 
ATOM      6  H   UNL     1      37.223 -25.957 -14.418  0.00  0.00    +0.102 HD
ENDBRANCH   4   5
ENDBRANCH   1   4
BRANCH   1   7
ATOM      7  C   UNL     1      35.740 -24.246 -11.159  0.00  0.00    +0.167 C 
BRANCH   7   8
ATOM      8  O   UNL     1      36.029 -24.260  -9.763  0.00  0.00    -0.379 OA
ATOM      9  H   UNL     1      35.351 -24.775  -9.299  0.00  0.00    +0.211 HD
ENDBRANCH   7   8
ENDBRANCH   1   7
TORSDOF 5
ENDMDL
MODEL 5
REMARK VINA RESULT:      -3.6     11.989     12.142
REMARK  Name = 447638
REMARK  5 active torsions:
REMARK  status: ('A' for Active; 'I' for Inactive)
REMARK    1  A    between atoms: C_1  and  O_2
REMARK    2  A    between atoms: C_1  and  C_4
REMARK    3  A    between atoms: C_1  and  C_7
REMARK    4  A    between atoms: C_4  and  S_5
REMARK    5  A    between atoms: C_7  and  O_8
REMARK                            x       y       z     vdW  Elec       q    Type
REMARK                         _______ _______ _______ _____ _____    ______ ____
ROOT
ATOM      1  C   UNL     1      36.758 -25.161 -12.301  0.00  0.00    +0.150 C 
ENDROOT
BRANCH   1   2
ATOM      2  O   UNL     1      36.818 -26.539 -11.930  0.00  0.00    -0.381 OA
ATOM      3  H   UNL     1      36.549 -26.637 -11.002  0.00  0.00    +0.210 HD
ENDBRANCH   1   2
BRANCH   1   4
ATOM      4  C   UNL     1      36.824 -25.044 -13.826  0.00  0.00    +0.085 C 
BRANCH   4   5
ATOM      5  S   UNL     1      37.232 -26.598 -14.683  0.00  0.00    -0.165 S 
ATOM      6  H   UNL     1      38.359 -26.425 -15.424  0.00  0.00    +0.102 HD
ENDBRANCH   4   5
ENDBRANCH   1   4
BRANCH   1   7
ATOM      7  C   UNL     1      35.533 -24.511 -11.662  0.00  0.00    +0.167 C 
BRANCH   7   8
ATOM      8  O   UNL     1      35.315 -25.105 -10.384  0.00  0.00    -0.379 OA
ATOM      9  H   UNL     1      35.857 -24.649  -9.720  0.00  0.00    +0.211 HD
ENDBRANCH   7   8
ENDBRANCH   1   7
TORSDOF 5
ENDMDL
MODEL 6
REMARK VINA RESULT:      -3.6     11.501     12.260
REMARK  Name = 447638
REMARK  5 active torsions:
REMARK  status: ('A' for Active; 'I' for Inactive)
REMARK    1  A    between atoms: C_1  and  O_2
REMARK    2  A    between atoms: C_1  and  C_4
REMARK    3  A    between atoms: C_1  and  C_7
REMARK    4  A    between atoms: C_4  and  S_5
REMARK    5  A    between atoms: C_7  and  O_8
REMARK                            x       y       z     vdW  Elec       q    Type
REMARK                         _______ _______ _______ _____ _____    ______ ____
ROOT
ATOM      1  C   UNL     1      37.595 -26.272 -14.245  0.00  0.00    +0.150 C 
ENDROOT
BRANCH   1   2
ATOM      2  O   UNL     1      38.742 -26.994 -14.696  0.00  0.00    -0.381 OA
ATOM      3  H   UNL     1      39.130 -27.483 -13.954  0.00  0.00    +0.210 HD
ENDBRANCH   1   2
BRANCH   1   4
ATOM      4  C   UNL     1      37.985 -24.816 -13.980  0.00  0.00    +0.085 C 
BRANCH   4   5
ATOM      5  S   UNL     1      38.099 -24.376 -12.216  0.00  0.00    -0.165 S 
ATOM      6  H   UNL     1      37.626 -23.114 -12.032  0.00  0.00    +0.102 HD
ENDBRANCH   4   5
ENDBRANCH   1   4
BRANCH   1   7
ATOM      7  C   UNL     1      36.450 -26.457 -15.238  0.00  0.00    +0.167 C 
BRANCH   7   8
ATOM      8  O   UNL     1      36.892 -27.312 -16.290  0.00  0.00    -0.379 OA
ATOM      9  H   UNL     1      36.735 -26.879 -17.145  0.00  0.00    +0.211 HD
ENDBRANCH   7   8
ENDBRANCH   1   7
TORSDOF 5
ENDMDL
MODEL 7
REMARK VINA RESULT:      -3.6     11.714     12.294
REMARK  Name = 447638
REMARK  5 active torsions:
REMARK  status: ('A' for Active; 'I' for Inactive)
REMARK    1  A    between atoms: C_1  and  O_2
REMARK    2  A    between atoms: C_1  and  C_4
REMARK    3  A    between atoms: C_1  and  C_7
REMARK    4  A    between atoms: C_4  and  S_5
REMARK    5  A    between atoms: C_7  and  O_8
REMARK                            x       y       z     vdW  Elec       q    Type
REMARK                         _______ _______ _______ _____ _____    ______ ____
ROOT
ATOM      1  C   UNL     1      37.296 -25.888 -13.301  0.00  0.00    +0.150 C 
ENDROOT
BRANCH   1   2
ATOM      2  O   UNL     1      36.854 -26.515 -12.095  0.00  0.00    -0.381 OA
ATOM      3  H   UNL     1      35.915 -26.317 -11.953  0.00  0.00    +0.210 HD
ENDBRANCH   1   2
BRANCH   1   4
ATOM      4  C   UNL     1      38.670 -25.255 -13.067  0.00  0.00    +0.085 C 
BRANCH   4   5
ATOM      5  S   UNL     1      39.892 -25.603 -14.373  0.00  0.00    -0.165 S 
ATOM      6  H   UNL     1      39.446 -25.100 -15.556  0.00  0.00    +0.102 HD
ENDBRANCH   4   5
ENDBRANCH   1   4
BRANCH   1   7
ATOM      7  C   UNL     1      37.242 -26.893 -14.449  0.00  0.00    +0.167 C 
BRANCH   7   8
ATOM      8  O   UNL     1      35.963 -26.807 -15.072  0.00  0.00    -0.379 OA
ATOM      9  H   UNL     1      35.358 -26.310 -14.499  0.00  0.00    +0.211 HD
ENDBRANCH   7   8
ENDBRANCH   1   7
TORSDOF 5
ENDMDL
MODEL 8
REMARK VINA RESULT:      -3.5      1.558      2.438
REMARK  Name = 447638
REMARK  5 active torsions:
REMARK  status: ('A' for Active; 'I' for Inactive)
REMARK    1  A    between atoms: C_1  and  O_2
REMARK    2  A    between atoms: C_1  and  C_4
REMARK    3  A    between atoms: C_1  and  C_7
REMARK    4  A    between atoms: C_4  and  S_5
REMARK    5  A    between atoms: C_7  and  O_8
REMARK                            x       y       z     vdW  Elec       q    Type
REMARK                         _______ _______ _______ _____ _____    ______ ____
ROOT
ATOM      1  C   UNL     1      40.982 -14.839 -16.043  0.00  0.00    +0.150 C 
ENDROOT
BRANCH   1   2
ATOM      2  O   UNL     1      40.450 -15.281 -14.793  0.00  0.00    -0.381 OA
ATOM      3  H   UNL     1      39.693 -14.726 -14.549  0.00  0.00    +0.210 HD
ENDBRANCH   1   2
BRANCH   1   4
ATOM      4  C   UNL     1      41.762 -13.538 -15.829  0.00  0.00    +0.085 C 
BRANCH   4   5
ATOM      5  S   UNL     1      42.308 -12.726 -17.365  0.00  0.00    -0.165 S 
ATOM      6  H   UNL     1      42.050 -13.539 -18.424  0.00  0.00    +0.102 HD
ENDBRANCH   4   5
ENDBRANCH   1   4
BRANCH   1   7
ATOM      7  C   UNL     1      41.786 -15.967 -16.686  0.00  0.00    +0.167 C 
BRANCH   7   8
ATOM      8  O   UNL     1      42.484 -16.671 -15.661  0.00  0.00    -0.379 OA
ATOM      9  H   UNL     1      42.440 -17.624 -15.838  0.00  0.00    +0.211 HD
ENDBRANCH   7   8
ENDBRANCH   1   7
TORSDOF 5
ENDMDL
MODEL 9
REMARK VINA RESULT:      -3.5     14.769     15.095
REMARK  Name = 447638
REMARK  5 active torsions:
REMARK  status: ('A' for Active; 'I' for Inactive)
REMARK    1  A    between atoms: C_1  and  O_2
REMARK    2  A    between atoms: C_1  and  C_4
REMARK    3  A    between atoms: C_1  and  C_7
REMARK    4  A    between atoms: C_4  and  S_5
REMARK    5  A    between atoms: C_7  and  O_8
REMARK                            x       y       z     vdW  Elec       q    Type
REMARK                         _______ _______ _______ _____ _____    ______ ____
ROOT
ATOM      1  C   UNL     1      28.297 -23.886 -16.116  0.00  0.00    +0.150 C 
ENDROOT
BRANCH   1   2
ATOM      2  O   UNL     1      27.844 -24.167 -17.442  0.00  0.00    -0.381 OA
ATOM      3  H   UNL     1      27.299 -24.969 -17.434  0.00  0.00    +0.210 HD
ENDBRANCH   1   2
BRANCH   1   4
ATOM      4  C   UNL     1      29.728 -24.402 -15.951  0.00  0.00    +0.085 C 
BRANCH   4   5
ATOM      5  S   UNL     1      31.014 -23.122 -16.118  0.00  0.00    -0.165 S 
ATOM      6  H   UNL     1      32.170 -23.695 -16.547  0.00  0.00    +0.102 HD
ENDBRANCH   4   5
ENDBRANCH   1   4
BRANCH   1   7
ATOM      7  C   UNL     1      28.114 -22.400 -15.817  0.00  0.00    +0.167 C 
BRANCH   7   8
ATOM      8  O   UNL     1      27.727 -21.736 -17.018  0.00  0.00    -0.379 OA
ATOM      9  H   UNL     1      28.138 -22.178 -17.778  0.00  0.00    +0.211 HD
ENDBRANCH   7   8
ENDBRANCH   1   7
TORSDOF 5
ENDMDL
