MODEL 1
REMARK VINA RESULT:      -3.8      0.000      0.000
REMARK  Name = 880
REMARK  1 active torsions:
REMARK  status: ('A' for Active; 'I' for Inactive)
REMARK    1  A    between atoms: C_3  and  C_5
REMARK                            x       y       z     vdW  Elec       q    Type
REMARK                         _______ _______ _______ _____ _____    ______ ____
ROOT
ATOM      1  O   UNL     1      27.662 -23.188 -17.975  0.00  0.00    -0.288 OA
ATOM      2  C   UNL     1      28.136 -22.392 -15.746  0.00  0.00    +0.081 C 
ATOM      3  C   UNL     1      27.398 -22.439 -17.048  0.00  0.00    +0.215 C 
ENDROOT
BRANCH   3   5
ATOM      4  O   UNL     1      26.328 -20.550 -17.977  0.00  0.00    -0.280 OA
ATOM      5  C   UNL     1      26.248 -21.481 -17.195  0.00  0.00    +0.271 C 
ENDBRANCH   3   5
TORSDOF 1
ENDMDL
MODEL 2
REMARK VINA RESULT:      -3.7      1.675      1.952
REMARK  Name = 880
REMARK  1 active torsions:
REMARK  status: ('A' for Active; 'I' for Inactive)
REMARK    1  A    between atoms: C_3  and  C_5
REMARK                            x       y       z     vdW  Elec       q    Type
REMARK                         _______ _______ _______ _____ _____    ______ ____
ROOT
ATOM      1  O   UNL     1      27.713 -24.320 -17.588  0.00  0.00    -0.288 OA
ATOM      2  C   UNL     1      29.274 -24.586 -15.768  0.00  0.00    +0.081 C 
ATOM      3  C   UNL     1      28.269 -23.858 -16.605  0.00  0.00    +0.215 C 
ENDROOT
BRANCH   3   5
ATOM      4  O   UNL     1      27.589 -21.633 -17.006  0.00  0.00    -0.280 OA
ATOM      5  C   UNL     1      27.938 -22.456 -16.177  0.00  0.00    +0.271 C 
ENDBRANCH   3   5
TORSDOF 1
ENDMDL
MODEL 3
REMARK VINA RESULT:      -3.6     10.842     11.582
REMARK  Name = 880
REMARK  1 active torsions:
REMARK  status: ('A' for Active; 'I' for Inactive)
REMARK    1  A    between atoms: C_3  and  C_5
REMARK                            x       y       z     vdW  Elec       q    Type
REMARK                         _______ _______ _______ _____ _____    ______ ____
ROOT
ATOM      1  O   UNL     1      37.377 -22.760 -11.051  0.00  0.00    -0.288 OA
ATOM      2  C   UNL     1      37.985 -24.780 -12.223  0.00  0.00    +0.081 C 
ATOM      3  C   UNL     1      37.058 -23.844 -11.513  0.00  0.00    +0.215 C 
ENDROOT
BRANCH   3   5
ATOM      4  O   UNL     1      35.319 -25.067 -10.485  0.00  0.00    -0.280 OA
ATOM      5  C   UNL     1      35.631 -24.297 -11.377  0.00  0.00    +0.271 C 
ENDBRANCH   3   5
TORSDOF 1
ENDMDL
MODEL 4
REMARK VINA RESULT:      -3.6     12.547     13.249
REMARK  Name = 880
REMARK  1 active torsions:
REMARK  status: ('A' for Active; 'I' for Inactive)
REMARK    1  A    between atoms: C_3  and  C_5
REMARK                            x       y       z     vdW  Elec       q    Type
REMARK                         _______ _______ _______ _____ _____    ______ ____
ROOT
ATOM      1  O   UNL     1      38.385 -26.922 -14.655  0.00  0.00    -0.288 OA
ATOM      2  C   UNL     1      38.512 -25.130 -13.044  0.00  0.00    +0.081 C 
ATOM      3  C   UNL     1      38.987 -25.968 -14.189  0.00  0.00    +0.215 C 
ENDROOT
BRANCH   3   5
ATOM      4  O   UNL     1      40.656 -26.064 -15.858  0.00  0.00    -0.280 OA
ATOM      5  C   UNL     1      40.308 -25.580 -14.795  0.00  0.00    +0.271 C 
ENDBRANCH   3   5
TORSDOF 1
ENDMDL
MODEL 5
REMARK VINA RESULT:      -3.6      2.213      2.917
REMARK  Name = 880
REMARK  1 active torsions:
REMARK  status: ('A' for Active; 'I' for Inactive)
REMARK    1  A    between atoms: C_3  and  C_5
REMARK                            x       y       z     vdW  Elec       q    Type
REMARK                         _______ _______ _______ _____ _____    ______ ____
ROOT
ATOM      1  O   UNL     1      28.409 -21.851 -16.739  0.00  0.00    -0.288 OA
ATOM      2  C   UNL     1      30.528 -22.879 -16.216  0.00  0.00    +0.081 C 
ATOM      3  C   UNL     1      29.068 -22.859 -16.546  0.00  0.00    +0.215 C 
ENDROOT
BRANCH   3   5
ATOM      4  O   UNL     1      27.649 -24.437 -17.583  0.00  0.00    -0.280 OA
ATOM      5  C   UNL     1      28.390 -24.197 -16.645  0.00  0.00    +0.271 C 
ENDBRANCH   3   5
TORSDOF 1
ENDMDL
MODEL 6
REMARK VINA RESULT:      -3.5     10.088     11.007
REMARK  Name = 880
REMARK  1 active torsions:
REMARK  status: ('A' for Active; 'I' for Inactive)
REMARK    1  A    between atoms: C_3  and  C_5
REMARK                            x       y       z     vdW  Elec       q    Type
REMARK                         _______ _______ _______ _____ _____    ______ ____
ROOT
ATOM      1  O   UNL     1      35.347 -25.018 -10.527  0.00  0.00    -0.288 OA
ATOM      2  C   UNL     1      34.808 -24.227 -12.742  0.00  0.00    +0.081 C 
ATOM      3  C   UNL     1      35.675 -24.416 -11.536  0.00  0.00    +0.215 C 
ENDROOT
BRANCH   3   5
ATOM      4  O   UNL     1      37.305 -22.809 -10.957  0.00  0.00    -0.280 OA
ATOM      5  C   UNL     1      37.049 -23.810 -11.603  0.00  0.00    +0.271 C 
ENDBRANCH   3   5
TORSDOF 1
ENDMDL
MODEL 7
REMARK VINA RESULT:      -3.5     12.075     12.429
REMARK  Name = 880
REMARK  1 active torsions:
REMARK  status: ('A' for Active; 'I' for Inactive)
REMARK    1  A    between atoms: C_3  and  C_5
REMARK                            x       y       z     vdW  Elec       q    Type
REMARK                         _______ _______ _______ _____ _____    ______ ____
ROOT
ATOM      1  O   UNL     1      37.133 -26.212 -11.954  0.00  0.00    -0.288 OA
ATOM      2  C   UNL     1      38.973 -25.543 -13.364  0.00  0.00    +0.081 C 
ATOM      3  C   UNL     1      37.872 -25.335 -12.372  0.00  0.00    +0.215 C 
ENDROOT
BRANCH   3   5
ATOM      4  O   UNL     1      38.660 -23.225 -11.664  0.00  0.00    -0.280 OA
ATOM      5  C   UNL     1      37.688 -23.931 -11.866  0.00  0.00    +0.271 C 
ENDBRANCH   3   5
TORSDOF 1
ENDMDL
MODEL 8
REMARK VINA RESULT:      -3.5      6.895      7.564
REMARK  Name = 880
REMARK  1 active torsions:
REMARK  status: ('A' for Active; 'I' for Inactive)
REMARK    1  A    between atoms: C_3  and  C_5
REMARK                            x       y       z     vdW  Elec       q    Type
REMARK                         _______ _______ _______ _____ _____    ______ ____
ROOT
ATOM      1  O   UNL     1      32.672 -22.120 -18.863  0.00  0.00    -0.288 OA
ATOM      2  C   UNL     1      33.071 -20.284 -20.377  0.00  0.00    +0.081 C 
ATOM      3  C   UNL     1      33.457 -21.422 -19.485  0.00  0.00    +0.215 C 
ENDROOT
BRANCH   3   5
ATOM      4  O   UNL     1      35.341 -22.418 -18.470  0.00  0.00    -0.280 OA
ATOM      5  C   UNL     1      34.929 -21.706 -19.368  0.00  0.00    +0.271 C 
ENDBRANCH   3   5
TORSDOF 1
ENDMDL
MODEL 9
REMARK VINA RESULT:      -3.5     15.706     16.237
REMARK  Name = 880
REMARK  1 active torsions:
REMARK  status: ('A' for Active; 'I' for Inactive)
REMARK    1  A    between atoms: C_3  and  C_5
REMARK                            x       y       z     vdW  Elec       q    Type
REMARK                         _______ _______ _______ _____ _____    ______ ____
ROOT
ATOM      1  O   UNL     1      40.653 -14.259 -14.095  0.00  0.00    -0.288 OA
ATOM      2  C   UNL     1      41.786 -13.529 -16.096  0.00  0.00    +0.081 C 
ATOM      3  C   UNL     1      41.178 -14.529 -15.163  0.00  0.00    +0.215 C 
ENDROOT
BRANCH   3   5
ATOM      4  O   UNL     1      42.297 -16.547 -15.663  0.00  0.00    -0.280 OA
ATOM      5  C   UNL     1      41.228 -15.966 -15.602  0.00  0.00    +0.271 C 
ENDBRANCH   3   5
TORSDOF 1
ENDMDL
