MODEL 1
REMARK VINA RESULT:      -9.5      0.000      0.000
REMARK  Name = 60726
REMARK  6 active torsions:
REMARK  status: ('A' for Active; 'I' for Inactive)
REMARK    1  A    between atoms: C_1  and  C_19
REMARK    2  A    between atoms: C_2  and  C_11
REMARK    3  A    between atoms: C_3  and  N_7
REMARK    4  A    between atoms: C_11  and  C_13
REMARK    5  A    between atoms: C_19  and  C_21
REMARK    6  A    between atoms: C_21  and  O_22
REMARK                            x       y       z     vdW  Elec       q    Type
REMARK                         _______ _______ _______ _____ _____    ______ ____
ROOT
ATOM      1  C   UNL     1      34.303 -15.938 -23.564  0.00  0.00    +0.002 C 
ATOM      2  C   UNL     1      35.328 -17.970 -22.856  0.00  0.00    +0.052 C 
ATOM      3  C   UNL     1      34.958 -16.675 -22.577  0.00  0.00    +0.041 C 
ATOM      4  C   UNL     1      34.034 -16.517 -24.804  0.00  0.00    -0.003 C 
ATOM      5  C   UNL     1      35.077 -18.570 -24.070  0.00  0.00    +0.004 C 
ATOM      6  C   UNL     1      34.421 -17.834 -25.057  0.00  0.00    -0.000 C 
ENDROOT
BRANCH   3   7
ATOM      7  N   UNL     1      35.230 -16.083 -21.321  0.00  0.00    -0.357 N 
ATOM      8  H   UNL     1      36.068 -16.292 -20.849  0.00  0.00    +0.142 HD
ATOM      9  H   UNL     1      34.581 -15.461 -20.919  0.00  0.00    +0.142 HD
ENDBRANCH   3   7
BRANCH   2  11
ATOM     10  O   UNL     1      37.261 -18.644 -21.723  0.00  0.00    -0.287 OA
ATOM     11  C   UNL     1      36.033 -18.788 -21.823  0.00  0.00    +0.197 C 
BRANCH  11  13
ATOM     12 BR   UNL     1      33.071 -22.723 -18.167  0.00  0.00    -0.049 Br
ATOM     13  C   UNL     1      35.331 -19.721 -20.957  0.00  0.00    +0.039 C 
ATOM     14  C   UNL     1      36.050 -20.645 -20.197  0.00  0.00    +0.004 C 
ATOM     15  C   UNL     1      33.938 -19.693 -20.885  0.00  0.00    +0.004 C 
ATOM     16  C   UNL     1      35.377 -21.539 -19.365  0.00  0.00    +0.007 C 
ATOM     17  C   UNL     1      33.265 -20.588 -20.053  0.00  0.00    +0.007 C 
ATOM     18  C   UNL     1      33.984 -21.511 -19.293  0.00  0.00    +0.035 C 
ENDBRANCH  11  13
ENDBRANCH   2  11
BRANCH   1  19
ATOM     19  C   UNL     1      33.875 -14.527 -23.322  0.00  0.00    +0.137 C 
BRANCH  19  21
ATOM     20  O   UNL     1      32.222 -15.208 -21.668  0.00  0.00    -0.250 OA
ATOM     21  C   UNL     1      32.590 -14.418 -22.526  0.00  0.00    +0.318 C 
BRANCH  21  22
ATOM     22  O   UNL     1      31.871 -13.319 -22.877  0.00  0.00    -0.480 OA
ATOM     23  H   UNL     1      31.116 -13.075 -22.378  0.00  0.00    +0.295 HD
ENDBRANCH  21  22
ENDBRANCH  19  21
ENDBRANCH   1  19
TORSDOF 6
ENDMDL
MODEL 2
REMARK VINA RESULT:      -9.4      5.669      8.844
REMARK  Name = 60726
REMARK  6 active torsions:
REMARK  status: ('A' for Active; 'I' for Inactive)
REMARK    1  A    between atoms: C_1  and  C_19
REMARK    2  A    between atoms: C_2  and  C_11
REMARK    3  A    between atoms: C_3  and  N_7
REMARK    4  A    between atoms: C_11  and  C_13
REMARK    5  A    between atoms: C_19  and  C_21
REMARK    6  A    between atoms: C_21  and  O_22
REMARK                            x       y       z     vdW  Elec       q    Type
REMARK                         _______ _______ _______ _____ _____    ______ ____
ROOT
ATOM      1  C   UNL     1      32.523 -23.168 -15.254  0.00  0.00    +0.002 C 
ATOM      2  C   UNL     1      33.825 -23.077 -17.248  0.00  0.00    +0.052 C 
ATOM      3  C   UNL     1      32.589 -23.123 -16.647  0.00  0.00    +0.041 C 
ATOM      4  C   UNL     1      33.696 -23.163 -14.499  0.00  0.00    -0.003 C 
ATOM      5  C   UNL     1      35.001 -23.071 -16.531  0.00  0.00    +0.004 C 
ATOM      6  C   UNL     1      34.936 -23.115 -15.138  0.00  0.00    -0.000 C 
ENDROOT
BRANCH   3   7
ATOM      7  N   UNL     1      31.397 -23.129 -17.408  0.00  0.00    -0.357 N 
ATOM      8  H   UNL     1      31.142 -22.335 -17.930  0.00  0.00    +0.142 HD
ATOM      9  H   UNL     1      30.823 -23.929 -17.417  0.00  0.00    +0.142 HD
ENDBRANCH   3   7
BRANCH   2  11
ATOM     10  O   UNL     1      33.818 -24.102 -19.351  0.00  0.00    -0.287 OA
ATOM     11  C   UNL     1      33.934 -23.030 -18.738  0.00  0.00    +0.197 C 
BRANCH  11  13
ATOM     12 BR   UNL     1      34.906 -17.805 -21.800  0.00  0.00    -0.049 Br
ATOM     13  C   UNL     1      34.165 -21.792 -19.463  0.00  0.00    +0.039 C 
ATOM     14  C   UNL     1      35.467 -21.388 -19.759  0.00  0.00    +0.004 C 
ATOM     15  C   UNL     1      33.083 -21.006 -19.863  0.00  0.00    +0.004 C 
ATOM     16  C   UNL     1      35.688 -20.201 -20.456  0.00  0.00    +0.007 C 
ATOM     17  C   UNL     1      33.305 -19.818 -20.560  0.00  0.00    +0.007 C 
ATOM     18  C   UNL     1      34.607 -19.415 -20.857  0.00  0.00    +0.035 C 
ENDBRANCH  11  13
ENDBRANCH   2  11
BRANCH   1  19
ATOM     19  C   UNL     1      31.210 -23.218 -14.542  0.00  0.00    +0.137 C 
BRANCH  19  21
ATOM     20  O   UNL     1      30.227 -25.367 -15.131  0.00  0.00    -0.250 OA
ATOM     21  C   UNL     1      30.717 -24.628 -14.288  0.00  0.00    +0.318 C 
BRANCH  21  22
ATOM     22  O   UNL     1      30.881 -24.994 -12.989  0.00  0.00    -0.480 OA
ATOM     23  H   UNL     1      30.152 -25.318 -12.499  0.00  0.00    +0.295 HD
ENDBRANCH  21  22
ENDBRANCH  19  21
ENDBRANCH   1  19
TORSDOF 6
ENDMDL
MODEL 3
REMARK VINA RESULT:      -9.4      1.543      2.550
REMARK  Name = 60726
REMARK  6 active torsions:
REMARK  status: ('A' for Active; 'I' for Inactive)
REMARK    1  A    between atoms: C_1  and  C_19
REMARK    2  A    between atoms: C_2  and  C_11
REMARK    3  A    between atoms: C_3  and  N_7
REMARK    4  A    between atoms: C_11  and  C_13
REMARK    5  A    between atoms: C_19  and  C_21
REMARK    6  A    between atoms: C_21  and  O_22
REMARK                            x       y       z     vdW  Elec       q    Type
REMARK                         _______ _______ _______ _____ _____    ______ ____
ROOT
ATOM      1  C   UNL     1      34.013 -14.906 -22.966  0.00  0.00    +0.002 C 
ATOM      2  C   UNL     1      34.862 -16.934 -22.046  0.00  0.00    +0.052 C 
ATOM      3  C   UNL     1      34.428 -16.227 -23.142  0.00  0.00    +0.041 C 
ATOM      4  C   UNL     1      34.046 -14.327 -21.698  0.00  0.00    -0.003 C 
ATOM      5  C   UNL     1      34.906 -16.391 -20.780  0.00  0.00    +0.004 C 
ATOM      6  C   UNL     1      34.492 -15.070 -20.604  0.00  0.00    -0.000 C 
ENDROOT
BRANCH   3   7
ATOM      7  N   UNL     1      34.392 -16.810 -24.430  0.00  0.00    -0.357 N 
ATOM      8  H   UNL     1      33.646 -16.613 -25.040  0.00  0.00    +0.142 HD
ATOM      9  H   UNL     1      35.115 -17.414 -24.717  0.00  0.00    +0.142 HD
ENDBRANCH   3   7
BRANCH   2  11
ATOM     10  O   UNL     1      36.065 -18.611 -23.145  0.00  0.00    -0.287 OA
ATOM     11  C   UNL     1      35.312 -18.351 -22.196  0.00  0.00    +0.197 C 
BRANCH  11  13
ATOM     12 BR   UNL     1      33.568 -22.781 -18.328  0.00  0.00    -0.049 Br
ATOM     13  C   UNL     1      34.898 -19.401 -21.279  0.00  0.00    +0.039 C 
ATOM     14  C   UNL     1      33.542 -19.656 -21.075  0.00  0.00    +0.004 C 
ATOM     15  C   UNL     1      35.858 -20.153 -20.601  0.00  0.00    +0.004 C 
ATOM     16  C   UNL     1      33.145 -20.663 -20.196  0.00  0.00    +0.007 C 
ATOM     17  C   UNL     1      35.461 -21.160 -19.722  0.00  0.00    +0.007 C 
ATOM     18  C   UNL     1      34.105 -21.416 -19.519  0.00  0.00    +0.035 C 
ENDBRANCH  11  13
ENDBRANCH   2  11
BRANCH   1  19
ATOM     19  C   UNL     1      33.532 -14.085 -24.119  0.00  0.00    +0.137 C 
BRANCH  19  21
ATOM     20  O   UNL     1      32.437 -12.127 -23.172  0.00  0.00    -0.250 OA
ATOM     21  C   UNL     1      33.375 -12.616 -23.786  0.00  0.00    +0.318 C 
BRANCH  21  22
ATOM     22  O   UNL     1      34.415 -11.878 -24.257  0.00  0.00    -0.480 OA
ATOM     23  H   UNL     1      35.296 -12.147 -24.083  0.00  0.00    +0.295 HD
ENDBRANCH  21  22
ENDBRANCH  19  21
ENDBRANCH   1  19
TORSDOF 6
ENDMDL
MODEL 4
REMARK VINA RESULT:      -9.4      3.297      6.592
REMARK  Name = 60726
REMARK  6 active torsions:
REMARK  status: ('A' for Active; 'I' for Inactive)
REMARK    1  A    between atoms: C_1  and  C_19
REMARK    2  A    between atoms: C_2  and  C_11
REMARK    3  A    between atoms: C_3  and  N_7
REMARK    4  A    between atoms: C_11  and  C_13
REMARK    5  A    between atoms: C_19  and  C_21
REMARK    6  A    between atoms: C_21  and  O_22
REMARK                            x       y       z     vdW  Elec       q    Type
REMARK                         _______ _______ _______ _____ _____    ______ ____
ROOT
ATOM      1  C   UNL     1      35.536 -20.851 -19.938  0.00  0.00    +0.002 C 
ATOM      2  C   UNL     1      34.785 -19.030 -21.281  0.00  0.00    +0.052 C 
ATOM      3  C   UNL     1      35.827 -19.738 -20.729  0.00  0.00    +0.041 C 
ATOM      4  C   UNL     1      34.211 -21.226 -19.723  0.00  0.00    -0.003 C 
ATOM      5  C   UNL     1      33.465 -19.376 -21.086  0.00  0.00    +0.004 C 
ATOM      6  C   UNL     1      33.175 -20.488 -20.297  0.00  0.00    -0.000 C 
ENDROOT
BRANCH   3   7
ATOM      7  N   UNL     1      37.173 -19.360 -20.944  0.00  0.00    -0.357 N 
ATOM      8  H   UNL     1      37.879 -19.687 -20.342  0.00  0.00    +0.142 HD
ATOM      9  H   UNL     1      37.403 -18.770 -21.698  0.00  0.00    +0.142 HD
ENDBRANCH   3   7
BRANCH   2  11
ATOM     10  O   UNL     1      35.942 -17.937 -22.994  0.00  0.00    -0.287 OA
ATOM     11  C   UNL     1      35.058 -17.833 -22.131  0.00  0.00    +0.197 C 
BRANCH  11  13
ATOM     12 BR   UNL     1      31.987 -12.565 -21.468  0.00  0.00    -0.049 Br
ATOM     13  C   UNL     1      34.331 -16.583 -21.974  0.00  0.00    +0.039 C 
ATOM     14  C   UNL     1      33.876 -15.894 -23.099  0.00  0.00    +0.004 C 
ATOM     15  C   UNL     1      34.088 -16.074 -20.698  0.00  0.00    +0.004 C 
ATOM     16  C   UNL     1      33.177 -14.697 -22.948  0.00  0.00    +0.007 C 
ATOM     17  C   UNL     1      33.389 -14.876 -20.548  0.00  0.00    +0.007 C 
ATOM     18  C   UNL     1      32.933 -14.187 -21.672  0.00  0.00    +0.035 C 
ENDBRANCH  11  13
ENDBRANCH   2  11
BRANCH   1  19
ATOM     19  C   UNL     1      36.625 -21.661 -19.312  0.00  0.00    +0.137 C 
BRANCH  19  21
ATOM     20  O   UNL     1      36.026 -22.528 -17.116  0.00  0.00    -0.250 OA
ATOM     21  C   UNL     1      36.571 -21.672 -17.798  0.00  0.00    +0.318 C 
BRANCH  21  22
ATOM     22  O   UNL     1      37.211 -20.598 -17.263  0.00  0.00    -0.480 OA
ATOM     23  H   UNL     1      37.246 -20.490 -16.333  0.00  0.00    +0.295 HD
ENDBRANCH  21  22
ENDBRANCH  19  21
ENDBRANCH   1  19
TORSDOF 6
ENDMDL
MODEL 5
REMARK VINA RESULT:      -9.3      3.405      6.695
REMARK  Name = 60726
REMARK  6 active torsions:
REMARK  status: ('A' for Active; 'I' for Inactive)
REMARK    1  A    between atoms: C_1  and  C_19
REMARK    2  A    between atoms: C_2  and  C_11
REMARK    3  A    between atoms: C_3  and  N_7
REMARK    4  A    between atoms: C_11  and  C_13
REMARK    5  A    between atoms: C_19  and  C_21
REMARK    6  A    between atoms: C_21  and  O_22
REMARK                            x       y       z     vdW  Elec       q    Type
REMARK                         _______ _______ _______ _____ _____    ______ ____
ROOT
ATOM      1  C   UNL     1      34.867 -20.632 -20.264  0.00  0.00    +0.002 C 
ATOM      2  C   UNL     1      34.276 -18.419 -20.922  0.00  0.00    +0.052 C 
ATOM      3  C   UNL     1      35.251 -19.332 -20.593  0.00  0.00    +0.041 C 
ATOM      4  C   UNL     1      33.518 -20.986 -20.276  0.00  0.00    -0.003 C 
ATOM      5  C   UNL     1      32.936 -18.737 -20.942  0.00  0.00    +0.004 C 
ATOM      6  C   UNL     1      32.552 -20.038 -20.615  0.00  0.00    -0.000 C 
ENDROOT
BRANCH   3   7
ATOM      7  N   UNL     1      36.620 -18.977 -20.579  0.00  0.00    -0.357 N 
ATOM      8  H   UNL     1      37.281 -19.577 -20.163  0.00  0.00    +0.142 HD
ATOM      9  H   UNL     1      36.913 -18.130 -20.986  0.00  0.00    +0.142 HD
ENDBRANCH   3   7
BRANCH   2  11
ATOM     10  O   UNL     1      35.290 -16.368 -20.437  0.00  0.00    -0.287 OA
ATOM     11  C   UNL     1      34.650 -17.017 -21.278  0.00  0.00    +0.197 C 
BRANCH  11  13
ATOM     12 BR   UNL     1      33.139 -14.475 -26.652  0.00  0.00    -0.049 Br
ATOM     13  C   UNL     1      34.292 -16.414 -22.551  0.00  0.00    +0.039 C 
ATOM     14  C   UNL     1      33.578 -15.216 -22.581  0.00  0.00    +0.004 C 
ATOM     15  C   UNL     1      34.661 -17.035 -23.745  0.00  0.00    +0.004 C 
ATOM     16  C   UNL     1      33.235 -14.638 -23.803  0.00  0.00    +0.007 C 
ATOM     17  C   UNL     1      34.318 -16.457 -24.967  0.00  0.00    +0.007 C 
ATOM     18  C   UNL     1      33.605 -15.259 -24.996  0.00  0.00    +0.035 C 
ENDBRANCH  11  13
ENDBRANCH   2  11
BRANCH   1  19
ATOM     19  C   UNL     1      35.879 -21.670 -19.898  0.00  0.00    +0.137 C 
BRANCH  19  21
ATOM     20  O   UNL     1      35.591 -22.604 -17.668  0.00  0.00    -0.250 OA
ATOM     21  C   UNL     1      36.114 -21.781 -18.406  0.00  0.00    +0.318 C 
BRANCH  21  22
ATOM     22  O   UNL     1      36.991 -20.842 -17.962  0.00  0.00    -0.480 OA
ATOM     23  H   UNL     1      37.660 -21.079 -17.350  0.00  0.00    +0.295 HD
ENDBRANCH  21  22
ENDBRANCH  19  21
ENDBRANCH   1  19
TORSDOF 6
ENDMDL
MODEL 6
REMARK VINA RESULT:      -9.1      1.799      2.427
REMARK  Name = 60726
REMARK  6 active torsions:
REMARK  status: ('A' for Active; 'I' for Inactive)
REMARK    1  A    between atoms: C_1  and  C_19
REMARK    2  A    between atoms: C_2  and  C_11
REMARK    3  A    between atoms: C_3  and  N_7
REMARK    4  A    between atoms: C_11  and  C_13
REMARK    5  A    between atoms: C_19  and  C_21
REMARK    6  A    between atoms: C_21  and  O_22
REMARK                            x       y       z     vdW  Elec       q    Type
REMARK                         _______ _______ _______ _____ _____    ______ ____
ROOT
ATOM      1  C   UNL     1      33.537 -15.210 -24.479  0.00  0.00    +0.002 C 
ATOM      2  C   UNL     1      34.514 -16.687 -22.883  0.00  0.00    +0.052 C 
ATOM      3  C   UNL     1      33.789 -15.549 -23.149  0.00  0.00    +0.041 C 
ATOM      4  C   UNL     1      34.015 -16.021 -25.508  0.00  0.00    -0.003 C 
ATOM      5  C   UNL     1      35.000 -17.508 -23.878  0.00  0.00    +0.004 C 
ATOM      6  C   UNL     1      34.747 -17.170 -25.207  0.00  0.00    -0.000 C 
ENDROOT
BRANCH   3   7
ATOM      7  N   UNL     1      33.303 -14.724 -22.108  0.00  0.00    -0.357 N 
ATOM      8  H   UNL     1      32.522 -15.006 -21.579  0.00  0.00    +0.142 HD
ATOM      9  H   UNL     1      33.746 -13.867 -21.912  0.00  0.00    +0.142 HD
ENDBRANCH   3   7
BRANCH   2  11
ATOM     10  O   UNL     1      35.214 -16.194 -20.707  0.00  0.00    -0.287 OA
ATOM     11  C   UNL     1      34.804 -17.080 -21.471  0.00  0.00    +0.197 C 
BRANCH  11  13
ATOM     12 BR   UNL     1      34.036 -22.815 -19.434  0.00  0.00    -0.049 Br
ATOM     13  C   UNL     1      34.622 -18.439 -20.988  0.00  0.00    +0.039 C 
ATOM     14  C   UNL     1      33.336 -18.949 -20.805  0.00  0.00    +0.004 C 
ATOM     15  C   UNL     1      35.733 -19.234 -20.707  0.00  0.00    +0.004 C 
ATOM     16  C   UNL     1      33.161 -20.253 -20.343  0.00  0.00    +0.007 C 
ATOM     17  C   UNL     1      35.558 -20.538 -20.244  0.00  0.00    +0.007 C 
ATOM     18  C   UNL     1      34.273 -21.048 -20.062  0.00  0.00    +0.035 C 
ENDBRANCH  11  13
ENDBRANCH   2  11
BRANCH   1  19
ATOM     19  C   UNL     1      32.754 -13.987 -24.831  0.00  0.00    +0.137 C 
BRANCH  19  21
ATOM     20  O   UNL     1      33.768 -12.241 -26.194  0.00  0.00    -0.250 OA
ATOM     21  C   UNL     1      33.623 -12.775 -25.103  0.00  0.00    +0.318 C 
BRANCH  21  22
ATOM     22  O   UNL     1      34.240 -12.334 -23.975  0.00  0.00    -0.480 OA
ATOM     23  H   UNL     1      34.616 -11.476 -23.954  0.00  0.00    +0.295 HD
ENDBRANCH  21  22
ENDBRANCH  19  21
ENDBRANCH   1  19
TORSDOF 6
ENDMDL
MODEL 7
REMARK VINA RESULT:      -9.0      3.236      5.174
REMARK  Name = 60726
REMARK  6 active torsions:
REMARK  status: ('A' for Active; 'I' for Inactive)
REMARK    1  A    between atoms: C_1  and  C_19
REMARK    2  A    between atoms: C_2  and  C_11
REMARK    3  A    between atoms: C_3  and  N_7
REMARK    4  A    between atoms: C_11  and  C_13
REMARK    5  A    between atoms: C_19  and  C_21
REMARK    6  A    between atoms: C_21  and  O_22
REMARK                            x       y       z     vdW  Elec       q    Type
REMARK                         _______ _______ _______ _____ _____    ______ ____
ROOT
ATOM      1  C   UNL     1      34.897 -19.711 -20.621  0.00  0.00    +0.002 C 
ATOM      2  C   UNL     1      34.801 -21.799 -19.476  0.00  0.00    +0.052 C 
ATOM      3  C   UNL     1      34.155 -20.804 -20.172  0.00  0.00    +0.041 C 
ATOM      4  C   UNL     1      36.266 -19.644 -20.364  0.00  0.00    -0.003 C 
ATOM      5  C   UNL     1      36.152 -21.762 -19.206  0.00  0.00    +0.004 C 
ATOM      6  C   UNL     1      36.894 -20.670 -19.656  0.00  0.00    -0.000 C 
ENDROOT
BRANCH   3   7
ATOM      7  N   UNL     1      32.767 -20.868 -20.433  0.00  0.00    -0.357 N 
ATOM      8  H   UNL     1      32.408 -21.571 -21.021  0.00  0.00    +0.142 HD
ATOM      9  H   UNL     1      32.159 -20.209 -20.026  0.00  0.00    +0.142 HD
ENDBRANCH   3   7
BRANCH   2  11
ATOM     10  O   UNL     1      33.899 -23.939 -19.756  0.00  0.00    -0.287 OA
ATOM     11  C   UNL     1      34.039 -22.984 -18.978  0.00  0.00    +0.197 C 
BRANCH  11  13
ATOM     12 BR   UNL     1      31.658 -23.217 -13.330  0.00  0.00    -0.049 Br
ATOM     13  C   UNL     1      33.475 -23.040 -17.639  0.00  0.00    +0.039 C 
ATOM     14  C   UNL     1      34.308 -23.236 -16.537  0.00  0.00    +0.004 C 
ATOM     15  C   UNL     1      32.099 -22.896 -17.455  0.00  0.00    +0.004 C 
ATOM     16  C   UNL     1      33.767 -23.288 -15.253  0.00  0.00    +0.007 C 
ATOM     17  C   UNL     1      31.558 -22.949 -16.171  0.00  0.00    +0.007 C 
ATOM     18  C   UNL     1      32.391 -23.145 -15.070  0.00  0.00    +0.035 C 
ENDBRANCH  11  13
ENDBRANCH   2  11
BRANCH   1  19
ATOM     19  C   UNL     1      34.253 -18.599 -21.383  0.00  0.00    +0.137 C 
BRANCH  19  21
ATOM     20  O   UNL     1      35.150 -16.522 -20.481  0.00  0.00    -0.250 OA
ATOM     21  C   UNL     1      35.075 -17.326 -21.400  0.00  0.00    +0.318 C 
BRANCH  21  22
ATOM     22  O   UNL     1      35.738 -17.170 -22.576  0.00  0.00    -0.480 OA
ATOM     23  H   UNL     1      36.552 -16.706 -22.595  0.00  0.00    +0.295 HD
ENDBRANCH  21  22
ENDBRANCH  19  21
ENDBRANCH   1  19
TORSDOF 6
ENDMDL
MODEL 8
REMARK VINA RESULT:      -9.0      5.277      8.740
REMARK  Name = 60726
REMARK  6 active torsions:
REMARK  status: ('A' for Active; 'I' for Inactive)
REMARK    1  A    between atoms: C_1  and  C_19
REMARK    2  A    between atoms: C_2  and  C_11
REMARK    3  A    between atoms: C_3  and  N_7
REMARK    4  A    between atoms: C_11  and  C_13
REMARK    5  A    between atoms: C_19  and  C_21
REMARK    6  A    between atoms: C_21  and  O_22
REMARK                            x       y       z     vdW  Elec       q    Type
REMARK                         _______ _______ _______ _____ _____    ______ ____
ROOT
ATOM      1  C   UNL     1      34.735 -23.130 -15.411  0.00  0.00    +0.002 C 
ATOM      2  C   UNL     1      35.038 -22.531 -17.697  0.00  0.00    +0.052 C 
ATOM      3  C   UNL     1      34.231 -23.044 -16.709  0.00  0.00    +0.041 C 
ATOM      4  C   UNL     1      36.032 -22.698 -15.136  0.00  0.00    -0.003 C 
ATOM      5  C   UNL     1      36.323 -22.096 -17.458  0.00  0.00    +0.004 C 
ATOM      6  C   UNL     1      36.827 -22.180 -16.159  0.00  0.00    -0.000 C 
ENDROOT
BRANCH   3   7
ATOM      7  N   UNL     1      32.916 -23.485 -16.984  0.00  0.00    -0.357 N 
ATOM      8  H   UNL     1      32.228 -23.452 -16.281  0.00  0.00    +0.142 HD
ATOM      9  H   UNL     1      32.688 -23.824 -17.880  0.00  0.00    +0.142 HD
ENDBRANCH   3   7
BRANCH   2  11
ATOM     10  O   UNL     1      34.075 -23.455 -19.618  0.00  0.00    -0.287 OA
ATOM     11  C   UNL     1      34.532 -22.426 -19.100  0.00  0.00    +0.197 C 
BRANCH  11  13
ATOM     12 BR   UNL     1      34.664 -17.168 -22.255  0.00  0.00    -0.049 Br
ATOM     13  C   UNL     1      34.564 -21.179 -19.847  0.00  0.00    +0.039 C 
ATOM     14  C   UNL     1      35.785 -20.632 -20.243  0.00  0.00    +0.004 C 
ATOM     15  C   UNL     1      33.372 -20.529 -20.170  0.00  0.00    +0.004 C 
ATOM     16  C   UNL     1      35.815 -19.437 -20.961  0.00  0.00    +0.007 C 
ATOM     17  C   UNL     1      33.403 -19.334 -20.887  0.00  0.00    +0.007 C 
ATOM     18  C   UNL     1      34.623 -18.787 -21.283  0.00  0.00    +0.035 C 
ENDBRANCH  11  13
ENDBRANCH   2  11
BRANCH   1  19
ATOM     19  C   UNL     1      33.907 -23.678 -14.293  0.00  0.00    +0.137 C 
BRANCH  19  21
ATOM     20  O   UNL     1      34.784 -23.828 -12.026  0.00  0.00    -0.250 OA
ATOM     21  C   UNL     1      34.732 -24.266 -13.167  0.00  0.00    +0.318 C 
BRANCH  21  22
ATOM     22  O   UNL     1      35.427 -25.363 -13.570  0.00  0.00    -0.480 OA
ATOM     23  H   UNL     1      35.512 -26.099 -12.997  0.00  0.00    +0.295 HD
ENDBRANCH  21  22
ENDBRANCH  19  21
ENDBRANCH   1  19
TORSDOF 6
ENDMDL
MODEL 9
REMARK VINA RESULT:      -8.9      9.536     11.208
REMARK  Name = 60726
REMARK  6 active torsions:
REMARK  status: ('A' for Active; 'I' for Inactive)
REMARK    1  A    between atoms: C_1  and  C_19
REMARK    2  A    between atoms: C_2  and  C_11
REMARK    3  A    between atoms: C_3  and  N_7
REMARK    4  A    between atoms: C_11  and  C_13
REMARK    5  A    between atoms: C_19  and  C_21
REMARK    6  A    between atoms: C_21  and  O_22
REMARK                            x       y       z     vdW  Elec       q    Type
REMARK                         _______ _______ _______ _____ _____    ______ ____
ROOT
ATOM      1  C   UNL     1      37.745 -24.836 -14.634  0.00  0.00    +0.002 C 
ATOM      2  C   UNL     1      35.610 -23.924 -14.093  0.00  0.00    +0.052 C 
ATOM      3  C   UNL     1      36.554 -24.908 -13.911  0.00  0.00    +0.041 C 
ATOM      4  C   UNL     1      37.961 -23.779 -15.518  0.00  0.00    -0.003 C 
ATOM      5  C   UNL     1      35.794 -22.868 -14.959  0.00  0.00    +0.004 C 
ATOM      6  C   UNL     1      36.985 -22.795 -15.681  0.00  0.00    -0.000 C 
ENDROOT
BRANCH   3   7
ATOM      7  N   UNL     1      36.338 -25.981 -13.016  0.00  0.00    -0.357 N 
ATOM      8  H   UNL     1      35.724 -26.711 -13.259  0.00  0.00    +0.142 HD
ATOM      9  H   UNL     1      36.803 -25.999 -12.148  0.00  0.00    +0.142 HD
ENDBRANCH   3   7
BRANCH   2  11
ATOM     10  O   UNL     1      34.387 -23.945 -12.099  0.00  0.00    -0.287 OA
ATOM     11  C   UNL     1      34.322 -23.970 -13.337  0.00  0.00    +0.197 C 
BRANCH  11  13
ATOM     12 BR   UNL     1      28.874 -24.263 -16.141  0.00  0.00    -0.049 Br
ATOM     13  C   UNL     1      33.031 -24.040 -14.002  0.00  0.00    +0.039 C 
ATOM     14  C   UNL     1      32.120 -25.039 -13.656  0.00  0.00    +0.004 C 
ATOM     15  C   UNL     1      32.702 -23.108 -14.987  0.00  0.00    +0.004 C 
ATOM     16  C   UNL     1      30.882 -25.105 -14.293  0.00  0.00    +0.007 C 
ATOM     17  C   UNL     1      31.463 -23.175 -15.624  0.00  0.00    +0.007 C 
ATOM     18  C   UNL     1      30.553 -24.173 -15.277  0.00  0.00    +0.035 C 
ENDBRANCH  11  13
ENDBRANCH   2  11
BRANCH   1  19
ATOM     19  C   UNL     1      38.809 -25.873 -14.479  0.00  0.00    +0.137 C 
BRANCH  19  21
ATOM     20  O   UNL     1      40.907 -24.644 -14.340  0.00  0.00    -0.250 OA
ATOM     21  C   UNL     1      40.173 -25.410 -14.949  0.00  0.00    +0.318 C 
BRANCH  21  22
ATOM     22  O   UNL     1      40.502 -25.951 -16.152  0.00  0.00    -0.480 OA
ATOM     23  H   UNL     1      39.881 -25.942 -16.854  0.00  0.00    +0.295 HD
ENDBRANCH  21  22
ENDBRANCH  19  21
ENDBRANCH   1  19
TORSDOF 6
ENDMDL
