MODEL 1
REMARK VINA RESULT:     -10.5      0.000      0.000
REMARK  Name = 51042438
REMARK  7 active torsions:
REMARK  status: ('A' for Active; 'I' for Inactive)
REMARK    1  A    between atoms: N_2  and  C_18
REMARK    2  A    between atoms: C_3  and  C_7
REMARK    3  A    between atoms: C_8  and  C_14
REMARK    4  A    between atoms: C_18  and  C_19
REMARK    5  A    between atoms: C_18  and  C_28
REMARK    6  A    between atoms: C_19  and  C_22
REMARK    7  A    between atoms: C_28  and  N_29
REMARK                            x       y       z     vdW  Elec       q    Type
REMARK                         _______ _______ _______ _____ _____    ______ ____
ROOT
ATOM      1  O   UNL     1      34.985 -16.216 -21.241  0.00  0.00    -0.267 OA
ATOM      2  N   UNL     1      34.527 -17.314 -23.231  0.00  0.00    -0.302 N 
ATOM      3  C   UNL     1      34.613 -16.202 -22.412  0.00  0.00    +0.281 C 
ATOM      4  H   UNL     1      34.216 -17.198 -24.158  0.00  0.00    +0.150 HD
ENDROOT
BRANCH   3   7
ATOM      5 CL   UNL     1      33.128 -13.167 -26.272  0.00  0.00    -0.042 Cl
ATOM      6  O   UNL     1      33.918 -14.904 -24.355  0.00  0.00    -0.438 OA
ATOM      7  C   UNL     1      34.190 -14.917 -23.023  0.00  0.00    +0.200 C 
ATOM      8  C   UNL     1      33.598 -12.830 -23.549  0.00  0.00    +0.065 C 
ATOM      9  C   UNL     1      34.008 -13.665 -22.482  0.00  0.00    +0.048 C 
ATOM     10  C   UNL     1      33.558 -13.631 -24.666  0.00  0.00    +0.205 C 
BRANCH   8  14
ATOM     11 CL   UNL     1      35.198 -10.413 -25.239  0.00  0.00    -0.079 Cl
ATOM     12  N   UNL     1      32.290 -10.820 -22.748  0.00  0.00    -0.209 N 
ATOM     13  N   UNL     1      32.220  -9.484 -22.884  0.00  0.00    -0.175 NA
ATOM     14  C   UNL     1      33.278 -11.398 -23.489  0.00  0.00    +0.085 C 
ATOM     15  C   UNL     1      33.897 -10.370 -24.157  0.00  0.00    +0.093 C 
ATOM     16  C   UNL     1      31.358 -11.487 -21.868  0.00  0.00    +0.140 C 
ATOM     17  C   UNL     1      33.204  -9.216 -23.747  0.00  0.00    +0.130 C 
ENDBRANCH   8  14
ENDBRANCH   3   7
BRANCH   2  18
ATOM     18  C   UNL     1      34.879 -18.643 -22.772  0.00  0.00    +0.055 C 
BRANCH  18  19
ATOM     19  C   UNL     1      33.828 -19.175 -21.780  0.00  0.00    +0.044 C 
BRANCH  19  22
ATOM     20  F   UNL     1      33.330 -22.548 -18.281  0.00  0.00    -0.202 F 
ATOM     21  F   UNL     1      36.030 -22.571 -17.851  0.00  0.00    -0.202 F 
ATOM     22  C   UNL     1      34.418 -20.085 -20.728  0.00  0.00    -0.018 C 
ATOM     23  C   UNL     1      33.585 -20.913 -19.974  0.00  0.00    +0.028 C 
ATOM     24  C   UNL     1      35.797 -20.097 -20.509  0.00  0.00    -0.002 C 
ATOM     25  C   UNL     1      34.130 -21.753 -19.003  0.00  0.00    +0.167 C 
ATOM     26  C   UNL     1      36.341 -20.937 -19.537  0.00  0.00    +0.032 C 
ATOM     27  C   UNL     1      35.508 -21.765 -18.784  0.00  0.00    +0.167 C 
ENDBRANCH  19  22
ENDBRANCH  18  19
BRANCH  18  28
ATOM     28  C   UNL     1      35.044 -19.559 -23.995  0.00  0.00    -0.066 C 
BRANCH  28  29
ATOM     29  N   UNL     1      34.368 -19.027 -25.172  0.00  0.00    +0.382 N 
ATOM     30  H   UNL     1      34.094 -19.796 -25.783  0.00  0.00    -0.089 HD
ATOM     31  H   UNL     1      34.998 -18.402 -25.673  0.00  0.00    -0.089 HD
ATOM     32  H   UNL     1      33.536 -18.512 -24.882  0.00  0.00    -0.089 HD
ENDBRANCH  28  29
ENDBRANCH  18  28
ENDBRANCH   2  18
TORSDOF 7
ENDMDL
MODEL 2
REMARK VINA RESULT:     -10.4      3.436      5.146
REMARK  Name = 51042438
REMARK  7 active torsions:
REMARK  status: ('A' for Active; 'I' for Inactive)
REMARK    1  A    between atoms: N_2  and  C_18
REMARK    2  A    between atoms: C_3  and  C_7
REMARK    3  A    between atoms: C_8  and  C_14
REMARK    4  A    between atoms: C_18  and  C_19
REMARK    5  A    between atoms: C_18  and  C_28
REMARK    6  A    between atoms: C_19  and  C_22
REMARK    7  A    between atoms: C_28  and  N_29
REMARK                            x       y       z     vdW  Elec       q    Type
REMARK                         _______ _______ _______ _____ _____    ______ ____
ROOT
ATOM      1  O   UNL     1      33.452 -12.616 -24.856  0.00  0.00    -0.267 OA
ATOM      2  N   UNL     1      32.996 -13.013 -22.619  0.00  0.00    -0.302 N 
ATOM      3  C   UNL     1      33.203 -12.208 -23.725  0.00  0.00    +0.281 C 
ATOM      4  H   UNL     1      32.802 -12.589 -21.752  0.00  0.00    +0.150 HD
ENDROOT
BRANCH   3   7
ATOM      5 CL   UNL     1      34.944  -7.387 -23.919  0.00  0.00    -0.042 Cl
ATOM      6  O   UNL     1      34.177  -9.980 -23.902  0.00  0.00    -0.438 OA
ATOM      7  C   UNL     1      33.136 -10.745 -23.479  0.00  0.00    +0.200 C 
ATOM      8  C   UNL     1      32.660  -8.635 -22.931  0.00  0.00    +0.065 C 
ATOM      9  C   UNL     1      32.178  -9.964 -22.875  0.00  0.00    +0.048 C 
ATOM     10  C   UNL     1      33.879  -8.698 -23.565  0.00  0.00    +0.205 C 
BRANCH   8  14
ATOM     11 CL   UNL     1      31.206  -6.268 -24.815  0.00  0.00    -0.079 Cl
ATOM     12  N   UNL     1      31.878  -7.067 -21.108  0.00  0.00    -0.209 N 
ATOM     13  N   UNL     1      31.229  -5.904 -20.923  0.00  0.00    -0.175 NA
ATOM     14  C   UNL     1      32.005  -7.425 -22.418  0.00  0.00    +0.085 C 
ATOM     15  C   UNL     1      31.396  -6.428 -23.140  0.00  0.00    +0.093 C 
ATOM     16  C   UNL     1      32.361  -7.793 -19.956  0.00  0.00    +0.140 C 
ATOM     17  C   UNL     1      30.937  -5.519 -22.169  0.00  0.00    +0.130 C 
ENDBRANCH   8  14
ENDBRANCH   3   7
BRANCH   2  18
ATOM     18  C   UNL     1      33.055 -14.459 -22.692  0.00  0.00    +0.055 C 
BRANCH  18  19
ATOM     19  C   UNL     1      34.514 -14.943 -22.782  0.00  0.00    +0.044 C 
BRANCH  19  22
ATOM     20  F   UNL     1      35.317 -19.708 -22.057  0.00  0.00    -0.202 F 
ATOM     21  F   UNL     1      34.968 -20.221 -24.720  0.00  0.00    -0.202 F 
ATOM     22  C   UNL     1      34.636 -16.357 -23.301  0.00  0.00    -0.018 C 
ATOM     23  C   UNL     1      34.927 -17.401 -22.422  0.00  0.00    +0.028 C 
ATOM     24  C   UNL     1      34.457 -16.619 -24.660  0.00  0.00    -0.002 C 
ATOM     25  C   UNL     1      35.038 -18.706 -22.901  0.00  0.00    +0.167 C 
ATOM     26  C   UNL     1      34.569 -17.924 -25.139  0.00  0.00    +0.032 C 
ATOM     27  C   UNL     1      34.859 -18.968 -24.260  0.00  0.00    +0.167 C 
ENDBRANCH  19  22
ENDBRANCH  18  19
BRANCH  18  28
ATOM     28  C   UNL     1      32.320 -15.044 -21.476  0.00  0.00    -0.066 C 
BRANCH  28  29
ATOM     29  N   UNL     1      33.098 -14.912 -20.250  0.00  0.00    +0.382 N 
ATOM     30  H   UNL     1      33.877 -15.571 -20.270  0.00  0.00    -0.089 HD
ATOM     31  H   UNL     1      32.503 -15.112 -19.447  0.00  0.00    -0.089 HD
ATOM     32  H   UNL     1      33.460 -13.961 -20.178  0.00  0.00    -0.089 HD
ENDBRANCH  28  29
ENDBRANCH  18  28
ENDBRANCH   2  18
TORSDOF 7
ENDMDL
MODEL 3
REMARK VINA RESULT:     -10.3      3.480      5.292
REMARK  Name = 51042438
REMARK  7 active torsions:
REMARK  status: ('A' for Active; 'I' for Inactive)
REMARK    1  A    between atoms: N_2  and  C_18
REMARK    2  A    between atoms: C_3  and  C_7
REMARK    3  A    between atoms: C_8  and  C_14
REMARK    4  A    between atoms: C_18  and  C_19
REMARK    5  A    between atoms: C_18  and  C_28
REMARK    6  A    between atoms: C_19  and  C_22
REMARK    7  A    between atoms: C_28  and  N_29
REMARK                            x       y       z     vdW  Elec       q    Type
REMARK                         _______ _______ _______ _____ _____    ______ ____
ROOT
ATOM      1  O   UNL     1      33.701 -12.599 -24.780  0.00  0.00    -0.267 OA
ATOM      2  N   UNL     1      32.969 -12.999 -22.617  0.00  0.00    -0.302 N 
ATOM      3  C   UNL     1      33.311 -12.192 -23.689  0.00  0.00    +0.281 C 
ATOM      4  H   UNL     1      32.666 -12.575 -21.781  0.00  0.00    +0.150 HD
ENDROOT
BRANCH   3   7
ATOM      5 CL   UNL     1      35.005  -7.351 -23.779  0.00  0.00    -0.042 Cl
ATOM      6  O   UNL     1      34.269  -9.954 -23.806  0.00  0.00    -0.438 OA
ATOM      7  C   UNL     1      33.210 -10.730 -23.453  0.00  0.00    +0.200 C 
ATOM      8  C   UNL     1      32.674  -8.624 -22.945  0.00  0.00    +0.065 C 
ATOM      9  C   UNL     1      32.204  -9.959 -22.917  0.00  0.00    +0.048 C 
ATOM     10  C   UNL     1      33.934  -8.674 -23.494  0.00  0.00    +0.205 C 
BRANCH   8  14
ATOM     11 CL   UNL     1      32.609  -7.512 -19.779  0.00  0.00    -0.079 Cl
ATOM     12  N   UNL     1      31.237  -6.566 -23.250  0.00  0.00    -0.209 N 
ATOM     13  N   UNL     1      30.701  -5.542 -22.564  0.00  0.00    -0.175 NA
ATOM     14  C   UNL     1      31.971  -7.421 -22.482  0.00  0.00    +0.085 C 
ATOM     15  C   UNL     1      31.911  -6.922 -21.203  0.00  0.00    +0.093 C 
ATOM     16  C   UNL     1      30.995  -6.664 -24.672  0.00  0.00    +0.140 C 
ATOM     17  C   UNL     1      31.117  -5.765 -21.314  0.00  0.00    +0.130 C 
ENDBRANCH   8  14
ENDBRANCH   3   7
BRANCH   2  18
ATOM     18  C   UNL     1      33.040 -14.445 -22.683  0.00  0.00    +0.055 C 
BRANCH  18  19
ATOM     19  C   UNL     1      34.497 -14.913 -22.858  0.00  0.00    +0.044 C 
BRANCH  19  22
ATOM     20  F   UNL     1      35.347 -19.684 -22.239  0.00  0.00    -0.202 F 
ATOM     21  F   UNL     1      34.891 -20.159 -24.893  0.00  0.00    -0.202 F 
ATOM     22  C   UNL     1      34.602 -16.319 -23.404  0.00  0.00    -0.018 C 
ATOM     23  C   UNL     1      34.934 -17.374 -22.553  0.00  0.00    +0.028 C 
ATOM     24  C   UNL     1      34.369 -16.561 -24.758  0.00  0.00    -0.002 C 
ATOM     25  C   UNL     1      35.030 -18.671 -23.056  0.00  0.00    +0.167 C 
ATOM     26  C   UNL     1      34.467 -17.859 -25.260  0.00  0.00    +0.032 C 
ATOM     27  C   UNL     1      34.797 -18.914 -24.410  0.00  0.00    +0.167 C 
ENDBRANCH  19  22
ENDBRANCH  18  19
BRANCH  18  28
ATOM     28  C   UNL     1      32.387 -15.028 -21.420  0.00  0.00    -0.066 C 
BRANCH  28  29
ATOM     29  N   UNL     1      33.311 -15.062 -20.293  0.00  0.00    +0.382 N 
ATOM     30  H   UNL     1      33.029 -14.366 -19.602  0.00  0.00    -0.089 HD
ATOM     31  H   UNL     1      34.254 -14.854 -20.619  0.00  0.00    -0.089 HD
ATOM     32  H   UNL     1      33.293 -15.989 -19.866  0.00  0.00    -0.089 HD
ENDBRANCH  28  29
ENDBRANCH  18  28
ENDBRANCH   2  18
TORSDOF 7
ENDMDL
MODEL 4
REMARK VINA RESULT:     -10.2      1.200      1.561
REMARK  Name = 51042438
REMARK  7 active torsions:
REMARK  status: ('A' for Active; 'I' for Inactive)
REMARK    1  A    between atoms: N_2  and  C_18
REMARK    2  A    between atoms: C_3  and  C_7
REMARK    3  A    between atoms: C_8  and  C_14
REMARK    4  A    between atoms: C_18  and  C_19
REMARK    5  A    between atoms: C_18  and  C_28
REMARK    6  A    between atoms: C_19  and  C_22
REMARK    7  A    between atoms: C_28  and  N_29
REMARK                            x       y       z     vdW  Elec       q    Type
REMARK                         _______ _______ _______ _____ _____    ______ ____
ROOT
ATOM      1  O   UNL     1      34.962 -16.129 -21.226  0.00  0.00    -0.267 OA
ATOM      2  N   UNL     1      34.498 -17.210 -23.224  0.00  0.00    -0.302 N 
ATOM      3  C   UNL     1      34.589 -16.104 -22.396  0.00  0.00    +0.281 C 
ATOM      4  H   UNL     1      34.187 -17.086 -24.150  0.00  0.00    +0.150 HD
ENDROOT
BRANCH   3   7
ATOM      5 CL   UNL     1      33.200 -13.014 -26.247  0.00  0.00    -0.042 Cl
ATOM      6  O   UNL     1      33.946 -14.778 -24.337  0.00  0.00    -0.438 OA
ATOM      7  C   UNL     1      34.170 -14.813 -22.997  0.00  0.00    +0.200 C 
ATOM      8  C   UNL     1      33.569 -12.725 -23.503  0.00  0.00    +0.065 C 
ATOM      9  C   UNL     1      33.953 -13.574 -22.439  0.00  0.00    +0.048 C 
ATOM     10  C   UNL     1      33.580 -13.504 -24.637  0.00  0.00    +0.205 C 
BRANCH   8  14
ATOM     11 CL   UNL     1      31.024 -11.429 -21.739  0.00  0.00    -0.079 Cl
ATOM     12  N   UNL     1      33.879 -10.276 -24.052  0.00  0.00    -0.209 N 
ATOM     13  N   UNL     1      33.351  -9.064 -23.807  0.00  0.00    -0.175 NA
ATOM     14  C   UNL     1      33.227 -11.298 -23.428  0.00  0.00    +0.085 C 
ATOM     15  C   UNL     1      32.202 -10.715 -22.724  0.00  0.00    +0.093 C 
ATOM     16  C   UNL     1      35.032 -10.378 -24.917  0.00  0.00    +0.140 C 
ATOM     17  C   UNL     1      32.327  -9.340 -22.994  0.00  0.00    +0.130 C 
ENDBRANCH   8  14
ENDBRANCH   3   7
BRANCH   2  18
ATOM     18  C   UNL     1      34.846 -18.544 -22.775  0.00  0.00    +0.055 C 
BRANCH  18  19
ATOM     19  C   UNL     1      33.801 -19.074 -21.776  0.00  0.00    +0.044 C 
BRANCH  19  22
ATOM     20  F   UNL     1      33.296 -22.523 -18.352  0.00  0.00    -0.202 F 
ATOM     21  F   UNL     1      36.000 -22.582 -17.945  0.00  0.00    -0.202 F 
ATOM     22  C   UNL     1      34.390 -20.014 -20.750  0.00  0.00    -0.018 C 
ATOM     23  C   UNL     1      33.555 -20.851 -20.009  0.00  0.00    +0.028 C 
ATOM     24  C   UNL     1      35.770 -20.045 -20.543  0.00  0.00    -0.002 C 
ATOM     25  C   UNL     1      34.099 -21.719 -19.063  0.00  0.00    +0.167 C 
ATOM     26  C   UNL     1      36.313 -20.912 -19.595  0.00  0.00    +0.032 C 
ATOM     27  C   UNL     1      35.478 -21.750 -18.855  0.00  0.00    +0.167 C 
ENDBRANCH  19  22
ENDBRANCH  18  19
BRANCH  18  28
ATOM     28  C   UNL     1      34.994 -19.454 -24.004  0.00  0.00    -0.066 C 
BRANCH  28  29
ATOM     29  N   UNL     1      34.278 -18.930 -25.162  0.00  0.00    +0.382 N 
ATOM     30  H   UNL     1      34.946 -18.687 -25.893  0.00  0.00    -0.089 HD
ATOM     31  H   UNL     1      33.754 -18.099 -24.890  0.00  0.00    -0.089 HD
ATOM     32  H   UNL     1      33.634 -19.640 -25.513  0.00  0.00    -0.089 HD
ENDBRANCH  28  29
ENDBRANCH  18  28
ENDBRANCH   2  18
TORSDOF 7
ENDMDL
MODEL 5
REMARK VINA RESULT:     -10.0      4.628      7.198
REMARK  Name = 51042438
REMARK  7 active torsions:
REMARK  status: ('A' for Active; 'I' for Inactive)
REMARK    1  A    between atoms: N_2  and  C_18
REMARK    2  A    between atoms: C_3  and  C_7
REMARK    3  A    between atoms: C_8  and  C_14
REMARK    4  A    between atoms: C_18  and  C_19
REMARK    5  A    between atoms: C_18  and  C_28
REMARK    6  A    between atoms: C_19  and  C_22
REMARK    7  A    between atoms: C_28  and  N_29
REMARK                            x       y       z     vdW  Elec       q    Type
REMARK                         _______ _______ _______ _____ _____    ______ ____
ROOT
ATOM      1  O   UNL     1      32.866 -22.420 -19.538  0.00  0.00    -0.267 OA
ATOM      2  N   UNL     1      34.582 -22.103 -18.012  0.00  0.00    -0.302 N 
ATOM      3  C   UNL     1      33.879 -21.829 -19.172  0.00  0.00    +0.281 C 
ATOM      4  H   UNL     1      35.385 -21.571 -17.806  0.00  0.00    +0.150 HD
ENDROOT
BRANCH   3   7
ATOM      5 CL   UNL     1      37.652 -19.086 -21.305  0.00  0.00    -0.042 Cl
ATOM      6  O   UNL     1      35.790 -20.633 -20.099  0.00  0.00    -0.438 OA
ATOM      7  C   UNL     1      34.437 -20.750 -20.025  0.00  0.00    +0.200 C 
ATOM      8  C   UNL     1      34.870 -19.035 -21.386  0.00  0.00    +0.065 C 
ATOM      9  C   UNL     1      33.827 -19.790 -20.798  0.00  0.00    +0.048 C 
ATOM     10  C   UNL     1      36.044 -19.588 -20.930  0.00  0.00    +0.205 C 
BRANCH   8  14
ATOM     11 CL   UNL     1      34.700 -15.817 -20.449  0.00  0.00    -0.079 Cl
ATOM     12  N   UNL     1      34.667 -17.945 -23.658  0.00  0.00    -0.209 N 
ATOM     13  N   UNL     1      34.552 -16.741 -24.245  0.00  0.00    -0.175 NA
ATOM     14  C   UNL     1      34.740 -17.891 -22.297  0.00  0.00    +0.085 C 
ATOM     15  C   UNL     1      34.666 -16.559 -21.970  0.00  0.00    +0.093 C 
ATOM     16  C   UNL     1      34.700 -19.129 -24.486  0.00  0.00    +0.140 C 
ATOM     17  C   UNL     1      34.552 -15.898 -23.207  0.00  0.00    +0.130 C 
ENDBRANCH   8  14
ENDBRANCH   3   7
BRANCH   2  18
ATOM     18  C   UNL     1      34.178 -23.145 -17.089  0.00  0.00    +0.055 C 
BRANCH  18  19
ATOM     19  C   UNL     1      34.790 -22.907 -15.695  0.00  0.00    +0.044 C 
BRANCH  19  22
ATOM     20  F   UNL     1      36.552 -27.362 -14.737  0.00  0.00    -0.202 F 
ATOM     21  F   UNL     1      39.095 -26.372 -14.564  0.00  0.00    -0.202 F 
ATOM     22  C   UNL     1      35.944 -23.835 -15.392  0.00  0.00    -0.018 C 
ATOM     23  C   UNL     1      35.711 -25.198 -15.200  0.00  0.00    +0.028 C 
ATOM     24  C   UNL     1      37.241 -23.330 -15.304  0.00  0.00    -0.002 C 
ATOM     25  C   UNL     1      36.776 -26.055 -14.921  0.00  0.00    +0.167 C 
ATOM     26  C   UNL     1      38.306 -24.187 -15.025  0.00  0.00    +0.032 C 
ATOM     27  C   UNL     1      38.073 -25.549 -14.833  0.00  0.00    +0.167 C 
ENDBRANCH  19  22
ENDBRANCH  18  19
BRANCH  18  28
ATOM     28  C   UNL     1      32.644 -23.202 -17.051  0.00  0.00    -0.066 C 
BRANCH  28  29
ATOM     29  N   UNL     1      32.142 -23.559 -15.729  0.00  0.00    +0.382 N 
ATOM     30  H   UNL     1      32.259 -24.561 -15.580  0.00  0.00    -0.089 HD
ATOM     31  H   UNL     1      31.154 -23.318 -15.664  0.00  0.00    -0.089 HD
ATOM     32  H   UNL     1      32.665 -23.047 -15.017  0.00  0.00    -0.089 HD
ENDBRANCH  28  29
ENDBRANCH  18  28
ENDBRANCH   2  18
TORSDOF 7
ENDMDL
MODEL 6
REMARK VINA RESULT:     -10.0      4.689      7.235
REMARK  Name = 51042438
REMARK  7 active torsions:
REMARK  status: ('A' for Active; 'I' for Inactive)
REMARK    1  A    between atoms: N_2  and  C_18
REMARK    2  A    between atoms: C_3  and  C_7
REMARK    3  A    between atoms: C_8  and  C_14
REMARK    4  A    between atoms: C_18  and  C_19
REMARK    5  A    between atoms: C_18  and  C_28
REMARK    6  A    between atoms: C_19  and  C_22
REMARK    7  A    between atoms: C_28  and  N_29
REMARK                            x       y       z     vdW  Elec       q    Type
REMARK                         _______ _______ _______ _____ _____    ______ ____
ROOT
ATOM      1  O   UNL     1      32.784 -22.403 -19.413  0.00  0.00    -0.267 OA
ATOM      2  N   UNL     1      34.578 -22.181 -17.962  0.00  0.00    -0.302 N 
ATOM      3  C   UNL     1      33.841 -21.867 -19.090  0.00  0.00    +0.281 C 
ATOM      4  H   UNL     1      35.416 -21.692 -17.790  0.00  0.00    +0.150 HD
ENDROOT
BRANCH   3   7
ATOM      5 CL   UNL     1      37.651 -19.098 -21.123  0.00  0.00    -0.042 Cl
ATOM      6  O   UNL     1      35.767 -20.649 -19.956  0.00  0.00    -0.438 OA
ATOM      7  C   UNL     1      34.418 -20.815 -19.965  0.00  0.00    +0.200 C 
ATOM      8  C   UNL     1      34.881 -19.161 -21.390  0.00  0.00    +0.065 C 
ATOM      9  C   UNL     1      33.827 -19.923 -20.830  0.00  0.00    +0.048 C 
ATOM     10  C   UNL     1      36.040 -19.641 -20.827  0.00  0.00    +0.205 C 
BRANCH   8  14
ATOM     11 CL   UNL     1      34.752 -19.561 -24.720  0.00  0.00    -0.079 Cl
ATOM     12  N   UNL     1      34.706 -16.740 -22.099  0.00  0.00    -0.209 N 
ATOM     13  N   UNL     1      34.610 -15.965 -23.193  0.00  0.00    -0.175 NA
ATOM     14  C   UNL     1      34.772 -18.075 -22.372  0.00  0.00    +0.085 C 
ATOM     15  C   UNL     1      34.716 -18.181 -23.741  0.00  0.00    +0.093 C 
ATOM     16  C   UNL     1      34.732 -16.116 -20.796  0.00  0.00    +0.140 C 
ATOM     17  C   UNL     1      34.617 -16.852 -24.193  0.00  0.00    +0.130 C 
ENDBRANCH   8  14
ENDBRANCH   3   7
BRANCH   2  18
ATOM     18  C   UNL     1      34.161 -23.204 -17.024  0.00  0.00    +0.055 C 
BRANCH  18  19
ATOM     19  C   UNL     1      34.779 -22.956 -15.635  0.00  0.00    +0.044 C 
BRANCH  19  22
ATOM     20  F   UNL     1      36.656 -27.322 -14.501  0.00  0.00    -0.202 F 
ATOM     21  F   UNL     1      39.192 -26.302 -14.564  0.00  0.00    -0.202 F 
ATOM     22  C   UNL     1      35.961 -23.852 -15.348  0.00  0.00    -0.018 C 
ATOM     23  C   UNL     1      35.759 -25.201 -15.050  0.00  0.00    +0.028 C 
ATOM     24  C   UNL     1      37.256 -23.332 -15.381  0.00  0.00    -0.002 C 
ATOM     25  C   UNL     1      36.850 -26.028 -14.786  0.00  0.00    +0.167 C 
ATOM     26  C   UNL     1      38.347 -24.160 -15.116  0.00  0.00    +0.032 C 
ATOM     27  C   UNL     1      38.145 -25.508 -14.819  0.00  0.00    +0.167 C 
ENDBRANCH  19  22
ENDBRANCH  18  19
BRANCH  18  28
ATOM     28  C   UNL     1      32.625 -23.237 -16.982  0.00  0.00    -0.066 C 
BRANCH  28  29
ATOM     29  N   UNL     1      32.116 -23.256 -15.616  0.00  0.00    +0.382 N 
ATOM     30  H   UNL     1      32.862 -23.534 -14.979  0.00  0.00    -0.089 HD
ATOM     31  H   UNL     1      31.346 -23.920 -15.549  0.00  0.00    -0.089 HD
ATOM     32  H   UNL     1      31.785 -22.324 -15.364  0.00  0.00    -0.089 HD
ENDBRANCH  28  29
ENDBRANCH  18  28
ENDBRANCH   2  18
TORSDOF 7
ENDMDL
MODEL 7
REMARK VINA RESULT:      -9.9      2.293      2.736
REMARK  Name = 51042438
REMARK  7 active torsions:
REMARK  status: ('A' for Active; 'I' for Inactive)
REMARK    1  A    between atoms: N_2  and  C_18
REMARK    2  A    between atoms: C_3  and  C_7
REMARK    3  A    between atoms: C_8  and  C_14
REMARK    4  A    between atoms: C_18  and  C_19
REMARK    5  A    between atoms: C_18  and  C_28
REMARK    6  A    between atoms: C_19  and  C_22
REMARK    7  A    between atoms: C_28  and  N_29
REMARK                            x       y       z     vdW  Elec       q    Type
REMARK                         _______ _______ _______ _____ _____    ______ ____
ROOT
ATOM      1  O   UNL     1      34.957 -16.132 -19.877  0.00  0.00    -0.267 OA
ATOM      2  N   UNL     1      34.985 -17.638 -21.639  0.00  0.00    -0.302 N 
ATOM      3  C   UNL     1      34.766 -16.400 -21.060  0.00  0.00    +0.281 C 
ATOM      4  H   UNL     1      34.801 -17.753 -22.600  0.00  0.00    +0.150 HD
ENDROOT
BRANCH   3   7
ATOM      5 CL   UNL     1      31.861 -12.348 -22.264  0.00  0.00    -0.042 Cl
ATOM      6  O   UNL     1      33.324 -14.476 -21.462  0.00  0.00    -0.438 OA
ATOM      7  C   UNL     1      34.236 -15.349 -21.966  0.00  0.00    +0.200 C 
ATOM      8  C   UNL     1      33.694 -13.948 -23.616  0.00  0.00    +0.065 C 
ATOM      9  C   UNL     1      34.496 -15.067 -23.287  0.00  0.00    +0.048 C 
ATOM     10  C   UNL     1      33.000 -13.627 -22.472  0.00  0.00    +0.205 C 
BRANCH   8  14
ATOM     11 CL   UNL     1      34.389 -10.707 -24.143  0.00  0.00    -0.079 Cl
ATOM     12  N   UNL     1      33.239 -13.819 -26.099  0.00  0.00    -0.209 N 
ATOM     13  N   UNL     1      33.250 -12.956 -27.131  0.00  0.00    -0.175 NA
ATOM     14  C   UNL     1      33.609 -13.261 -24.911  0.00  0.00    +0.085 C 
ATOM     15  C   UNL     1      33.880 -11.943 -25.183  0.00  0.00    +0.093 C 
ATOM     16  C   UNL     1      32.852 -15.191 -26.334  0.00  0.00    +0.140 C 
ATOM     17  C   UNL     1      33.642 -11.812 -26.564  0.00  0.00    +0.130 C 
ENDBRANCH   8  14
ENDBRANCH   3   7
BRANCH   2  18
ATOM     18  C   UNL     1      35.476 -18.772 -20.881  0.00  0.00    +0.055 C 
BRANCH  18  19
ATOM     19  C   UNL     1      34.558 -19.994 -21.070  0.00  0.00    +0.044 C 
BRANCH  19  22
ATOM     20  F   UNL     1      32.231 -22.840 -17.851  0.00  0.00    -0.202 F 
ATOM     21  F   UNL     1      34.596 -23.481 -16.637  0.00  0.00    -0.202 F 
ATOM     22  C   UNL     1      34.568 -20.928 -19.882  0.00  0.00    -0.018 C 
ATOM     23  C   UNL     1      33.371 -21.463 -19.405  0.00  0.00    +0.028 C 
ATOM     24  C   UNL     1      35.775 -21.256 -19.263  0.00  0.00    -0.002 C 
ATOM     25  C   UNL     1      33.381 -22.326 -18.309  0.00  0.00    +0.167 C 
ATOM     26  C   UNL     1      35.784 -22.119 -18.167  0.00  0.00    +0.032 C 
ATOM     27  C   UNL     1      34.587 -22.654 -17.689  0.00  0.00    +0.167 C 
ENDBRANCH  19  22
ENDBRANCH  18  19
BRANCH  18  28
ATOM     28  C   UNL     1      36.924 -19.058 -21.305  0.00  0.00    -0.066 C 
BRANCH  28  29
ATOM     29  N   UNL     1      37.275 -18.380 -22.548  0.00  0.00    +0.382 N 
ATOM     30  H   UNL     1      36.769 -18.809 -23.323  0.00  0.00    -0.089 HD
ATOM     31  H   UNL     1      38.278 -18.463 -22.709  0.00  0.00    -0.089 HD
ATOM     32  H   UNL     1      37.020 -17.394 -22.481  0.00  0.00    -0.089 HD
ENDBRANCH  28  29
ENDBRANCH  18  28
ENDBRANCH   2  18
TORSDOF 7
ENDMDL
MODEL 8
REMARK VINA RESULT:      -9.8      5.288      9.504
REMARK  Name = 51042438
REMARK  7 active torsions:
REMARK  status: ('A' for Active; 'I' for Inactive)
REMARK    1  A    between atoms: N_2  and  C_18
REMARK    2  A    between atoms: C_3  and  C_7
REMARK    3  A    between atoms: C_8  and  C_14
REMARK    4  A    between atoms: C_18  and  C_19
REMARK    5  A    between atoms: C_18  and  C_28
REMARK    6  A    between atoms: C_19  and  C_22
REMARK    7  A    between atoms: C_28  and  N_29
REMARK                            x       y       z     vdW  Elec       q    Type
REMARK                         _______ _______ _______ _____ _____    ______ ____
ROOT
ATOM      1  O   UNL     1      33.249 -13.678 -22.453  0.00  0.00    -0.267 OA
ATOM      2  N   UNL     1      33.741 -13.952 -24.701  0.00  0.00    -0.302 N 
ATOM      3  C   UNL     1      33.635 -14.375 -23.388  0.00  0.00    +0.281 C 
ATOM      4  H   UNL     1      34.062 -14.588 -25.381  0.00  0.00    +0.150 HD
ENDROOT
BRANCH   3   7
ATOM      5 CL   UNL     1      34.796 -19.194 -24.706  0.00  0.00    -0.042 Cl
ATOM      6  O   UNL     1      34.153 -16.619 -24.186  0.00  0.00    -0.438 OA
ATOM      7  C   UNL     1      34.054 -15.775 -23.125  0.00  0.00    +0.200 C 
ATOM      8  C   UNL     1      34.699 -17.755 -22.325  0.00  0.00    +0.065 C 
ATOM      9  C   UNL     1      34.379 -16.427 -21.958  0.00  0.00    +0.048 C 
ATOM     10  C   UNL     1      34.547 -17.822 -23.690  0.00  0.00    +0.205 C 
BRANCH   8  14
ATOM     11 CL   UNL     1      37.863 -18.748 -21.805  0.00  0.00    -0.079 Cl
ATOM     12  N   UNL     1      34.286 -19.638 -20.688  0.00  0.00    -0.209 N 
ATOM     13  N   UNL     1      34.933 -20.568 -19.965  0.00  0.00    -0.175 NA
ATOM     14  C   UNL     1      35.110 -18.851 -21.438  0.00  0.00    +0.085 C 
ATOM     15  C   UNL     1      36.385 -19.298 -21.189  0.00  0.00    +0.093 C 
ATOM     16  C   UNL     1      32.846 -19.563 -20.609  0.00  0.00    +0.140 C 
ATOM     17  C   UNL     1      36.215 -20.355 -20.275  0.00  0.00    +0.130 C 
ENDBRANCH   8  14
ENDBRANCH   3   7
BRANCH   2  18
ATOM     18  C   UNL     1      33.395 -12.606 -25.112  0.00  0.00    +0.055 C 
BRANCH  18  19
ATOM     19  C   UNL     1      34.559 -11.635 -24.838  0.00  0.00    +0.044 C 
BRANCH  19  22
ATOM     20  F   UNL     1      35.246  -6.933 -23.703  0.00  0.00    -0.202 F 
ATOM     21  F   UNL     1      32.908  -6.884 -22.284  0.00  0.00    -0.202 F 
ATOM     22  C   UNL     1      34.117 -10.362 -24.153  0.00  0.00    -0.018 C 
ATOM     23  C   UNL     1      34.901  -9.212 -24.245  0.00  0.00    +0.028 C 
ATOM     24  C   UNL     1      32.924 -10.337 -23.430  0.00  0.00    -0.002 C 
ATOM     25  C   UNL     1      34.493  -8.037 -23.614  0.00  0.00    +0.167 C 
ATOM     26  C   UNL     1      32.516  -9.162 -22.799  0.00  0.00    +0.032 C 
ATOM     27  C   UNL     1      33.300  -8.012 -22.891  0.00  0.00    +0.167 C 
ENDBRANCH  19  22
ENDBRANCH  18  19
BRANCH  18  28
ATOM     28  C   UNL     1      32.993 -12.631 -26.594  0.00  0.00    -0.066 C 
BRANCH  28  29
ATOM     29  N   UNL     1      33.410 -13.863 -27.254  0.00  0.00    +0.382 N 
ATOM     30  H   UNL     1      32.595 -14.455 -27.413  0.00  0.00    -0.089 HD
ATOM     31  H   UNL     1      34.078 -14.356 -26.663  0.00  0.00    -0.089 HD
ATOM     32  H   UNL     1      33.846 -13.639 -28.148  0.00  0.00    -0.089 HD
ENDBRANCH  28  29
ENDBRANCH  18  28
ENDBRANCH   2  18
TORSDOF 7
ENDMDL
MODEL 9
REMARK VINA RESULT:      -9.7      2.155      2.865
REMARK  Name = 51042438
REMARK  7 active torsions:
REMARK  status: ('A' for Active; 'I' for Inactive)
REMARK    1  A    between atoms: N_2  and  C_18
REMARK    2  A    between atoms: C_3  and  C_7
REMARK    3  A    between atoms: C_8  and  C_14
REMARK    4  A    between atoms: C_18  and  C_19
REMARK    5  A    between atoms: C_18  and  C_28
REMARK    6  A    between atoms: C_19  and  C_22
REMARK    7  A    between atoms: C_28  and  N_29
REMARK                            x       y       z     vdW  Elec       q    Type
REMARK                         _______ _______ _______ _____ _____    ______ ____
ROOT
ATOM      1  O   UNL     1      34.999 -16.198 -19.882  0.00  0.00    -0.267 OA
ATOM      2  N   UNL     1      35.008 -17.745 -21.608  0.00  0.00    -0.302 N 
ATOM      3  C   UNL     1      34.789 -16.496 -21.055  0.00  0.00    +0.281 C 
ATOM      4  H   UNL     1      34.807 -17.885 -22.562  0.00  0.00    +0.150 HD
ENDROOT
BRANCH   3   7
ATOM      5 CL   UNL     1      31.805 -12.515 -22.306  0.00  0.00    -0.042 Cl
ATOM      6  O   UNL     1      33.311 -14.604 -21.478  0.00  0.00    -0.438 OA
ATOM      7  C   UNL     1      34.232 -15.472 -21.975  0.00  0.00    +0.200 C 
ATOM      8  C   UNL     1      33.649 -14.113 -23.646  0.00  0.00    +0.065 C 
ATOM      9  C   UNL     1      34.472 -15.212 -23.304  0.00  0.00    +0.048 C 
ATOM     10  C   UNL     1      32.962 -13.780 -22.502  0.00  0.00    +0.205 C 
BRANCH   8  14
ATOM     11 CL   UNL     1      32.663 -15.597 -26.491  0.00  0.00    -0.079 Cl
ATOM     12  N   UNL     1      33.813 -12.146 -25.226  0.00  0.00    -0.209 N 
ATOM     13  N   UNL     1      33.623 -11.808 -26.514  0.00  0.00    -0.175 NA
ATOM     14  C   UNL     1      33.538 -13.454 -24.954  0.00  0.00    +0.085 C 
ATOM     15  C   UNL     1      33.142 -14.010 -26.145  0.00  0.00    +0.093 C 
ATOM     16  C   UNL     1      34.270 -11.140 -24.295  0.00  0.00    +0.140 C 
ATOM     17  C   UNL     1      33.213 -12.952 -27.070  0.00  0.00    +0.130 C 
ENDBRANCH   8  14
ENDBRANCH   3   7
BRANCH   2  18
ATOM     18  C   UNL     1      35.524 -18.856 -20.833  0.00  0.00    +0.055 C 
BRANCH  18  19
ATOM     19  C   UNL     1      34.654 -20.111 -21.031  0.00  0.00    +0.044 C 
BRANCH  19  22
ATOM     20  F   UNL     1      32.285 -22.942 -17.830  0.00  0.00    -0.202 F 
ATOM     21  F   UNL     1      34.620 -23.499 -16.521  0.00  0.00    -0.202 F 
ATOM     22  C   UNL     1      34.645 -21.019 -19.823  0.00  0.00    -0.018 C 
ATOM     23  C   UNL     1      33.445 -21.572 -19.374  0.00  0.00    +0.028 C 
ATOM     24  C   UNL     1      35.837 -21.303 -19.155  0.00  0.00    -0.002 C 
ATOM     25  C   UNL     1      33.437 -22.410 -18.260  0.00  0.00    +0.167 C 
ATOM     26  C   UNL     1      35.828 -22.141 -18.040  0.00  0.00    +0.032 C 
ATOM     27  C   UNL     1      34.629 -22.695 -17.592  0.00  0.00    +0.167 C 
ENDBRANCH  19  22
ENDBRANCH  18  19
BRANCH  18  28
ATOM     28  C   UNL     1      36.990 -19.094 -21.227  0.00  0.00    -0.066 C 
BRANCH  28  29
ATOM     29  N   UNL     1      37.370 -18.326 -22.407  0.00  0.00    +0.382 N 
ATOM     30  H   UNL     1      37.319 -18.924 -23.232  0.00  0.00    -0.089 HD
ATOM     31  H   UNL     1      38.323 -17.981 -22.296  0.00  0.00    -0.089 HD
ATOM     32  H   UNL     1      36.733 -17.537 -22.520  0.00  0.00    -0.089 HD
ENDBRANCH  28  29
ENDBRANCH  18  28
ENDBRANCH   2  18
TORSDOF 7
ENDMDL
