MODEL 1
REMARK VINA RESULT:      -5.2      0.000      0.000
REMARK  Name = 127716
REMARK  4 active torsions:
REMARK  status: ('A' for Active; 'I' for Inactive)
REMARK    1  A    between atoms: CA_2  and  C_12
REMARK    2  A    between atoms: C_3  and  O_8
REMARK    3  A    between atoms: C_4  and  O_10
REMARK    4  A    between atoms: C_12  and  O_13
REMARK                            x       y       z     vdW  Elec       q    Type
REMARK                         _______ _______ _______ _____ _____    ______ ____
ROOT
ATOM      1  N   UNL     1      38.539 -26.197 -12.975  0.00  0.00    +0.390 N 
ATOM      2  CA  UNL     1      39.121 -25.261 -13.938  0.00  0.00    -0.002 C 
ATOM      3  C   UNL     1      38.003 -25.126 -14.960  0.00  0.00    +0.118 C 
ATOM      4  C   UNL     1      36.738 -25.131 -14.107  0.00  0.00    +0.114 C 
ATOM      5  C   UNL     1      37.156 -25.757 -12.778  0.00  0.00    -0.049 C 
ATOM      6  H1  UNL     1      39.050 -26.166 -12.094  0.00  0.00    -0.084 HD
ATOM      7  H2  UNL     1      38.582 -27.159 -13.313  0.00  0.00    -0.084 HD
ENDROOT
BRANCH   3   8
ATOM      8  O   UNL     1      38.128 -23.907 -15.673  0.00  0.00    -0.384 OA
ATOM      9  H   UNL     1      37.565 -23.935 -16.463  0.00  0.00    +0.210 HD
ENDBRANCH   3   8
BRANCH   4  10
ATOM     10  O   UNL     1      35.744 -25.918 -14.749  0.00  0.00    -0.384 OA
ATOM     11  H   UNL     1      35.356 -25.414 -15.481  0.00  0.00    +0.210 HD
ENDBRANCH   4  10
BRANCH   2  12
ATOM     12  C   UNL     1      40.413 -25.800 -14.531  0.00  0.00    +0.118 C 
BRANCH  12  13
ATOM     13  O   UNL     1      40.289 -25.828 -15.942  0.00  0.00    -0.384 OA
ATOM     14  H   UNL     1      40.008 -24.956 -16.259  0.00  0.00    +0.210 HD
ENDBRANCH  12  13
ENDBRANCH   2  12
TORSDOF 4
ENDMDL
MODEL 2
REMARK VINA RESULT:      -5.1      2.838      4.147
REMARK  Name = 127716
REMARK  4 active torsions:
REMARK  status: ('A' for Active; 'I' for Inactive)
REMARK    1  A    between atoms: CA_2  and  C_12
REMARK    2  A    between atoms: C_3  and  O_8
REMARK    3  A    between atoms: C_4  and  O_10
REMARK    4  A    between atoms: C_12  and  O_13
REMARK                            x       y       z     vdW  Elec       q    Type
REMARK                         _______ _______ _______ _____ _____    ______ ____
ROOT
ATOM      1  N   UNL     1      36.134 -25.386 -13.205  0.00  0.00    +0.390 N 
ATOM      2  CA  UNL     1      36.477 -24.302 -12.282  0.00  0.00    -0.002 C 
ATOM      3  C   UNL     1      37.967 -24.529 -12.073  0.00  0.00    +0.118 C 
ATOM      4  C   UNL     1      38.460 -24.951 -13.454  0.00  0.00    +0.114 C 
ATOM      5  C   UNL     1      37.211 -25.419 -14.197  0.00  0.00    -0.049 C 
ATOM      6  H1  UNL     1      35.240 -25.197 -13.656  0.00  0.00    -0.084 HD
ATOM      7  H2  UNL     1      36.043 -26.278 -12.718  0.00  0.00    -0.084 HD
ENDROOT
BRANCH   3   8
ATOM      8  O   UNL     1      38.597 -23.328 -11.656  0.00  0.00    -0.384 OA
ATOM      9  H   UNL     1      39.095 -23.491 -10.839  0.00  0.00    +0.210 HD
ENDBRANCH   3   8
BRANCH   4  10
ATOM     10  O   UNL     1      39.394 -26.012 -13.313  0.00  0.00    -0.384 OA
ATOM     11  H   UNL     1      39.306 -26.621 -14.063  0.00  0.00    +0.210 HD
ENDBRANCH   4  10
BRANCH   2  12
ATOM     12  C   UNL     1      35.673 -24.388 -10.994  0.00  0.00    +0.118 C 
BRANCH  12  13
ATOM     13  O   UNL     1      36.484 -23.946  -9.920  0.00  0.00    -0.384 OA
ATOM     14  H   UNL     1      35.925 -23.543  -9.238  0.00  0.00    +0.210 HD
ENDBRANCH  12  13
ENDBRANCH   2  12
TORSDOF 4
ENDMDL
MODEL 3
REMARK VINA RESULT:      -5.0      2.356      2.881
REMARK  Name = 127716
REMARK  4 active torsions:
REMARK  status: ('A' for Active; 'I' for Inactive)
REMARK    1  A    between atoms: CA_2  and  C_12
REMARK    2  A    between atoms: C_3  and  O_8
REMARK    3  A    between atoms: C_4  and  O_10
REMARK    4  A    between atoms: C_12  and  O_13
REMARK                            x       y       z     vdW  Elec       q    Type
REMARK                         _______ _______ _______ _____ _____    ______ ____
ROOT
ATOM      1  N   UNL     1      38.137 -23.769 -11.725  0.00  0.00    +0.390 N 
ATOM      2  CA  UNL     1      37.878 -24.536 -12.945  0.00  0.00    -0.002 C 
ATOM      3  C   UNL     1      36.667 -25.365 -12.543  0.00  0.00    +0.118 C 
ATOM      4  C   UNL     1      35.844 -24.402 -11.691  0.00  0.00    +0.114 C 
ATOM      5  C   UNL     1      36.826 -23.319 -11.251  0.00  0.00    -0.049 C 
ATOM      6  H1  UNL     1      38.736 -22.970 -11.928  0.00  0.00    -0.084 HD
ATOM      7  H2  UNL     1      38.617 -24.333 -11.023  0.00  0.00    -0.084 HD
ENDROOT
BRANCH   3   8
ATOM      8  O   UNL     1      35.941 -25.771 -13.691  0.00  0.00    -0.384 OA
ATOM      9  H   UNL     1      36.542 -25.822 -14.452  0.00  0.00    +0.210 HD
ENDBRANCH   3   8
BRANCH   4  10
ATOM     10  O   UNL     1      35.322 -25.100 -10.569  0.00  0.00    -0.384 OA
ATOM     11  H   UNL     1      35.684 -24.718  -9.754  0.00  0.00    +0.210 HD
ENDBRANCH   4  10
BRANCH   2  12
ATOM     12  C   UNL     1      39.078 -25.382 -13.339  0.00  0.00    +0.118 C 
BRANCH  12  13
ATOM     13  O   UNL     1      38.618 -26.523 -14.044  0.00  0.00    -0.384 OA
ATOM     14  H   UNL     1      38.800 -27.320 -13.522  0.00  0.00    +0.210 HD
ENDBRANCH  12  13
ENDBRANCH   2  12
TORSDOF 4
ENDMDL
MODEL 4
REMARK VINA RESULT:      -4.9      2.249      3.989
REMARK  Name = 127716
REMARK  4 active torsions:
REMARK  status: ('A' for Active; 'I' for Inactive)
REMARK    1  A    between atoms: CA_2  and  C_12
REMARK    2  A    between atoms: C_3  and  O_8
REMARK    3  A    between atoms: C_4  and  O_10
REMARK    4  A    between atoms: C_12  and  O_13
REMARK                            x       y       z     vdW  Elec       q    Type
REMARK                         _______ _______ _______ _____ _____    ______ ____
ROOT
ATOM      1  N   UNL     1      37.050 -24.071 -14.508  0.00  0.00    +0.390 N 
ATOM      2  CA  UNL     1      36.619 -24.447 -13.161  0.00  0.00    -0.002 C 
ATOM      3  C   UNL     1      36.976 -25.925 -13.118  0.00  0.00    +0.118 C 
ATOM      4  C   UNL     1      38.301 -25.993 -13.873  0.00  0.00    +0.114 C 
ATOM      5  C   UNL     1      38.353 -24.712 -14.703  0.00  0.00    -0.049 C 
ATOM      6  H1  UNL     1      37.137 -23.058 -14.583  0.00  0.00    -0.084 HD
ATOM      7  H2  UNL     1      36.376 -24.368 -15.214  0.00  0.00    -0.084 HD
ENDROOT
BRANCH   3   8
ATOM      8  O   UNL     1      37.136 -26.358 -11.777  0.00  0.00    -0.384 OA
ATOM      9  H   UNL     1      36.950 -27.309 -11.720  0.00  0.00    +0.210 HD
ENDBRANCH   3   8
BRANCH   4  10
ATOM     10  O   UNL     1      38.303 -27.141 -14.711  0.00  0.00    -0.384 OA
ATOM     11  H   UNL     1      38.753 -26.930 -15.544  0.00  0.00    +0.210 HD
ENDBRANCH   4  10
BRANCH   2  12
ATOM     12  C   UNL     1      35.136 -24.184 -12.954  0.00  0.00    +0.118 C 
BRANCH  12  13
ATOM     13  O   UNL     1      34.683 -24.962 -11.859  0.00  0.00    -0.384 OA
ATOM     14  H   UNL     1      33.923 -25.496 -12.135  0.00  0.00    +0.210 HD
ENDBRANCH  12  13
ENDBRANCH   2  12
TORSDOF 4
ENDMDL
MODEL 5
REMARK VINA RESULT:      -4.9      2.470      3.291
REMARK  Name = 127716
REMARK  4 active torsions:
REMARK  status: ('A' for Active; 'I' for Inactive)
REMARK    1  A    between atoms: CA_2  and  C_12
REMARK    2  A    between atoms: C_3  and  O_8
REMARK    3  A    between atoms: C_4  and  O_10
REMARK    4  A    between atoms: C_12  and  O_13
REMARK                            x       y       z     vdW  Elec       q    Type
REMARK                         _______ _______ _______ _____ _____    ______ ____
ROOT
ATOM      1  N   UNL     1      36.994 -24.064 -14.483  0.00  0.00    +0.390 N 
ATOM      2  CA  UNL     1      36.752 -25.408 -13.957  0.00  0.00    -0.002 C 
ATOM      3  C   UNL     1      37.613 -25.414 -12.703  0.00  0.00    +0.118 C 
ATOM      4  C   UNL     1      37.440 -24.003 -12.147  0.00  0.00    +0.114 C 
ATOM      5  C   UNL     1      36.943 -23.168 -13.325  0.00  0.00    -0.049 C 
ATOM      6  H1  UNL     1      36.274 -23.811 -15.159  0.00  0.00    -0.084 HD
ATOM      7  H2  UNL     1      37.892 -24.005 -14.964  0.00  0.00    -0.084 HD
ENDROOT
BRANCH   3   8
ATOM      8  O   UNL     1      37.138 -26.382 -11.782  0.00  0.00    -0.384 OA
ATOM      9  H   UNL     1      37.647 -26.321 -10.957  0.00  0.00    +0.210 HD
ENDBRANCH   3   8
BRANCH   4  10
ATOM     10  O   UNL     1      38.695 -23.527 -11.681  0.00  0.00    -0.384 OA
ATOM     11  H   UNL     1      38.891 -23.925 -10.818  0.00  0.00    +0.210 HD
ENDBRANCH   4  10
BRANCH   2  12
ATOM     12  C   UNL     1      37.150 -26.481 -14.960  0.00  0.00    +0.118 C 
BRANCH  12  13
ATOM     13  O   UNL     1      38.362 -27.076 -14.533  0.00  0.00    -0.384 OA
ATOM     14  H   UNL     1      39.094 -26.455 -14.673  0.00  0.00    +0.210 HD
ENDBRANCH  12  13
ENDBRANCH   2  12
TORSDOF 4
ENDMDL
MODEL 6
REMARK VINA RESULT:      -4.9      2.346      3.318
REMARK  Name = 127716
REMARK  4 active torsions:
REMARK  status: ('A' for Active; 'I' for Inactive)
REMARK    1  A    between atoms: CA_2  and  C_12
REMARK    2  A    between atoms: C_3  and  O_8
REMARK    3  A    between atoms: C_4  and  O_10
REMARK    4  A    between atoms: C_12  and  O_13
REMARK                            x       y       z     vdW  Elec       q    Type
REMARK                         _______ _______ _______ _____ _____    ______ ____
ROOT
ATOM      1  N   UNL     1      38.137 -24.400 -14.355  0.00  0.00    +0.390 N 
ATOM      2  CA  UNL     1      37.878 -24.634 -12.934  0.00  0.00    -0.002 C 
ATOM      3  C   UNL     1      36.835 -25.740 -12.983  0.00  0.00    +0.118 C 
ATOM      4  C   UNL     1      37.301 -26.617 -14.141  0.00  0.00    +0.114 C 
ATOM      5  C   UNL     1      38.228 -25.728 -14.967  0.00  0.00    -0.049 C 
ATOM      6  H1  UNL     1      39.012 -23.891 -14.478  0.00  0.00    -0.084 HD
ATOM      7  H2  UNL     1      37.400 -23.839 -14.784  0.00  0.00    -0.084 HD
ENDROOT
BRANCH   3   8
ATOM      8  O   UNL     1      36.830 -26.470 -11.767  0.00  0.00    -0.384 OA
ATOM      9  H   UNL     1      35.988 -26.323 -11.305  0.00  0.00    +0.210 HD
ENDBRANCH   3   8
BRANCH   4  10
ATOM     10  O   UNL     1      36.173 -27.022 -14.905  0.00  0.00    -0.384 OA
ATOM     11  H   UNL     1      35.953 -27.942 -14.691  0.00  0.00    +0.210 HD
ENDBRANCH   4  10
BRANCH   2  12
ATOM     12  C   UNL     1      37.382 -23.374 -12.241  0.00  0.00    +0.118 C 
BRANCH  12  13
ATOM     13  O   UNL     1      38.486 -22.720 -11.640  0.00  0.00    -0.384 OA
ATOM     14  H   UNL     1      38.960 -23.345 -11.069  0.00  0.00    +0.210 HD
ENDBRANCH  12  13
ENDBRANCH   2  12
TORSDOF 4
ENDMDL
MODEL 7
REMARK VINA RESULT:      -4.9      2.300      3.072
REMARK  Name = 127716
REMARK  4 active torsions:
REMARK  status: ('A' for Active; 'I' for Inactive)
REMARK    1  A    between atoms: CA_2  and  C_12
REMARK    2  A    between atoms: C_3  and  O_8
REMARK    3  A    between atoms: C_4  and  O_10
REMARK    4  A    between atoms: C_12  and  O_13
REMARK                            x       y       z     vdW  Elec       q    Type
REMARK                         _______ _______ _______ _____ _____    ______ ____
ROOT
ATOM      1  N   UNL     1      35.814 -24.891 -12.933  0.00  0.00    +0.390 N 
ATOM      2  CA  UNL     1      36.789 -25.763 -13.591  0.00  0.00    -0.002 C 
ATOM      3  C   UNL     1      38.099 -25.049 -13.294  0.00  0.00    +0.118 C 
ATOM      4  C   UNL     1      37.912 -24.542 -11.867  0.00  0.00    +0.114 C 
ATOM      5  C   UNL     1      36.402 -24.542 -11.637  0.00  0.00    -0.049 C 
ATOM      6  H1  UNL     1      34.931 -25.382 -12.802  0.00  0.00    -0.084 HD
ATOM      7  H2  UNL     1      35.616 -24.060 -13.492  0.00  0.00    -0.084 HD
ENDROOT
BRANCH   3   8
ATOM      8  O   UNL     1      39.186 -25.956 -13.370  0.00  0.00    -0.384 OA
ATOM      9  H   UNL     1      39.232 -26.332 -14.264  0.00  0.00    +0.210 HD
ENDBRANCH   3   8
BRANCH   4  10
ATOM     10  O   UNL     1      38.441 -23.227 -11.764  0.00  0.00    -0.384 OA
ATOM     11  H   UNL     1      38.047 -22.780 -10.999  0.00  0.00    +0.210 HD
ENDBRANCH   4  10
BRANCH   2  12
ATOM     12  C   UNL     1      36.505 -25.897 -15.079  0.00  0.00    +0.118 C 
BRANCH  12  13
ATOM     13  O   UNL     1      37.636 -26.475 -15.708  0.00  0.00    -0.384 OA
ATOM     14  H   UNL     1      37.399 -27.347 -16.059  0.00  0.00    +0.210 HD
ENDBRANCH  12  13
ENDBRANCH   2  12
TORSDOF 4
ENDMDL
MODEL 8
REMARK VINA RESULT:      -4.8      2.391      3.175
REMARK  Name = 127716
REMARK  4 active torsions:
REMARK  status: ('A' for Active; 'I' for Inactive)
REMARK    1  A    between atoms: CA_2  and  C_12
REMARK    2  A    between atoms: C_3  and  O_8
REMARK    3  A    between atoms: C_4  and  O_10
REMARK    4  A    between atoms: C_12  and  O_13
REMARK                            x       y       z     vdW  Elec       q    Type
REMARK                         _______ _______ _______ _____ _____    ______ ____
ROOT
ATOM      1  N   UNL     1      36.236 -24.678 -13.833  0.00  0.00    +0.390 N 
ATOM      2  CA  UNL     1      37.465 -24.023 -13.383  0.00  0.00    -0.002 C 
ATOM      3  C   UNL     1      38.480 -25.151 -13.495  0.00  0.00    +0.118 C 
ATOM      4  C   UNL     1      38.063 -25.880 -14.769  0.00  0.00    +0.114 C 
ATOM      5  C   UNL     1      36.612 -25.468 -15.008  0.00  0.00    -0.049 C 
ATOM      6  H1  UNL     1      35.534 -23.982 -14.083  0.00  0.00    -0.084 HD
ATOM      7  H2  UNL     1      35.832 -25.262 -13.100  0.00  0.00    -0.084 HD
ENDROOT
BRANCH   3   8
ATOM      8  O   UNL     1      39.792 -24.627 -13.618  0.00  0.00    -0.384 OA
ATOM      9  H   UNL     1      40.101 -24.741 -14.531  0.00  0.00    +0.210 HD
ENDBRANCH   3   8
BRANCH   4  10
ATOM     10  O   UNL     1      38.165 -27.282 -14.561  0.00  0.00    -0.384 OA
ATOM     11  H   UNL     1      37.462 -27.733 -15.054  0.00  0.00    +0.210 HD
ENDBRANCH   4  10
BRANCH   2  12
ATOM     12  C   UNL     1      37.326 -23.482 -11.969  0.00  0.00    +0.118 C 
BRANCH  12  13
ATOM     13  O   UNL     1      38.561 -22.906 -11.579  0.00  0.00    -0.384 OA
ATOM     14  H   UNL     1      38.618 -22.890 -10.611  0.00  0.00    +0.210 HD
ENDBRANCH  12  13
ENDBRANCH   2  12
TORSDOF 4
ENDMDL
MODEL 9
REMARK VINA RESULT:      -4.8      1.709      3.295
REMARK  Name = 127716
REMARK  4 active torsions:
REMARK  status: ('A' for Active; 'I' for Inactive)
REMARK    1  A    between atoms: CA_2  and  C_12
REMARK    2  A    between atoms: C_3  and  O_8
REMARK    3  A    between atoms: C_4  and  O_10
REMARK    4  A    between atoms: C_12  and  O_13
REMARK                            x       y       z     vdW  Elec       q    Type
REMARK                         _______ _______ _______ _____ _____    ______ ____
ROOT
ATOM      1  N   UNL     1      37.306 -24.298 -13.312  0.00  0.00    +0.390 N 
ATOM      2  CA  UNL     1      37.044 -25.585 -13.959  0.00  0.00    -0.002 C 
ATOM      3  C   UNL     1      38.412 -25.936 -14.524  0.00  0.00    +0.118 C 
ATOM      4  C   UNL     1      39.377 -25.462 -13.440  0.00  0.00    +0.114 C 
ATOM      5  C   UNL     1      38.582 -24.457 -12.610  0.00  0.00    -0.049 C 
ATOM      6  H1  UNL     1      36.562 -24.074 -12.652  0.00  0.00    -0.084 HD
ATOM      7  H2  UNL     1      37.344 -23.537 -13.992  0.00  0.00    -0.084 HD
ENDROOT
BRANCH   3   8
ATOM      8  O   UNL     1      38.522 -27.336 -14.721  0.00  0.00    -0.384 OA
ATOM      9  H   UNL     1      37.647 -27.746 -14.627  0.00  0.00    +0.210 HD
ENDBRANCH   3   8
BRANCH   4  10
ATOM     10  O   UNL     1      40.499 -24.840 -14.051  0.00  0.00    -0.384 OA
ATOM     11  H   UNL     1      40.816 -24.119 -13.486  0.00  0.00    +0.210 HD
ENDBRANCH   4  10
BRANCH   2  12
ATOM     12  C   UNL     1      35.969 -25.466 -15.027  0.00  0.00    +0.118 C 
BRANCH  12  13
ATOM     13  O   UNL     1      36.049 -26.593 -15.882  0.00  0.00    -0.384 OA
ATOM     14  H   UNL     1      36.759 -27.179 -15.577  0.00  0.00    +0.210 HD
ENDBRANCH  12  13
ENDBRANCH   2  12
TORSDOF 4
ENDMDL
