MODEL 1
REMARK VINA RESULT:      -3.9      0.000      0.000
REMARK  Name = 449688
REMARK  3 active torsions:
REMARK  status: ('A' for Active; 'I' for Inactive)
REMARK    1  A    between atoms: N_1  and  C_5
REMARK    2  A    between atoms: C_5  and  C_6
REMARK    3  A    between atoms: C_6  and  O_7
REMARK                            x       y       z     vdW  Elec       q    Type
REMARK                         _______ _______ _______ _____ _____    ______ ____
ROOT
ATOM      1  N   UNL     1      38.367 -25.232 -14.160  0.00  0.00    +0.387 N 
ATOM      2  C   UNL     1      39.763 -25.424 -14.736  0.00  0.00    -0.096 C 
ATOM      3  C   UNL     1      37.627 -24.176 -14.966  0.00  0.00    -0.096 C 
ATOM      4  C   UNL     1      38.475 -24.781 -12.710  0.00  0.00    -0.096 C 
ENDROOT
BRANCH   1   5
ATOM      5  C   UNL     1      37.605 -26.548 -14.227  0.00  0.00    -0.041 C 
BRANCH   5   6
ATOM      6  C   UNL     1      36.522 -26.445 -15.283  0.00  0.00    +0.115 C 
BRANCH   6   7
ATOM      7  O   UNL     1      36.813 -27.337 -16.351  0.00  0.00    -0.384 OA
ATOM      8  H   UNL     1      36.043 -27.401 -16.937  0.00  0.00    +0.210 HD
ENDBRANCH   6   7
ENDBRANCH   5   6
ENDBRANCH   1   5
TORSDOF 3
ENDMDL
MODEL 2
REMARK VINA RESULT:      -3.9     11.494     12.380
REMARK  Name = 449688
REMARK  3 active torsions:
REMARK  status: ('A' for Active; 'I' for Inactive)
REMARK    1  A    between atoms: N_1  and  C_5
REMARK    2  A    between atoms: C_5  and  C_6
REMARK    3  A    between atoms: C_6  and  O_7
REMARK                            x       y       z     vdW  Elec       q    Type
REMARK                         _______ _______ _______ _____ _____    ______ ____
ROOT
ATOM      1  N   UNL     1      41.965 -14.585 -16.617  0.00  0.00    +0.387 N 
ATOM      2  C   UNL     1      41.220 -14.299 -17.914  0.00  0.00    -0.096 C 
ATOM      3  C   UNL     1      43.464 -14.543 -16.873  0.00  0.00    -0.096 C 
ATOM      4  C   UNL     1      41.576 -15.964 -16.104  0.00  0.00    -0.096 C 
ENDROOT
BRANCH   1   5
ATOM      5  C   UNL     1      41.599 -13.534 -15.579  0.00  0.00    -0.041 C 
BRANCH   5   6
ATOM      6  C   UNL     1      40.728 -14.168 -14.511  0.00  0.00    +0.115 C 
BRANCH   6   7
ATOM      7  O   UNL     1      40.836 -13.424 -13.305  0.00  0.00    -0.384 OA
ATOM      8  H   UNL     1      40.507 -12.523 -13.452  0.00  0.00    +0.210 HD
ENDBRANCH   6   7
ENDBRANCH   5   6
ENDBRANCH   1   5
TORSDOF 3
ENDMDL
MODEL 3
REMARK VINA RESULT:      -3.9      0.075      1.612
REMARK  Name = 449688
REMARK  3 active torsions:
REMARK  status: ('A' for Active; 'I' for Inactive)
REMARK    1  A    between atoms: N_1  and  C_5
REMARK    2  A    between atoms: C_5  and  C_6
REMARK    3  A    between atoms: C_6  and  O_7
REMARK                            x       y       z     vdW  Elec       q    Type
REMARK                         _______ _______ _______ _____ _____    ______ ____
ROOT
ATOM      1  N   UNL     1      38.344 -25.279 -14.108  0.00  0.00    +0.387 N 
ATOM      2  C   UNL     1      37.657 -24.211 -14.947  0.00  0.00    -0.096 C 
ATOM      3  C   UNL     1      38.413 -24.819 -12.659  0.00  0.00    -0.096 C 
ATOM      4  C   UNL     1      39.754 -25.508 -14.635  0.00  0.00    -0.096 C 
ENDROOT
BRANCH   1   5
ATOM      5  C   UNL     1      37.554 -26.576 -14.190  0.00  0.00    -0.041 C 
BRANCH   5   6
ATOM      6  C   UNL     1      36.496 -26.450 -15.270  0.00  0.00    +0.115 C 
BRANCH   6   7
ATOM      7  O   UNL     1      36.808 -27.324 -16.346  0.00  0.00    -0.384 OA
ATOM      8  H   UNL     1      37.599 -27.002 -16.805  0.00  0.00    +0.210 HD
ENDBRANCH   6   7
ENDBRANCH   5   6
ENDBRANCH   1   5
TORSDOF 3
ENDMDL
MODEL 4
REMARK VINA RESULT:      -3.9      1.708      2.620
REMARK  Name = 449688
REMARK  3 active torsions:
REMARK  status: ('A' for Active; 'I' for Inactive)
REMARK    1  A    between atoms: N_1  and  C_5
REMARK    2  A    between atoms: C_5  and  C_6
REMARK    3  A    between atoms: C_6  and  O_7
REMARK                            x       y       z     vdW  Elec       q    Type
REMARK                         _______ _______ _______ _____ _____    ______ ____
ROOT
ATOM      1  N   UNL     1      37.711 -25.546 -14.151  0.00  0.00    +0.387 N 
ATOM      2  C   UNL     1      37.573 -24.156 -14.754  0.00  0.00    -0.096 C 
ATOM      3  C   UNL     1      37.045 -26.564 -15.065  0.00  0.00    -0.096 C 
ATOM      4  C   UNL     1      37.039 -25.575 -12.786  0.00  0.00    -0.096 C 
ENDROOT
BRANCH   1   5
ATOM      5  C   UNL     1      39.186 -25.890 -13.998  0.00  0.00    -0.041 C 
BRANCH   5   6
ATOM      6  C   UNL     1      39.991 -25.104 -15.015  0.00  0.00    +0.115 C 
BRANCH   6   7
ATOM      7  O   UNL     1      40.492 -25.986 -16.010  0.00  0.00    -0.384 OA
ATOM      8  H   UNL     1      39.826 -26.100 -16.705  0.00  0.00    +0.210 HD
ENDBRANCH   6   7
ENDBRANCH   5   6
ENDBRANCH   1   5
TORSDOF 3
ENDMDL
MODEL 5
REMARK VINA RESULT:      -3.9      1.691      2.793
REMARK  Name = 449688
REMARK  3 active torsions:
REMARK  status: ('A' for Active; 'I' for Inactive)
REMARK    1  A    between atoms: N_1  and  C_5
REMARK    2  A    between atoms: C_5  and  C_6
REMARK    3  A    between atoms: C_6  and  O_7
REMARK                            x       y       z     vdW  Elec       q    Type
REMARK                         _______ _______ _______ _____ _____    ______ ____
ROOT
ATOM      1  N   UNL     1      37.863 -25.615 -13.947  0.00  0.00    +0.387 N 
ATOM      2  C   UNL     1      37.234 -26.718 -14.786  0.00  0.00    -0.096 C 
ATOM      3  C   UNL     1      37.317 -25.682 -12.528  0.00  0.00    -0.096 C 
ATOM      4  C   UNL     1      37.527 -24.261 -14.556  0.00  0.00    -0.096 C 
ENDROOT
BRANCH   1   5
ATOM      5  C   UNL     1      39.373 -25.798 -13.917  0.00  0.00    -0.041 C 
BRANCH   5   6
ATOM      6  C   UNL     1      39.990 -25.059 -15.090  0.00  0.00    +0.115 C 
BRANCH   6   7
ATOM      7  O   UNL     1      40.494 -25.998 -16.031  0.00  0.00    -0.384 OA
ATOM      8  H   UNL     1      39.956 -25.967 -16.837  0.00  0.00    +0.210 HD
ENDBRANCH   6   7
ENDBRANCH   5   6
ENDBRANCH   1   5
TORSDOF 3
ENDMDL
MODEL 6
REMARK VINA RESULT:      -3.8     10.707     11.561
REMARK  Name = 449688
REMARK  3 active torsions:
REMARK  status: ('A' for Active; 'I' for Inactive)
REMARK    1  A    between atoms: N_1  and  C_5
REMARK    2  A    between atoms: C_5  and  C_6
REMARK    3  A    between atoms: C_6  and  O_7
REMARK                            x       y       z     vdW  Elec       q    Type
REMARK                         _______ _______ _______ _____ _____    ______ ____
ROOT
ATOM      1  N   UNL     1      42.337 -15.338 -17.749  0.00  0.00    +0.387 N 
ATOM      2  C   UNL     1      41.217 -14.364 -18.087  0.00  0.00    -0.096 C 
ATOM      3  C   UNL     1      43.567 -14.562 -17.303  0.00  0.00    -0.096 C 
ATOM      4  C   UNL     1      42.678 -16.165 -18.982  0.00  0.00    -0.096 C 
ENDROOT
BRANCH   1   5
ATOM      5  C   UNL     1      41.886 -16.262 -16.627  0.00  0.00    -0.041 C 
BRANCH   5   6
ATOM      6  C   UNL     1      41.155 -15.450 -15.575  0.00  0.00    +0.115 C 
BRANCH   6   7
ATOM      7  O   UNL     1      39.985 -16.147 -15.165  0.00  0.00    -0.384 OA
ATOM      8  H   UNL     1      39.625 -15.731 -14.367  0.00  0.00    +0.210 HD
ENDBRANCH   6   7
ENDBRANCH   5   6
ENDBRANCH   1   5
TORSDOF 3
ENDMDL
MODEL 7
REMARK VINA RESULT:      -3.8     10.586     11.375
REMARK  Name = 449688
REMARK  3 active torsions:
REMARK  status: ('A' for Active; 'I' for Inactive)
REMARK    1  A    between atoms: N_1  and  C_5
REMARK    2  A    between atoms: C_5  and  C_6
REMARK    3  A    between atoms: C_6  and  O_7
REMARK                            x       y       z     vdW  Elec       q    Type
REMARK                         _______ _______ _______ _____ _____    ______ ____
ROOT
ATOM      1  N   UNL     1      42.367 -15.388 -17.556  0.00  0.00    +0.387 N 
ATOM      2  C   UNL     1      43.568 -14.604 -17.046  0.00  0.00    -0.096 C 
ATOM      3  C   UNL     1      42.768 -16.183 -18.791  0.00  0.00    -0.096 C 
ATOM      4  C   UNL     1      41.248 -14.421 -17.917  0.00  0.00    -0.096 C 
ENDROOT
BRANCH   1   5
ATOM      5  C   UNL     1      41.886 -16.342 -16.473  0.00  0.00    -0.041 C 
BRANCH   5   6
ATOM      6  C   UNL     1      41.028 -15.581 -15.481  0.00  0.00    +0.115 C 
BRANCH   6   7
ATOM      7  O   UNL     1      39.880 -16.352 -15.156  0.00  0.00    -0.384 OA
ATOM      8  H   UNL     1      39.654 -16.927 -15.904  0.00  0.00    +0.210 HD
ENDBRANCH   6   7
ENDBRANCH   5   6
ENDBRANCH   1   5
TORSDOF 3
ENDMDL
MODEL 8
REMARK VINA RESULT:      -3.8      1.954      2.951
REMARK  Name = 449688
REMARK  3 active torsions:
REMARK  status: ('A' for Active; 'I' for Inactive)
REMARK    1  A    between atoms: N_1  and  C_5
REMARK    2  A    between atoms: C_5  and  C_6
REMARK    3  A    between atoms: C_6  and  O_7
REMARK                            x       y       z     vdW  Elec       q    Type
REMARK                         _______ _______ _______ _____ _____    ______ ____
ROOT
ATOM      1  N   UNL     1      37.706 -25.409 -14.043  0.00  0.00    +0.387 N 
ATOM      2  C   UNL     1      36.741 -25.257 -12.876  0.00  0.00    -0.096 C 
ATOM      3  C   UNL     1      37.627 -24.174 -14.929  0.00  0.00    -0.096 C 
ATOM      4  C   UNL     1      37.328 -26.640 -14.855  0.00  0.00    -0.096 C 
ENDROOT
BRANCH   1   5
ATOM      5  C   UNL     1      39.124 -25.564 -13.514  0.00  0.00    -0.041 C 
BRANCH   5   6
ATOM      6  C   UNL     1      40.098 -25.531 -14.676  0.00  0.00    +0.115 C 
BRANCH   6   7
ATOM      7  O   UNL     1      40.959 -26.660 -14.607  0.00  0.00    -0.384 OA
ATOM      8  H   UNL     1      41.792 -26.404 -14.181  0.00  0.00    +0.210 HD
ENDBRANCH   6   7
ENDBRANCH   5   6
ENDBRANCH   1   5
TORSDOF 3
ENDMDL
MODEL 9
REMARK VINA RESULT:      -3.8      1.778      2.236
REMARK  Name = 449688
REMARK  3 active torsions:
REMARK  status: ('A' for Active; 'I' for Inactive)
REMARK    1  A    between atoms: N_1  and  C_5
REMARK    2  A    between atoms: C_5  and  C_6
REMARK    3  A    between atoms: C_6  and  O_7
REMARK                            x       y       z     vdW  Elec       q    Type
REMARK                         _______ _______ _______ _____ _____    ______ ____
ROOT
ATOM      1  N   UNL     1      36.327 -24.813 -13.607  0.00  0.00    +0.387 N 
ATOM      2  C   UNL     1      37.035 -25.796 -12.686  0.00  0.00    -0.096 C 
ATOM      3  C   UNL     1      37.193 -23.575 -13.789  0.00  0.00    -0.096 C 
ATOM      4  C   UNL     1      34.994 -24.413 -12.991  0.00  0.00    -0.096 C 
ENDROOT
BRANCH   1   5
ATOM      5  C   UNL     1      36.086 -25.467 -14.960  0.00  0.00    -0.041 C 
BRANCH   5   6
ATOM      6  C   UNL     1      36.981 -26.684 -15.094  0.00  0.00    +0.115 C 
BRANCH   6   7
ATOM      7  O   UNL     1      36.756 -27.303 -16.353  0.00  0.00    -0.384 OA
ATOM      8  H   UNL     1      37.468 -27.060 -16.965  0.00  0.00    +0.210 HD
ENDBRANCH   6   7
ENDBRANCH   5   6
ENDBRANCH   1   5
TORSDOF 3
ENDMDL
