MODEL 1
REMARK VINA RESULT:      -7.2      0.000      0.000
REMARK  Name = 71098
REMARK  6 active torsions:
REMARK  status: ('A' for Active; 'I' for Inactive)
REMARK    1  A    between atoms: CB_1  and  CG_2
REMARK    2  A    between atoms: CB_1  and  CA_10
REMARK    3  A    between atoms: CZ_7  and  OH_8
REMARK    4  A    between atoms: CA_10  and  N_11
REMARK    5  A    between atoms: CA_10  and  C_16
REMARK    6  A    between atoms: C_16  and  O_17
REMARK                            x       y       z     vdW  Elec       q    Type
REMARK                         _______ _______ _______ _____ _____    ______ ____
ROOT
ATOM      1  CB  TYR A   1      34.344 -18.999 -21.707  0.00  0.00    +0.015 C 
ENDROOT
BRANCH   1   2
ATOM      2  CG  TYR A   1      34.411 -20.113 -20.688  0.00  0.00    -0.024 C 
ATOM      3  CD1 TYR A   1      35.647 -20.600 -20.298  0.00  0.00    -0.001 C 
ATOM      4  CD2 TYR A   1      33.235 -20.623 -20.165  0.00  0.00    -0.001 C 
ATOM      5  CE1 TYR A   1      35.709 -21.629 -19.358  0.00  0.00    +0.036 C 
ATOM      6  CE2 TYR A   1      33.297 -21.652 -19.225  0.00  0.00    +0.036 C 
ATOM      7  CZ  TYR A   1      34.534 -22.155 -18.821  0.00  0.00    +0.134 C 
BRANCH   7   8
ATOM      8  OH  TYR A   1      34.595 -23.157 -17.903  0.00  0.00    -0.506 OA
ATOM      9  HH  TYR A   1      34.400 -22.981 -17.003  0.00  0.00    +0.292 HD
ENDBRANCH   7   8
ENDBRANCH   1   2
BRANCH   1  10
ATOM     10  CA  TYR A   1      35.524 -18.023 -21.595  0.00  0.00    +0.040 C 
BRANCH  10  11
ATOM     11  N   TYR A   1      36.225 -17.951 -22.879  0.00  0.00    +0.389 N 
ATOM     12  H1  TYR A   1      35.977 -18.761 -23.448  0.00  0.00    -0.088 HD
ATOM     13  H2  TYR A   1      37.232 -17.945 -22.717  0.00  0.00    -0.088 HD
ATOM     14  H3  TYR A   1      35.953 -17.097 -23.367  0.00  0.00    -0.088 HD
ENDBRANCH  10  11
BRANCH  10  16
ATOM     15  OXT TYR A   1      34.940 -16.132 -20.162  0.00  0.00    -0.253 OA
ATOM     16  C   TYR A   1      35.048 -16.620 -21.279  0.00  0.00    +0.293 C 
BRANCH  16  17
ATOM     17  O   TYR A   1      34.774 -15.940 -22.423  0.00  0.00    -0.482 OA
ATOM     18  H   TYR A   1      35.342 -16.021 -23.164  0.00  0.00    +0.295 HD
ENDBRANCH  16  17
ENDBRANCH  10  16
ENDBRANCH   1  10
TORSDOF 6
ENDMDL
MODEL 2
REMARK VINA RESULT:      -7.1      1.580      2.351
REMARK  Name = 71098
REMARK  6 active torsions:
REMARK  status: ('A' for Active; 'I' for Inactive)
REMARK    1  A    between atoms: CB_1  and  CG_2
REMARK    2  A    between atoms: CB_1  and  CA_10
REMARK    3  A    between atoms: CZ_7  and  OH_8
REMARK    4  A    between atoms: CA_10  and  N_11
REMARK    5  A    between atoms: CA_10  and  C_16
REMARK    6  A    between atoms: C_16  and  O_17
REMARK                            x       y       z     vdW  Elec       q    Type
REMARK                         _______ _______ _______ _____ _____    ______ ____
ROOT
ATOM      1  CB  TYR A   1      35.615 -18.611 -21.763  0.00  0.00    +0.015 C 
ENDROOT
BRANCH   1   2
ATOM      2  CG  TYR A   1      34.892 -19.651 -20.939  0.00  0.00    -0.024 C 
ATOM      3  CD1 TYR A   1      33.511 -19.611 -20.859  0.00  0.00    -0.001 C 
ATOM      4  CD2 TYR A   1      35.627 -20.623 -20.281  0.00  0.00    -0.001 C 
ATOM      5  CE1 TYR A   1      32.843 -20.571 -20.097  0.00  0.00    +0.036 C 
ATOM      6  CE2 TYR A   1      34.959 -21.582 -19.519  0.00  0.00    +0.036 C 
ATOM      7  CZ  TYR A   1      33.568 -21.557 -19.427  0.00  0.00    +0.134 C 
BRANCH   7   8
ATOM      8  OH  TYR A   1      32.916 -22.493 -18.686  0.00  0.00    -0.506 OA
ATOM      9  HH  TYR A   1      33.353 -22.912 -17.970  0.00  0.00    +0.292 HD
ENDBRANCH   7   8
ENDBRANCH   1   2
BRANCH   1  10
ATOM     10  CA  TYR A   1      34.684 -17.490 -22.248  0.00  0.00    +0.040 C 
BRANCH  10  11
ATOM     11  N   TYR A   1      34.920 -16.280 -21.456  0.00  0.00    +0.389 N 
ATOM     12  H1  TYR A   1      35.918 -16.182 -21.273  0.00  0.00    -0.088 HD
ATOM     13  H2  TYR A   1      34.417 -16.350 -20.571  0.00  0.00    -0.088 HD
ATOM     14  H3  TYR A   1      34.587 -15.466 -21.974  0.00  0.00    -0.088 HD
ENDBRANCH  10  11
BRANCH  10  16
ATOM     15  OXT TYR A   1      34.602 -17.758 -24.675  0.00  0.00    -0.253 OA
ATOM     16  C   TYR A   1      34.966 -17.128 -23.692  0.00  0.00    +0.293 C 
BRANCH  16  17
ATOM     17  O   TYR A   1      35.670 -15.968 -23.764  0.00  0.00    -0.482 OA
ATOM     18  H   TYR A   1      36.462 -15.930 -24.264  0.00  0.00    +0.295 HD
ENDBRANCH  16  17
ENDBRANCH  10  16
ENDBRANCH   1  10
TORSDOF 6
ENDMDL
MODEL 3
REMARK VINA RESULT:      -6.8      1.838      5.433
REMARK  Name = 71098
REMARK  6 active torsions:
REMARK  status: ('A' for Active; 'I' for Inactive)
REMARK    1  A    between atoms: CB_1  and  CG_2
REMARK    2  A    between atoms: CB_1  and  CA_10
REMARK    3  A    between atoms: CZ_7  and  OH_8
REMARK    4  A    between atoms: CA_10  and  N_11
REMARK    5  A    between atoms: CA_10  and  C_16
REMARK    6  A    between atoms: C_16  and  O_17
REMARK                            x       y       z     vdW  Elec       q    Type
REMARK                         _______ _______ _______ _____ _____    ______ ____
ROOT
ATOM      1  CB  TYR A   1      33.809 -20.093 -20.507  0.00  0.00    +0.015 C 
ENDROOT
BRANCH   1   2
ATOM      2  CG  TYR A   1      34.317 -19.016 -21.438  0.00  0.00    -0.024 C 
ATOM      3  CD1 TYR A   1      34.778 -19.370 -22.694  0.00  0.00    -0.001 C 
ATOM      4  CD2 TYR A   1      34.311 -17.698 -21.015  0.00  0.00    -0.001 C 
ATOM      5  CE1 TYR A   1      35.248 -18.376 -23.553  0.00  0.00    +0.036 C 
ATOM      6  CE2 TYR A   1      34.781 -16.704 -21.874  0.00  0.00    +0.036 C 
ATOM      7  CZ  TYR A   1      35.250 -17.043 -23.143  0.00  0.00    +0.134 C 
BRANCH   7   8
ATOM      8  OH  TYR A   1      35.706 -16.074 -23.982  0.00  0.00    -0.506 OA
ATOM      9  HH  TYR A   1      35.489 -15.176 -23.824  0.00  0.00    +0.292 HD
ENDBRANCH   7   8
ENDBRANCH   1   2
BRANCH   1  10
ATOM     10  CA  TYR A   1      34.882 -21.137 -20.170  0.00  0.00    +0.040 C 
BRANCH  10  11
ATOM     11  N   TYR A   1      36.046 -20.471 -19.580  0.00  0.00    +0.389 N 
ATOM     12  H1  TYR A   1      36.636 -20.096 -20.323  0.00  0.00    -0.088 HD
ATOM     13  H2  TYR A   1      36.579 -21.144 -19.029  0.00  0.00    -0.088 HD
ATOM     14  H3  TYR A   1      35.733 -19.710 -18.977  0.00  0.00    -0.088 HD
ENDBRANCH  10  11
BRANCH  10  16
ATOM     15  OXT TYR A   1      35.046 -22.644 -18.253  0.00  0.00    -0.253 OA
ATOM     16  C   TYR A   1      34.380 -22.129 -19.140  0.00  0.00    +0.293 C 
BRANCH  16  17
ATOM     17  O   TYR A   1      33.052 -22.363 -19.313  0.00  0.00    -0.482 OA
ATOM     18  H   TYR A   1      32.579 -22.866 -18.680  0.00  0.00    +0.295 HD
ENDBRANCH  16  17
ENDBRANCH  10  16
ENDBRANCH   1  10
TORSDOF 6
ENDMDL
MODEL 4
REMARK VINA RESULT:      -6.7      6.582      8.005
REMARK  Name = 71098
REMARK  6 active torsions:
REMARK  status: ('A' for Active; 'I' for Inactive)
REMARK    1  A    between atoms: CB_1  and  CG_2
REMARK    2  A    between atoms: CB_1  and  CA_10
REMARK    3  A    between atoms: CZ_7  and  OH_8
REMARK    4  A    between atoms: CA_10  and  N_11
REMARK    5  A    between atoms: CA_10  and  C_16
REMARK    6  A    between atoms: C_16  and  O_17
REMARK                            x       y       z     vdW  Elec       q    Type
REMARK                         _______ _______ _______ _____ _____    ______ ____
ROOT
ATOM      1  CB  TYR A   1      30.275 -22.981 -15.319  0.00  0.00    +0.015 C 
ENDROOT
BRANCH   1   2
ATOM      2  CG  TYR A   1      31.752 -23.113 -15.613  0.00  0.00    -0.024 C 
ATOM      3  CD1 TYR A   1      32.639 -23.278 -14.563  0.00  0.00    -0.001 C 
ATOM      4  CD2 TYR A   1      32.187 -23.064 -16.926  0.00  0.00    -0.001 C 
ATOM      5  CE1 TYR A   1      34.002 -23.398 -14.835  0.00  0.00    +0.036 C 
ATOM      6  CE2 TYR A   1      33.550 -23.185 -17.198  0.00  0.00    +0.036 C 
ATOM      7  CZ  TYR A   1      34.458 -23.352 -16.152  0.00  0.00    +0.134 C 
BRANCH   7   8
ATOM      8  OH  TYR A   1      35.787 -23.471 -16.416  0.00  0.00    -0.506 OA
ATOM      9  HH  TYR A   1      36.415 -23.051 -15.861  0.00  0.00    +0.292 HD
ENDBRANCH   7   8
ENDBRANCH   1   2
BRANCH   1  10
ATOM     10  CA  TYR A   1      29.432 -24.040 -16.044  0.00  0.00    +0.040 C 
BRANCH  10  11
ATOM     11  N   TYR A   1      28.673 -24.819 -15.063  0.00  0.00    +0.389 N 
ATOM     12  H1  TYR A   1      27.690 -24.843 -15.334  0.00  0.00    -0.088 HD
ATOM     13  H2  TYR A   1      28.762 -24.386 -14.143  0.00  0.00    -0.088 HD
ATOM     14  H3  TYR A   1      29.040 -25.770 -15.027  0.00  0.00    -0.088 HD
ENDBRANCH  10  11
BRANCH  10  16
ATOM     15  OXT TYR A   1      27.554 -23.981 -17.607  0.00  0.00    -0.253 OA
ATOM     16  C   TYR A   1      28.417 -23.396 -16.968  0.00  0.00    +0.293 C 
BRANCH  16  17
ATOM     17  O   TYR A   1      28.572 -22.046 -16.978  0.00  0.00    -0.482 OA
ATOM     18  H   TYR A   1      29.406 -21.671 -17.183  0.00  0.00    +0.295 HD
ENDBRANCH  16  17
ENDBRANCH  10  16
ENDBRANCH   1  10
TORSDOF 6
ENDMDL
MODEL 5
REMARK VINA RESULT:      -6.6      1.959      5.570
REMARK  Name = 71098
REMARK  6 active torsions:
REMARK  status: ('A' for Active; 'I' for Inactive)
REMARK    1  A    between atoms: CB_1  and  CG_2
REMARK    2  A    between atoms: CB_1  and  CA_10
REMARK    3  A    between atoms: CZ_7  and  OH_8
REMARK    4  A    between atoms: CA_10  and  N_11
REMARK    5  A    between atoms: CA_10  and  C_16
REMARK    6  A    between atoms: C_16  and  O_17
REMARK                            x       y       z     vdW  Elec       q    Type
REMARK                         _______ _______ _______ _____ _____    ______ ____
ROOT
ATOM      1  CB  TYR A   1      34.955 -20.477 -21.063  0.00  0.00    +0.015 C 
ENDROOT
BRANCH   1   2
ATOM      2  CG  TYR A   1      34.999 -19.136 -21.759  0.00  0.00    -0.024 C 
ATOM      3  CD1 TYR A   1      35.047 -17.980 -20.998  0.00  0.00    -0.001 C 
ATOM      4  CD2 TYR A   1      34.989 -19.091 -23.142  0.00  0.00    -0.001 C 
ATOM      5  CE1 TYR A   1      35.086 -16.742 -21.640  0.00  0.00    +0.036 C 
ATOM      6  CE2 TYR A   1      35.029 -17.853 -23.785  0.00  0.00    +0.036 C 
ATOM      7  CZ  TYR A   1      35.077 -16.678 -23.033  0.00  0.00    +0.134 C 
BRANCH   7   8
ATOM      8  OH  TYR A   1      35.117 -15.470 -23.659  0.00  0.00    -0.506 OA
ATOM      9  HH  TYR A   1      35.422 -14.714 -23.198  0.00  0.00    +0.292 HD
ENDBRANCH   7   8
ENDBRANCH   1   2
BRANCH   1  10
ATOM     10  CA  TYR A   1      33.838 -20.562 -20.013  0.00  0.00    +0.040 C 
BRANCH  10  11
ATOM     11  N   TYR A   1      32.535 -20.469 -20.675  0.00  0.00    +0.389 N 
ATOM     12  H1  TYR A   1      31.794 -20.561 -19.980  0.00  0.00    -0.088 HD
ATOM     13  H2  TYR A   1      32.450 -21.217 -21.364  0.00  0.00    -0.088 HD
ATOM     14  H3  TYR A   1      32.454 -19.565 -21.142  0.00  0.00    -0.088 HD
ENDBRANCH  10  11
BRANCH  10  16
ATOM     15  OXT TYR A   1      32.900 -22.471 -18.811  0.00  0.00    -0.253 OA
ATOM     16  C   TYR A   1      33.866 -21.892 -19.288  0.00  0.00    +0.293 C 
BRANCH  16  17
ATOM     17  O   TYR A   1      35.130 -22.391 -19.255  0.00  0.00    -0.482 OA
ATOM     18  H   TYR A   1      35.279 -23.272 -18.975  0.00  0.00    +0.295 HD
ENDBRANCH  16  17
ENDBRANCH  10  16
ENDBRANCH   1  10
TORSDOF 6
ENDMDL
MODEL 6
REMARK VINA RESULT:      -6.6      2.715      5.835
REMARK  Name = 71098
REMARK  6 active torsions:
REMARK  status: ('A' for Active; 'I' for Inactive)
REMARK    1  A    between atoms: CB_1  and  CG_2
REMARK    2  A    between atoms: CB_1  and  CA_10
REMARK    3  A    between atoms: CZ_7  and  OH_8
REMARK    4  A    between atoms: CA_10  and  N_11
REMARK    5  A    between atoms: CA_10  and  C_16
REMARK    6  A    between atoms: C_16  and  O_17
REMARK                            x       y       z     vdW  Elec       q    Type
REMARK                         _______ _______ _______ _____ _____    ______ ____
ROOT
ATOM      1  CB  TYR A   1      35.298 -17.877 -21.142  0.00  0.00    +0.015 C 
ENDROOT
BRANCH   1   2
ATOM      2  CG  TYR A   1      34.938 -17.348 -22.512  0.00  0.00    -0.024 C 
ATOM      3  CD1 TYR A   1      34.554 -16.025 -22.647  0.00  0.00    -0.001 C 
ATOM      4  CD2 TYR A   1      35.000 -18.198 -23.602  0.00  0.00    -0.001 C 
ATOM      5  CE1 TYR A   1      34.220 -15.538 -23.911  0.00  0.00    +0.036 C 
ATOM      6  CE2 TYR A   1      34.667 -17.711 -24.866  0.00  0.00    +0.036 C 
ATOM      7  CZ  TYR A   1      34.277 -16.381 -25.021  0.00  0.00    +0.134 C 
BRANCH   7   8
ATOM      8  OH  TYR A   1      33.953 -15.904 -26.253  0.00  0.00    -0.506 OA
ATOM      9  HH  TYR A   1      33.753 -14.995 -26.367  0.00  0.00    +0.292 HD
ENDBRANCH   7   8
ENDBRANCH   1   2
BRANCH   1  10
ATOM     10  CA  TYR A   1      35.439 -19.405 -21.117  0.00  0.00    +0.040 C 
BRANCH  10  11
ATOM     11  N   TYR A   1      36.565 -19.780 -20.258  0.00  0.00    +0.389 N 
ATOM     12  H1  TYR A   1      37.399 -19.271 -20.549  0.00  0.00    -0.088 HD
ATOM     13  H2  TYR A   1      36.733 -20.783 -20.337  0.00  0.00    -0.088 HD
ATOM     14  H3  TYR A   1      36.345 -19.548 -19.289  0.00  0.00    -0.088 HD
ENDBRANCH  10  11
BRANCH  10  16
ATOM     15  OXT TYR A   1      33.045 -19.757 -20.772  0.00  0.00    -0.253 OA
ATOM     16  C   TYR A   1      34.205 -20.061 -20.529  0.00  0.00    +0.293 C 
BRANCH  16  17
ATOM     17  O   TYR A   1      34.555 -21.076 -19.696  0.00  0.00    -0.482 OA
ATOM     18  H   TYR A   1      33.899 -21.655 -19.361  0.00  0.00    +0.295 HD
ENDBRANCH  16  17
ENDBRANCH  10  16
ENDBRANCH   1  10
TORSDOF 6
ENDMDL
MODEL 7
REMARK VINA RESULT:      -6.5      6.631      8.078
REMARK  Name = 71098
REMARK  6 active torsions:
REMARK  status: ('A' for Active; 'I' for Inactive)
REMARK    1  A    between atoms: CB_1  and  CG_2
REMARK    2  A    between atoms: CB_1  and  CA_10
REMARK    3  A    between atoms: CZ_7  and  OH_8
REMARK    4  A    between atoms: CA_10  and  N_11
REMARK    5  A    between atoms: CA_10  and  C_16
REMARK    6  A    between atoms: C_16  and  O_17
REMARK                            x       y       z     vdW  Elec       q    Type
REMARK                         _______ _______ _______ _____ _____    ______ ____
ROOT
ATOM      1  CB  TYR A   1      29.522 -22.645 -15.317  0.00  0.00    +0.015 C 
ENDROOT
BRANCH   1   2
ATOM      2  CG  TYR A   1      30.986 -22.929 -15.563  0.00  0.00    -0.024 C 
ATOM      3  CD1 TYR A   1      31.471 -22.905 -16.859  0.00  0.00    -0.001 C 
ATOM      4  CD2 TYR A   1      31.811 -23.208 -14.487  0.00  0.00    -0.001 C 
ATOM      5  CE1 TYR A   1      32.822 -23.168 -17.087  0.00  0.00    +0.036 C 
ATOM      6  CE2 TYR A   1      33.162 -23.471 -14.715  0.00  0.00    +0.036 C 
ATOM      7  CZ  TYR A   1      33.668 -23.452 -16.015  0.00  0.00    +0.134 C 
BRANCH   7   8
ATOM      8  OH  TYR A   1      34.986 -23.707 -16.237  0.00  0.00    -0.506 OA
ATOM      9  HH  TYR A   1      35.403 -23.379 -17.010  0.00  0.00    +0.292 HD
ENDBRANCH   7   8
ENDBRANCH   1   2
BRANCH   1  10
ATOM     10  CA  TYR A   1      28.653 -22.905 -16.556  0.00  0.00    +0.040 C 
BRANCH  10  11
ATOM     11  N   TYR A   1      28.388 -24.341 -16.676  0.00  0.00    +0.389 N 
ATOM     12  H1  TYR A   1      29.265 -24.856 -16.600  0.00  0.00    -0.088 HD
ATOM     13  H2  TYR A   1      27.959 -24.532 -17.582  0.00  0.00    -0.088 HD
ATOM     14  H3  TYR A   1      27.755 -24.633 -15.931  0.00  0.00    -0.088 HD
ENDBRANCH  10  11
BRANCH  10  16
ATOM     15  OXT TYR A   1      26.498 -22.380 -15.531  0.00  0.00    -0.253 OA
ATOM     16  C   TYR A   1      27.306 -22.222 -16.435  0.00  0.00    +0.293 C 
BRANCH  16  17
ATOM     17  O   TYR A   1      27.112 -21.364 -17.472  0.00  0.00    -0.482 OA
ATOM     18  H   TYR A   1      26.498 -20.661 -17.389  0.00  0.00    +0.295 HD
ENDBRANCH  16  17
ENDBRANCH  10  16
ENDBRANCH   1  10
TORSDOF 6
ENDMDL
MODEL 8
REMARK VINA RESULT:      -6.4      8.348      9.683
REMARK  Name = 71098
REMARK  6 active torsions:
REMARK  status: ('A' for Active; 'I' for Inactive)
REMARK    1  A    between atoms: CB_1  and  CG_2
REMARK    2  A    between atoms: CB_1  and  CA_10
REMARK    3  A    between atoms: CZ_7  and  OH_8
REMARK    4  A    between atoms: CA_10  and  N_11
REMARK    5  A    between atoms: CA_10  and  C_16
REMARK    6  A    between atoms: C_16  and  O_17
REMARK                            x       y       z     vdW  Elec       q    Type
REMARK                         _______ _______ _______ _____ _____    ______ ____
ROOT
ATOM      1  CB  TYR A   1      38.285 -24.580 -14.778  0.00  0.00    +0.015 C 
ENDROOT
BRANCH   1   2
ATOM      2  CG  TYR A   1      36.878 -24.323 -14.288  0.00  0.00    -0.024 C 
ATOM      3  CD1 TYR A   1      35.831 -24.349 -15.192  0.00  0.00    -0.001 C 
ATOM      4  CD2 TYR A   1      36.667 -24.066 -12.944  0.00  0.00    -0.001 C 
ATOM      5  CE1 TYR A   1      34.533 -24.110 -14.740  0.00  0.00    +0.036 C 
ATOM      6  CE2 TYR A   1      35.369 -23.828 -12.491  0.00  0.00    +0.036 C 
ATOM      7  CZ  TYR A   1      34.302 -23.850 -13.389  0.00  0.00    +0.134 C 
BRANCH   7   8
ATOM      8  OH  TYR A   1      33.035 -23.619 -12.949  0.00  0.00    -0.506 OA
ATOM      9  HH  TYR A   1      32.364 -24.257 -13.096  0.00  0.00    +0.292 HD
ENDBRANCH   7   8
ENDBRANCH   1   2
BRANCH   1  10
ATOM     10  CA  TYR A   1      38.930 -25.803 -14.109  0.00  0.00    +0.040 C 
BRANCH  10  11
ATOM     11  N   TYR A   1      38.103 -26.987 -14.352  0.00  0.00    +0.389 N 
ATOM     12  H1  TYR A   1      37.411 -26.778 -15.071  0.00  0.00    -0.088 HD
ATOM     13  H2  TYR A   1      37.627 -27.252 -13.489  0.00  0.00    -0.088 HD
ATOM     14  H3  TYR A   1      38.696 -27.757 -14.664  0.00  0.00    -0.088 HD
ENDBRANCH  10  11
BRANCH  10  16
ATOM     15  OXT TYR A   1      41.250 -26.567 -14.099  0.00  0.00    -0.253 OA
ATOM     16  C   TYR A   1      40.295 -26.095 -14.699  0.00  0.00    +0.293 C 
BRANCH  16  17
ATOM     17  O   TYR A   1      40.319 -25.784 -16.022  0.00  0.00    -0.482 OA
ATOM     18  H   TYR A   1      40.990 -26.136 -16.573  0.00  0.00    +0.295 HD
ENDBRANCH  16  17
ENDBRANCH  10  16
ENDBRANCH   1  10
TORSDOF 6
ENDMDL
MODEL 9
REMARK VINA RESULT:      -6.2      2.932      6.349
REMARK  Name = 71098
REMARK  6 active torsions:
REMARK  status: ('A' for Active; 'I' for Inactive)
REMARK    1  A    between atoms: CB_1  and  CG_2
REMARK    2  A    between atoms: CB_1  and  CA_10
REMARK    3  A    between atoms: CZ_7  and  OH_8
REMARK    4  A    between atoms: CA_10  and  N_11
REMARK    5  A    between atoms: CA_10  and  C_16
REMARK    6  A    between atoms: C_16  and  O_17
REMARK                            x       y       z     vdW  Elec       q    Type
REMARK                         _______ _______ _______ _____ _____    ______ ____
ROOT
ATOM      1  CB  TYR A   1      35.021 -16.671 -21.060  0.00  0.00    +0.015 C 
ENDROOT
BRANCH   1   2
ATOM      2  CG  TYR A   1      34.086 -15.540 -21.422  0.00  0.00    -0.024 C 
ATOM      3  CD1 TYR A   1      33.267 -15.000 -20.444  0.00  0.00    -0.001 C 
ATOM      4  CD2 TYR A   1      34.067 -15.068 -22.723  0.00  0.00    -0.001 C 
ATOM      5  CE1 TYR A   1      32.403 -13.957 -20.778  0.00  0.00    +0.036 C 
ATOM      6  CE2 TYR A   1      33.202 -14.025 -23.057  0.00  0.00    +0.036 C 
ATOM      7  CZ  TYR A   1      32.371 -13.469 -22.085  0.00  0.00    +0.134 C 
BRANCH   7   8
ATOM      8  OH  TYR A   1      31.529 -12.450 -22.409  0.00  0.00    -0.506 OA
ATOM      9  HH  TYR A   1      31.185 -12.385 -23.279  0.00  0.00    +0.292 HD
ENDBRANCH   7   8
ENDBRANCH   1   2
BRANCH   1  10
ATOM     10  CA  TYR A   1      34.904 -17.864 -22.019  0.00  0.00    +0.040 C 
BRANCH  10  11
ATOM     11  N   TYR A   1      36.161 -18.029 -22.752  0.00  0.00    +0.389 N 
ATOM     12  H1  TYR A   1      36.812 -17.293 -22.481  0.00  0.00    -0.088 HD
ATOM     13  H2  TYR A   1      35.980 -17.970 -23.755  0.00  0.00    -0.088 HD
ATOM     14  H3  TYR A   1      36.566 -18.940 -22.533  0.00  0.00    -0.088 HD
ENDBRANCH  10  11
BRANCH  10  16
ATOM     15  OXT TYR A   1      33.693 -19.886 -21.375  0.00  0.00    -0.253 OA
ATOM     16  C   TYR A   1      34.668 -19.156 -21.263  0.00  0.00    +0.293 C 
BRANCH  16  17
ATOM     17  O   TYR A   1      35.716 -19.425 -20.440  0.00  0.00    -0.482 OA
ATOM     18  H   TYR A   1      35.878 -18.881 -19.695  0.00  0.00    +0.295 HD
ENDBRANCH  16  17
ENDBRANCH  10  16
ENDBRANCH   1  10
TORSDOF 6
ENDMDL
