MODEL 1
REMARK VINA RESULT:      -3.5      0.000      0.000
REMARK  Name = 2833
REMARK  5 active torsions:
REMARK  status: ('A' for Active; 'I' for Inactive)
REMARK    1  A    between atoms: C_2  and  N_19
REMARK    2  A    between atoms: C_9  and  O_23
REMARK    3  A    between atoms: C_13  and  O_25
REMARK    4  A    between atoms: C_14  and  O_27
REMARK    5  A    between atoms: C_17  and  O_29
REMARK                            x       y       z     vdW  Elec       q    Type
REMARK                         _______ _______ _______ _____ _____    ______ ____
ROOT
ATOM      1  O   UNL     1      33.027 -14.794 -24.159  0.00  0.00    -0.283 OA
ATOM      2  C   UNL     1      36.277 -18.153 -23.244  0.00  0.00    +0.094 C 
ATOM      3  C   UNL     1      37.510 -18.420 -22.352  0.00  0.00    +0.029 C 
ATOM      4  C   UNL     1      37.290 -18.609 -20.847  0.00  0.00    +0.029 C 
ATOM      5  C   UNL     1      35.184 -17.237 -22.684  0.00  0.00    -0.001 C 
ATOM      6  C   UNL     1      36.072 -19.427 -20.513  0.00  0.00    -0.016 C 
ATOM      7  C   UNL     1      34.785 -18.905 -20.756  0.00  0.00    +0.033 C 
ATOM      8  C   UNL     1      34.639 -17.546 -21.354  0.00  0.00    +0.000 C 
ATOM      9  C   UNL     1      33.655 -19.688 -20.467  0.00  0.00    +0.175 C 
ATOM     10  C   UNL     1      36.205 -20.713 -19.973  0.00  0.00    +0.036 C 
ATOM     11  C   UNL     1      34.742 -16.249 -23.485  0.00  0.00    +0.043 C 
ATOM     12  C   UNL     1      34.058 -16.651 -20.530  0.00  0.00    +0.003 C 
ATOM     13  C   UNL     1      33.803 -20.966 -19.929  0.00  0.00    +0.206 C 
ATOM     14  C   UNL     1      35.075 -21.476 -19.681  0.00  0.00    +0.175 C 
ATOM     15  C   UNL     1      33.708 -15.221 -23.229  0.00  0.00    +0.229 C 
ATOM     16  C   UNL     1      33.821 -15.247 -20.737  0.00  0.00    +0.040 C 
ATOM     17  C   UNL     1      33.613 -14.599 -21.886  0.00  0.00    +0.177 C 
ENDROOT
BRANCH   2  19
ATOM     18  O   UNL     1      34.619 -18.516 -25.599  0.00  0.00    -0.275 OA
ATOM     19  N   UNL     1      35.679 -19.385 -23.718  0.00  0.00    -0.302 N 
ATOM     20  C   UNL     1      34.900 -19.454 -24.858  0.00  0.00    +0.223 C 
ATOM     21  C   UNL     1      34.427 -20.856 -25.136  0.00  0.00    +0.095 C 
ATOM     22  H   UNL     1      35.834 -20.211 -23.205  0.00  0.00    +0.150 HD
ENDBRANCH   2  19
BRANCH   9  23
ATOM     23  O   UNL     1      32.397 -19.226 -20.731  0.00  0.00    -0.468 OA
ATOM     24  C   UNL     1      31.808 -19.587 -21.961  0.00  0.00    +0.253 C 
ENDBRANCH   9  23
BRANCH  13  25
ATOM     25  O   UNL     1      32.702 -21.721 -19.650  0.00  0.00    -0.465 OA
ATOM     26  C   UNL     1      32.320 -21.856 -18.297  0.00  0.00    +0.253 C 
ENDBRANCH  13  25
BRANCH  14  27
ATOM     27  O   UNL     1      35.230 -22.725 -19.157  0.00  0.00    -0.468 OA
ATOM     28  C   UNL     1      35.452 -22.837 -17.766  0.00  0.00    +0.253 C 
ENDBRANCH  14  27
BRANCH  17  29
ATOM     29  O   UNL     1      33.257 -13.261 -21.848  0.00  0.00    -0.468 OA
ATOM     30  C   UNL     1      32.267 -13.038 -20.865  0.00  0.00    +0.253 C 
ENDBRANCH  17  29
TORSDOF 5
ENDMDL
MODEL 2
REMARK VINA RESULT:      -2.3      8.232     12.868
REMARK  Name = 2833
REMARK  5 active torsions:
REMARK  status: ('A' for Active; 'I' for Inactive)
REMARK    1  A    between atoms: C_2  and  N_19
REMARK    2  A    between atoms: C_9  and  O_23
REMARK    3  A    between atoms: C_13  and  O_25
REMARK    4  A    between atoms: C_14  and  O_27
REMARK    5  A    between atoms: C_17  and  O_29
REMARK                            x       y       z     vdW  Elec       q    Type
REMARK                         _______ _______ _______ _____ _____    ______ ____
ROOT
ATOM      1  O   UNL     1      32.399  -1.786 -23.514  0.00  0.00    -0.283 OA
ATOM      2  C   UNL     1      31.034  -6.047 -21.884  0.00  0.00    +0.094 C 
ATOM      3  C   UNL     1      30.024  -7.178 -22.179  0.00  0.00    +0.029 C 
ATOM      4  C   UNL     1      30.236  -8.031 -23.434  0.00  0.00    +0.029 C 
ATOM      5  C   UNL     1      31.551  -5.232 -23.074  0.00  0.00    -0.001 C 
ATOM      6  C   UNL     1      31.677  -8.379 -23.692  0.00  0.00    -0.016 C 
ATOM      7  C   UNL     1      32.586  -7.373 -24.078  0.00  0.00    +0.033 C 
ATOM      8  C   UNL     1      32.115  -5.964 -24.218  0.00  0.00    +0.000 C 
ATOM      9  C   UNL     1      33.935  -7.702 -24.288  0.00  0.00    +0.175 C 
ATOM     10  C   UNL     1      32.129  -9.696 -23.538  0.00  0.00    +0.036 C 
ATOM     11  C   UNL     1      31.523  -3.891 -22.958  0.00  0.00    +0.043 C 
ATOM     12  C   UNL     1      32.176  -5.495 -25.480  0.00  0.00    +0.003 C 
ATOM     13  C   UNL     1      34.370  -9.019 -24.132  0.00  0.00    +0.206 C 
ATOM     14  C   UNL     1      33.470 -10.013 -23.760  0.00  0.00    +0.175 C 
ATOM     15  C   UNL     1      31.950  -2.854 -23.924  0.00  0.00    +0.229 C 
ATOM     16  C   UNL     1      31.746  -4.224 -25.999  0.00  0.00    +0.040 C 
ATOM     17  C   UNL     1      31.683  -3.047 -25.370  0.00  0.00    +0.177 C 
ENDROOT
BRANCH   2  19
ATOM     18  O   UNL     1      31.044  -8.208 -19.945  0.00  0.00    -0.275 OA
ATOM     19  N   UNL     1      32.155  -6.518 -21.097  0.00  0.00    -0.302 N 
ATOM     20  C   UNL     1      32.057  -7.560 -20.195  0.00  0.00    +0.223 C 
ATOM     21  C   UNL     1      33.375  -7.863 -19.532  0.00  0.00    +0.095 C 
ATOM     22  H   UNL     1      33.028  -6.076 -21.210  0.00  0.00    +0.150 HD
ENDBRANCH   2  19
BRANCH   9  23
ATOM     23  O   UNL     1      34.847  -6.742 -24.621  0.00  0.00    -0.468 OA
ATOM     24  C   UNL     1      34.964  -6.388 -25.982  0.00  0.00    +0.253 C 
ENDBRANCH   9  23
BRANCH  13  25
ATOM     25  O   UNL     1      35.682  -9.333 -24.339  0.00  0.00    -0.465 OA
ATOM     26  C   UNL     1      36.019 -10.003 -25.535  0.00  0.00    +0.253 C 
ENDBRANCH  13  25
BRANCH  14  27
ATOM     27  O   UNL     1      33.886 -11.302 -23.604  0.00  0.00    -0.468 OA
ATOM     28  C   UNL     1      33.360 -12.278 -24.480  0.00  0.00    +0.253 C 
ENDBRANCH  14  27
BRANCH  17  29
ATOM     29  O   UNL     1      31.377  -1.910 -26.100  0.00  0.00    -0.468 OA
ATOM     30  C   UNL     1      31.609  -2.128 -27.477  0.00  0.00    +0.253 C 
ENDBRANCH  17  29
TORSDOF 5
ENDMDL
MODEL 3
REMARK VINA RESULT:      -1.7      8.485     13.054
REMARK  Name = 2833
REMARK  5 active torsions:
REMARK  status: ('A' for Active; 'I' for Inactive)
REMARK    1  A    between atoms: C_2  and  N_19
REMARK    2  A    between atoms: C_9  and  O_23
REMARK    3  A    between atoms: C_13  and  O_25
REMARK    4  A    between atoms: C_14  and  O_27
REMARK    5  A    between atoms: C_17  and  O_29
REMARK                            x       y       z     vdW  Elec       q    Type
REMARK                         _______ _______ _______ _____ _____    ______ ____
ROOT
ATOM      1  O   UNL     1      33.244  -1.786 -24.972  0.00  0.00    -0.283 OA
ATOM      2  C   UNL     1      31.166  -5.182 -22.360  0.00  0.00    +0.094 C 
ATOM      3  C   UNL     1      29.935  -6.115 -22.363  0.00  0.00    +0.029 C 
ATOM      4  C   UNL     1      29.893  -7.257 -23.384  0.00  0.00    +0.029 C 
ATOM      5  C   UNL     1      31.758  -4.787 -23.716  0.00  0.00    -0.001 C 
ATOM      6  C   UNL     1      31.215  -7.947 -23.575  0.00  0.00    -0.016 C 
ATOM      7  C   UNL     1      32.280  -7.267 -24.202  0.00  0.00    +0.033 C 
ATOM      8  C   UNL     1      32.090  -5.862 -24.664  0.00  0.00    +0.000 C 
ATOM      9  C   UNL     1      33.520  -7.910 -24.349  0.00  0.00    +0.175 C 
ATOM     10  C   UNL     1      31.406  -9.259 -23.121  0.00  0.00    +0.036 C 
ATOM     11  C   UNL     1      32.004  -3.479 -23.920  0.00  0.00    +0.043 C 
ATOM     12  C   UNL     1      32.162  -5.716 -26.001  0.00  0.00    +0.003 C 
ATOM     13  C   UNL     1      33.694  -9.217 -23.893  0.00  0.00    +0.206 C 
ATOM     14  C   UNL     1      32.640  -9.889 -23.283  0.00  0.00    +0.175 C 
ATOM     15  C   UNL     1      32.566  -2.802 -25.111  0.00  0.00    +0.229 C 
ATOM     16  C   UNL     1      31.962  -4.535 -26.799  0.00  0.00    +0.040 C 
ATOM     17  C   UNL     1      32.174  -3.260 -26.465  0.00  0.00    +0.177 C 
ENDROOT
BRANCH   2  19
ATOM     18  O   UNL     1      30.914  -7.101 -20.195  0.00  0.00    -0.275 OA
ATOM     19  N   UNL     1      32.220  -5.685 -21.501  0.00  0.00    -0.302 N 
ATOM     20  C   UNL     1      31.996  -6.602 -20.492  0.00  0.00    +0.223 C 
ATOM     21  C   UNL     1      33.265  -6.973 -19.771  0.00  0.00    +0.095 C 
ATOM     22  H   UNL     1      33.138  -5.358 -21.643  0.00  0.00    +0.150 HD
ENDBRANCH   2  19
BRANCH   9  23
ATOM     23  O   UNL     1      34.582  -7.262 -24.914  0.00  0.00    -0.468 OA
ATOM     24  C   UNL     1      35.524  -6.665 -24.050  0.00  0.00    +0.253 C 
ENDBRANCH   9  23
BRANCH  13  25
ATOM     25  O   UNL     1      34.901  -9.836 -24.040  0.00  0.00    -0.465 OA
ATOM     26  C   UNL     1      35.189 -10.434 -25.287  0.00  0.00    +0.253 C 
ENDBRANCH  13  25
BRANCH  14  27
ATOM     27  O   UNL     1      32.800 -11.166 -22.833  0.00  0.00    -0.468 OA
ATOM     28  C   UNL     1      31.788 -11.712 -22.012  0.00  0.00    +0.253 C 
ENDBRANCH  14  27
BRANCH  17  29
ATOM     29  O   UNL     1      32.054  -2.282 -27.439  0.00  0.00    -0.468 OA
ATOM     30  C   UNL     1      31.697  -2.857 -28.679  0.00  0.00    +0.253 C 
ENDBRANCH  17  29
TORSDOF 5
ENDMDL
MODEL 4
REMARK VINA RESULT:      -1.3      5.871      9.721
REMARK  Name = 2833
REMARK  5 active torsions:
REMARK  status: ('A' for Active; 'I' for Inactive)
REMARK    1  A    between atoms: C_2  and  N_19
REMARK    2  A    between atoms: C_9  and  O_23
REMARK    3  A    between atoms: C_13  and  O_25
REMARK    4  A    between atoms: C_14  and  O_27
REMARK    5  A    between atoms: C_17  and  O_29
REMARK                            x       y       z     vdW  Elec       q    Type
REMARK                         _______ _______ _______ _____ _____    ______ ____
ROOT
ATOM      1  O   UNL     1      32.960  -6.720 -19.125  0.00  0.00    -0.283 OA
ATOM      2  C   UNL     1      31.759 -11.136 -20.442  0.00  0.00    +0.094 C 
ATOM      3  C   UNL     1      30.631 -11.910 -21.158  0.00  0.00    +0.029 C 
ATOM      4  C   UNL     1      30.455 -11.708 -22.666  0.00  0.00    +0.029 C 
ATOM      5  C   UNL     1      32.012  -9.690 -20.879  0.00  0.00    -0.001 C 
ATOM      6  C   UNL     1      31.754 -11.631 -23.422  0.00  0.00    -0.016 C 
ATOM      7  C   UNL     1      32.603 -10.519 -23.250  0.00  0.00    +0.033 C 
ATOM      8  C   UNL     1      32.212  -9.427 -22.312  0.00  0.00    +0.000 C 
ATOM      9  C   UNL     1      33.827 -10.470 -23.938  0.00  0.00    +0.175 C 
ATOM     10  C   UNL     1      32.136 -12.665 -24.286  0.00  0.00    +0.036 C 
ATOM     11  C   UNL     1      32.109  -8.763 -19.906  0.00  0.00    +0.043 C 
ATOM     12  C   UNL     1      31.982  -8.246 -22.919  0.00  0.00    +0.003 C 
ATOM     13  C   UNL     1      34.194 -11.507 -24.796  0.00  0.00    +0.206 C 
ATOM     14  C   UNL     1      33.350 -12.600 -24.970  0.00  0.00    +0.175 C 
ATOM     15  C   UNL     1      32.348  -7.306 -20.015  0.00  0.00    +0.229 C 
ATOM     16  C   UNL     1      31.525  -7.006 -22.351  0.00  0.00    +0.040 C 
ATOM     17  C   UNL     1      31.708  -6.541 -21.112  0.00  0.00    +0.177 C 
ENDROOT
BRANCH   2  19
ATOM     18  O   UNL     1      32.120 -13.997 -20.782  0.00  0.00    -0.275 OA
ATOM     19  N   UNL     1      33.009 -11.870 -20.456  0.00  0.00    -0.302 N 
ATOM     20  C   UNL     1      33.075 -13.240 -20.625  0.00  0.00    +0.223 C 
ATOM     21  C   UNL     1      34.494 -13.743 -20.626  0.00  0.00    +0.095 C 
ATOM     22  H   UNL     1      33.849 -11.370 -20.340  0.00  0.00    +0.150 HD
ENDBRANCH   2  19
BRANCH   9  23
ATOM     23  O   UNL     1      34.690  -9.426 -23.760  0.00  0.00    -0.468 OA
ATOM     24  C   UNL     1      34.569  -8.318 -24.624  0.00  0.00    +0.253 C 
ENDBRANCH   9  23
BRANCH  13  25
ATOM     25  O   UNL     1      35.384 -11.454 -25.461  0.00  0.00    -0.465 OA
ATOM     26  C   UNL     1      35.415 -10.785 -26.705  0.00  0.00    +0.253 C 
ENDBRANCH  13  25
BRANCH  14  27
ATOM     27  O   UNL     1      33.700 -13.619 -25.806  0.00  0.00    -0.468 OA
ATOM     28  C   UNL     1      32.694 -14.532 -26.195  0.00  0.00    +0.253 C 
ENDBRANCH  14  27
BRANCH  17  29
ATOM     29  O   UNL     1      31.307  -5.249 -20.813  0.00  0.00    -0.468 OA
ATOM     30  C   UNL     1      30.444  -4.753 -21.816  0.00  0.00    +0.253 C 
ENDBRANCH  17  29
TORSDOF 5
ENDMDL
MODEL 5
REMARK VINA RESULT:      -1.0      1.038      1.107
REMARK  Name = 2833
REMARK  5 active torsions:
REMARK  status: ('A' for Active; 'I' for Inactive)
REMARK    1  A    between atoms: C_2  and  N_19
REMARK    2  A    between atoms: C_9  and  O_23
REMARK    3  A    between atoms: C_13  and  O_25
REMARK    4  A    between atoms: C_14  and  O_27
REMARK    5  A    between atoms: C_17  and  O_29
REMARK                            x       y       z     vdW  Elec       q    Type
REMARK                         _______ _______ _______ _____ _____    ______ ____
ROOT
ATOM      1  O   UNL     1      32.148 -13.863 -23.645  0.00  0.00    -0.283 OA
ATOM      2  C   UNL     1      35.401 -17.340 -23.589  0.00  0.00    +0.094 C 
ATOM      3  C   UNL     1      36.754 -17.708 -22.941  0.00  0.00    +0.029 C 
ATOM      4  C   UNL     1      36.776 -18.038 -21.445  0.00  0.00    +0.029 C 
ATOM      5  C   UNL     1      34.441 -16.466 -22.776  0.00  0.00    -0.001 C 
ATOM      6  C   UNL     1      35.605 -18.866 -20.991  0.00  0.00    -0.016 C 
ATOM      7  C   UNL     1      34.312 -18.305 -20.970  0.00  0.00    +0.033 C 
ATOM      8  C   UNL     1      34.110 -16.893 -21.408  0.00  0.00    +0.000 C 
ATOM      9  C   UNL     1      33.221 -19.095 -20.573  0.00  0.00    +0.175 C 
ATOM     10  C   UNL     1      35.785 -20.199 -20.601  0.00  0.00    +0.036 C 
ATOM     11  C   UNL     1      33.905 -15.400 -23.400  0.00  0.00    +0.043 C 
ATOM     12  C   UNL     1      33.698 -16.072 -20.422  0.00  0.00    +0.003 C 
ATOM     13  C   UNL     1      33.416 -20.421 -20.186  0.00  0.00    +0.206 C 
ATOM     14  C   UNL     1      34.695 -20.971 -20.199  0.00  0.00    +0.175 C 
ATOM     15  C   UNL     1      32.957 -14.386 -22.883  0.00  0.00    +0.229 C 
ATOM     16  C   UNL     1      33.472 -14.652 -20.457  0.00  0.00    +0.040 C 
ATOM     17  C   UNL     1      33.100 -13.894 -21.491  0.00  0.00    +0.177 C 
ENDROOT
BRANCH   2  19
ATOM     18  O   UNL     1      33.702 -17.539 -25.935  0.00  0.00    -0.275 OA
ATOM     19  N   UNL     1      34.698 -18.512 -24.070  0.00  0.00    -0.302 N 
ATOM     20  C   UNL     1      33.908 -18.504 -25.204  0.00  0.00    +0.223 C 
ATOM     21  C   UNL     1      33.316 -19.858 -25.492  0.00  0.00    +0.095 C 
ATOM     22  H   UNL     1      34.786 -19.353 -23.566  0.00  0.00    +0.150 HD
ENDBRANCH   2  19
BRANCH   9  23
ATOM     23  O   UNL     1      31.951 -18.592 -20.582  0.00  0.00    -0.468 OA
ATOM     24  C   UNL     1      31.779 -17.245 -20.963  0.00  0.00    +0.253 C 
ENDBRANCH   9  23
BRANCH  13  25
ATOM     25  O   UNL     1      32.353 -21.184 -19.800  0.00  0.00    -0.465 OA
ATOM     26  C   UNL     1      32.319 -21.643 -18.465  0.00  0.00    +0.253 C 
ENDBRANCH  13  25
BRANCH  14  27
ATOM     27  O   UNL     1      34.896 -22.267 -19.824  0.00  0.00    -0.468 OA
ATOM     28  C   UNL     1      35.430 -22.509 -18.539  0.00  0.00    +0.253 C 
ENDBRANCH  14  27
BRANCH  17  29
ATOM     29  O   UNL     1      32.795 -12.561 -21.272  0.00  0.00    -0.468 OA
ATOM     30  C   UNL     1      31.807 -12.436 -20.270  0.00  0.00    +0.253 C 
ENDBRANCH  17  29
TORSDOF 5
ENDMDL
MODEL 6
REMARK VINA RESULT:      -0.9      5.180     10.698
REMARK  Name = 2833
REMARK  5 active torsions:
REMARK  status: ('A' for Active; 'I' for Inactive)
REMARK    1  A    between atoms: C_2  and  N_19
REMARK    2  A    between atoms: C_9  and  O_23
REMARK    3  A    between atoms: C_13  and  O_25
REMARK    4  A    between atoms: C_14  and  O_27
REMARK    5  A    between atoms: C_17  and  O_29
REMARK                            x       y       z     vdW  Elec       q    Type
REMARK                         _______ _______ _______ _____ _____    ______ ____
ROOT
ATOM      1  O   UNL     1      34.948 -14.402 -22.176  0.00  0.00    -0.283 OA
ATOM      2  C   UNL     1      33.800 -10.355 -24.408  0.00  0.00    +0.094 C 
ATOM      3  C   UNL     1      32.674  -9.732 -25.263  0.00  0.00    +0.029 C 
ATOM      4  C   UNL     1      31.338  -9.415 -24.584  0.00  0.00    +0.029 C 
ATOM      5  C   UNL     1      33.400 -11.405 -23.368  0.00  0.00    -0.001 C 
ATOM      6  C   UNL     1      31.484  -8.836 -23.203  0.00  0.00    -0.016 C 
ATOM      7  C   UNL     1      31.965  -9.640 -22.150  0.00  0.00    +0.033 C 
ATOM      8  C   UNL     1      32.336 -11.061 -22.413  0.00  0.00    +0.000 C 
ATOM      9  C   UNL     1      32.125  -9.082 -20.871  0.00  0.00    +0.175 C 
ATOM     10  C   UNL     1      31.160  -7.496 -22.956  0.00  0.00    +0.036 C 
ATOM     11  C   UNL     1      34.106 -12.552 -23.351  0.00  0.00    +0.043 C 
ATOM     12  C   UNL     1      31.553 -11.953 -21.775  0.00  0.00    +0.003 C 
ATOM     13  C   UNL     1      31.797  -7.746 -20.640  0.00  0.00    +0.206 C 
ATOM     14  C   UNL     1      31.314  -6.956 -21.679  0.00  0.00    +0.175 C 
ATOM     15  C   UNL     1      33.958 -13.735 -22.474  0.00  0.00    +0.229 C 
ATOM     16  C   UNL     1      31.569 -13.390 -21.845  0.00  0.00    +0.040 C 
ATOM     17  C   UNL     1      32.602 -14.199 -22.095  0.00  0.00    +0.177 C 
ENDROOT
BRANCH   2  19
ATOM     18  O   UNL     1      34.058  -7.567 -25.178  0.00  0.00    -0.275 OA
ATOM     19  N   UNL     1      34.621  -9.340 -23.779  0.00  0.00    -0.302 N 
ATOM     20  C   UNL     1      34.676  -8.032 -24.223  0.00  0.00    +0.223 C 
ATOM     21  C   UNL     1      35.585  -7.183 -23.376  0.00  0.00    +0.095 C 
ATOM     22  H   UNL     1      35.165  -9.593 -22.998  0.00  0.00    +0.150 HD
ENDBRANCH   2  19
BRANCH   9  23
ATOM     23  O   UNL     1      32.629  -9.824 -19.840  0.00  0.00    -0.468 OA
ATOM     24  C   UNL     1      31.715 -10.367 -18.912  0.00  0.00    +0.253 C 
ENDBRANCH   9  23
BRANCH  13  25
ATOM     25  O   UNL     1      31.954  -7.210 -19.395  0.00  0.00    -0.465 OA
ATOM     26  C   UNL     1      32.761  -6.057 -19.271  0.00  0.00    +0.253 C 
ENDBRANCH  13  25
BRANCH  14  27
ATOM     27  O   UNL     1      30.991  -5.649 -21.464  0.00  0.00    -0.468 OA
ATOM     28  C   UNL     1      30.928  -4.789 -22.583  0.00  0.00    +0.253 C 
ENDBRANCH  14  27
BRANCH  17  29
ATOM     29  O   UNL     1      32.429 -15.568 -21.971  0.00  0.00    -0.468 OA
ATOM     30  C   UNL     1      32.275 -15.928 -20.614  0.00  0.00    +0.253 C 
ENDBRANCH  17  29
TORSDOF 5
ENDMDL
MODEL 7
REMARK VINA RESULT:      -0.7      3.631      7.502
REMARK  Name = 2833
REMARK  5 active torsions:
REMARK  status: ('A' for Active; 'I' for Inactive)
REMARK    1  A    between atoms: C_2  and  N_19
REMARK    2  A    between atoms: C_9  and  O_23
REMARK    3  A    between atoms: C_13  and  O_25
REMARK    4  A    between atoms: C_14  and  O_27
REMARK    5  A    between atoms: C_17  and  O_29
REMARK                            x       y       z     vdW  Elec       q    Type
REMARK                         _______ _______ _______ _____ _____    ______ ____
ROOT
ATOM      1  O   UNL     1      33.061 -19.158 -20.131  0.00  0.00    -0.283 OA
ATOM      2  C   UNL     1      32.386 -23.118 -17.574  0.00  0.00    +0.094 C 
ATOM      3  C   UNL     1      32.594 -24.647 -17.650  0.00  0.00    +0.029 C 
ATOM      4  C   UNL     1      34.027 -25.187 -17.600  0.00  0.00    +0.029 C 
ATOM      5  C   UNL     1      33.380 -22.230 -18.327  0.00  0.00    -0.001 C 
ATOM      6  C   UNL     1      34.909 -24.472 -16.613  0.00  0.00    -0.016 C 
ATOM      7  C   UNL     1      35.294 -23.136 -16.851  0.00  0.00    +0.033 C 
ATOM      8  C   UNL     1      34.816 -22.437 -18.079  0.00  0.00    +0.000 C 
ATOM      9  C   UNL     1      36.093 -22.468 -15.910  0.00  0.00    +0.175 C 
ATOM     10  C   UNL     1      35.341 -25.117 -15.447  0.00  0.00    +0.036 C 
ATOM     11  C   UNL     1      32.868 -21.265 -19.114  0.00  0.00    +0.043 C 
ATOM     12  C   UNL     1      35.802 -22.115 -18.939  0.00  0.00    +0.003 C 
ATOM     13  C   UNL     1      36.517 -23.124 -14.754  0.00  0.00    +0.206 C 
ATOM     14  C   UNL     1      36.143 -24.445 -14.524  0.00  0.00    +0.175 C 
ATOM     15  C   UNL     1      33.567 -20.264 -19.952  0.00  0.00    +0.229 C 
ATOM     16  C   UNL     1      35.711 -21.506 -20.239  0.00  0.00    +0.040 C 
ATOM     17  C   UNL     1      34.786 -20.659 -20.698  0.00  0.00    +0.177 C 
ENDROOT
BRANCH   2  19
ATOM     18  O   UNL     1      30.293 -23.767 -15.669  0.00  0.00    -0.275 OA
ATOM     19  N   UNL     1      32.268 -22.658 -16.205  0.00  0.00    -0.302 N 
ATOM     20  C   UNL     1      31.227 -23.026 -15.373  0.00  0.00    +0.223 C 
ATOM     21  C   UNL     1      31.362 -22.430 -13.998  0.00  0.00    +0.095 C 
ATOM     22  H   UNL     1      32.962 -22.056 -15.850  0.00  0.00    +0.150 HD
ENDBRANCH   2  19
BRANCH   9  23
ATOM     23  O   UNL     1      36.447 -21.161 -16.093  0.00  0.00    -0.468 OA
ATOM     24  C   UNL     1      37.670 -20.895 -16.743  0.00  0.00    +0.253 C 
ENDBRANCH   9  23
BRANCH  13  25
ATOM     25  O   UNL     1      37.293 -22.470 -13.843  0.00  0.00    -0.465 OA
ATOM     26  C   UNL     1      37.141 -22.809 -12.480  0.00  0.00    +0.253 C 
ENDBRANCH  13  25
BRANCH  14  27
ATOM     27  O   UNL     1      36.551 -25.095 -13.397  0.00  0.00    -0.468 OA
ATOM     28  C   UNL     1      37.214 -26.333 -13.549  0.00  0.00    +0.253 C 
ENDBRANCH  14  27
BRANCH  17  29
ATOM     29  O   UNL     1      34.967 -20.074 -21.941  0.00  0.00    -0.468 OA
ATOM     30  C   UNL     1      35.822 -18.953 -21.842  0.00  0.00    +0.253 C 
ENDBRANCH  17  29
TORSDOF 5
ENDMDL
MODEL 8
REMARK VINA RESULT:      -0.6      2.690      7.809
REMARK  Name = 2833
REMARK  5 active torsions:
REMARK  status: ('A' for Active; 'I' for Inactive)
REMARK    1  A    between atoms: C_2  and  N_19
REMARK    2  A    between atoms: C_9  and  O_23
REMARK    3  A    between atoms: C_13  and  O_25
REMARK    4  A    between atoms: C_14  and  O_27
REMARK    5  A    between atoms: C_17  and  O_29
REMARK                            x       y       z     vdW  Elec       q    Type
REMARK                         _______ _______ _______ _____ _____    ______ ____
ROOT
ATOM      1  O   UNL     1      31.975 -19.212 -20.775  0.00  0.00    -0.283 OA
ATOM      2  C   UNL     1      32.963 -14.565 -20.445  0.00  0.00    +0.094 C 
ATOM      3  C   UNL     1      34.153 -13.603 -20.232  0.00  0.00    +0.029 C 
ATOM      4  C   UNL     1      35.182 -13.461 -21.359  0.00  0.00    +0.029 C 
ATOM      5  C   UNL     1      33.244 -15.890 -21.160  0.00  0.00    -0.001 C 
ATOM      6  C   UNL     1      34.573 -13.428 -22.734  0.00  0.00    -0.016 C 
ATOM      7  C   UNL     1      33.973 -14.588 -23.266  0.00  0.00    +0.033 C 
ATOM      8  C   UNL     1      33.938 -15.841 -22.456  0.00  0.00    +0.000 C 
ATOM      9  C   UNL     1      33.382 -14.540 -24.539  0.00  0.00    +0.175 C 
ATOM     10  C   UNL     1      34.583 -12.248 -23.488  0.00  0.00    +0.036 C 
ATOM     11  C   UNL     1      32.768 -17.011 -20.585  0.00  0.00    +0.043 C 
ATOM     12  C   UNL     1      34.661 -16.848 -22.983  0.00  0.00    +0.003 C 
ATOM     13  C   UNL     1      33.401 -13.357 -25.279  0.00  0.00    +0.206 C 
ATOM     14  C   UNL     1      34.001 -12.216 -24.755  0.00  0.00    +0.175 C 
ATOM     15  C   UNL     1      32.877 -18.418 -21.033  0.00  0.00    +0.229 C 
ATOM     16  C   UNL     1      34.913 -18.161 -22.451  0.00  0.00    +0.040 C 
ATOM     17  C   UNL     1      34.141 -18.894 -21.645  0.00  0.00    +0.177 C 
ENDROOT
BRANCH   2  19
ATOM     18  O   UNL     1      32.187 -11.779 -20.190  0.00  0.00    -0.275 OA
ATOM     19  N   UNL     1      31.841 -13.903 -21.078  0.00  0.00    -0.302 N 
ATOM     20  C   UNL     1      31.554 -12.563 -20.892  0.00  0.00    +0.223 C 
ATOM     21  C   UNL     1      30.352 -12.126 -21.686  0.00  0.00    +0.095 C 
ATOM     22  H   UNL     1      31.256 -14.430 -21.669  0.00  0.00    +0.150 HD
ENDBRANCH   2  19
BRANCH   9  23
ATOM     23  O   UNL     1      32.756 -15.635 -25.063  0.00  0.00    -0.468 OA
ATOM     24  C   UNL     1      33.501 -16.470 -25.922  0.00  0.00    +0.253 C 
ENDBRANCH   9  23
BRANCH  13  25
ATOM     25  O   UNL     1      32.825 -13.316 -26.515  0.00  0.00    -0.465 OA
ATOM     26  C   UNL     1      33.675 -13.381 -27.641  0.00  0.00    +0.253 C 
ENDBRANCH  13  25
BRANCH  14  27
ATOM     27  O   UNL     1      34.023 -11.055 -25.470  0.00  0.00    -0.468 OA
ATOM     28  C   UNL     1      35.267 -10.407 -25.641  0.00  0.00    +0.253 C 
ENDBRANCH  14  27
BRANCH  17  29
ATOM     29  O   UNL     1      34.508 -20.201 -21.368  0.00  0.00    -0.468 OA
ATOM     30  C   UNL     1      35.687 -20.230 -20.589  0.00  0.00    +0.253 C 
ENDBRANCH  17  29
TORSDOF 5
ENDMDL
