MODEL 1
REMARK VINA RESULT:      -9.9      0.000      0.000
REMARK  Name = 11840955
REMARK  6 active torsions:
REMARK  status: ('A' for Active; 'I' for Inactive)
REMARK    1  A    between atoms: N_4  and  C_10
REMARK    2  A    between atoms: N_4  and  O_21
REMARK    3  A    between atoms: C_5  and  C_6
REMARK    4  A    between atoms: O_21  and  C_22
REMARK    5  A    between atoms: C_22  and  C_24
REMARK    6  A    between atoms: C_24  and  O_25
REMARK                            x       y       z     vdW  Elec       q    Type
REMARK                         _______ _______ _______ _____ _____    ______ ____
ROOT
ATOM      1  N   UNL     1      31.708  -6.306 -23.331  0.00  0.00    -0.403 NA
ATOM      2  C   UNL     1      32.593  -7.211 -22.756  0.00  0.00    +0.149 C 
ATOM      3  C   UNL     1      33.639  -6.398 -24.616  0.00  0.00    +0.052 C 
ATOM      4  C   UNL     1      32.298  -5.834 -24.398  0.00  0.00    +0.133 C 
ATOM      5  C   UNL     1      33.877  -7.340 -23.518  0.00  0.00    +0.137 C 
ATOM      6  C   UNL     1      31.707  -4.817 -25.336  0.00  0.00    +0.032 C 
ATOM      7  C   UNL     1      34.377  -6.023 -25.659  0.00  0.00    +0.004 C 
ATOM      8  C   UNL     1      32.653  -4.496 -26.461  0.00  0.00    +0.003 C 
ATOM      9  C   UNL     1      33.868  -5.050 -26.601  0.00  0.00    +0.000 C 
ENDROOT
BRANCH   2  12
ATOM     10  O   UNL     1      32.786  -6.194 -19.997  0.00  0.00    -0.213 OA
ATOM     11  N   UNL     1      32.163  -8.360 -19.354  0.00  0.00    -0.340 NA
ATOM     12  C   UNL     1      32.363  -7.913 -21.644  0.00  0.00    +0.196 C 
ATOM     13  C   UNL     1      31.979  -9.275 -21.477  0.00  0.00    +0.027 C 
ATOM     14  C   UNL     1      31.884  -9.448 -20.019  0.00  0.00    +0.123 C 
ATOM     15  C   UNL     1      31.497 -10.764 -19.400  0.00  0.00    +0.086 C 
ATOM     16  C   UNL     1      32.476  -7.346 -20.260  0.00  0.00    +0.190 C 
ATOM     17  C   UNL     1      31.724 -10.294 -22.297  0.00  0.00    -0.001 C 
ATOM     18  C   UNL     1      31.242 -11.810 -20.448  0.00  0.00    -0.019 C 
ATOM     19  C   UNL     1      31.347 -11.586 -21.769  0.00  0.00    -0.004 C 
ENDBRANCH   2  12
BRANCH   5  20
ATOM     20  N   UNL     1      34.894  -8.076 -23.270  0.00  0.00    -0.128 NA
BRANCH  20  21
ATOM     21  O   UNL     1      34.557  -9.416 -23.524  0.00  0.00    -0.224 OA
BRANCH  21  22
ATOM     22  C   UNL     1      35.083  -9.781 -24.790  0.00  0.00    +0.284 C 
BRANCH  22  24
ATOM     23  O   UNL     1      34.359 -11.509 -26.338  0.00  0.00    -0.247 OA
ATOM     24  C   UNL     1      34.553 -11.129 -25.192  0.00  0.00    +0.347 C 
BRANCH  24  25
ATOM     25  O   UNL     1      34.312 -11.886 -24.092  0.00  0.00    -0.478 OA
ATOM     26  H   UNL     1      33.580 -12.470 -24.076  0.00  0.00    +0.295 HD
ENDBRANCH  24  25
ENDBRANCH  22  24
ENDBRANCH  21  22
ENDBRANCH  20  21
ENDBRANCH   5  20
TORSDOF 6
ENDMDL
MODEL 2
REMARK VINA RESULT:      -9.8     14.280     17.955
REMARK  Name = 11840955
REMARK  6 active torsions:
REMARK  status: ('A' for Active; 'I' for Inactive)
REMARK    1  A    between atoms: N_4  and  C_10
REMARK    2  A    between atoms: N_4  and  O_21
REMARK    3  A    between atoms: C_5  and  C_6
REMARK    4  A    between atoms: O_21  and  C_22
REMARK    5  A    between atoms: C_22  and  C_24
REMARK    6  A    between atoms: C_24  and  O_25
REMARK                            x       y       z     vdW  Elec       q    Type
REMARK                         _______ _______ _______ _____ _____    ______ ____
ROOT
ATOM      1  N   UNL     1      33.023 -24.856 -14.111  0.00  0.00    -0.403 NA
ATOM      2  C   UNL     1      34.164 -24.429 -14.780  0.00  0.00    +0.149 C 
ATOM      3  C   UNL     1      32.401 -23.451 -15.850  0.00  0.00    +0.052 C 
ATOM      4  C   UNL     1      32.006 -24.302 -14.717  0.00  0.00    +0.133 C 
ATOM      5  C   UNL     1      33.864 -23.511 -15.925  0.00  0.00    +0.137 C 
ATOM      6  C   UNL     1      30.563 -24.483 -14.330  0.00  0.00    +0.032 C 
ATOM      7  C   UNL     1      31.485 -22.810 -16.575  0.00  0.00    +0.004 C 
ATOM      8  C   UNL     1      29.651 -23.703 -15.238  0.00  0.00    +0.003 C 
ATOM      9  C   UNL     1      30.081 -22.943 -16.259  0.00  0.00    +0.000 C 
ENDROOT
BRANCH   2  12
ATOM     10  O   UNL     1      35.736 -26.573 -16.052  0.00  0.00    -0.213 OA
ATOM     11  N   UNL     1      37.439 -25.949 -14.567  0.00  0.00    -0.340 NA
ATOM     12  C   UNL     1      35.415 -24.775 -14.468  0.00  0.00    +0.196 C 
ATOM     13  C   UNL     1      36.303 -24.239 -13.489  0.00  0.00    +0.027 C 
ATOM     14  C   UNL     1      37.528 -25.040 -13.635  0.00  0.00    +0.123 C 
ATOM     15  C   UNL     1      38.740 -24.798 -12.776  0.00  0.00    +0.086 C 
ATOM     16  C   UNL     1      36.173 -25.876 -15.148  0.00  0.00    +0.190 C 
ATOM     17  C   UNL     1      36.233 -23.268 -12.579  0.00  0.00    -0.001 C 
ATOM     18  C   UNL     1      38.509 -23.676 -11.803  0.00  0.00    -0.019 C 
ATOM     19  C   UNL     1      37.361 -22.983 -11.720  0.00  0.00    -0.004 C 
ENDBRANCH   2  12
BRANCH   5  20
ATOM     20  N   UNL     1      34.670 -22.944 -16.740  0.00  0.00    -0.128 NA
BRANCH  20  21
ATOM     21  O   UNL     1      34.273 -23.244 -18.054  0.00  0.00    -0.224 OA
BRANCH  21  22
ATOM     22  C   UNL     1      34.933 -22.353 -18.939  0.00  0.00    +0.284 C 
BRANCH  22  24
ATOM     23  O   UNL     1      32.715 -21.649 -19.641  0.00  0.00    -0.247 OA
ATOM     24  C   UNL     1      33.924 -21.470 -19.620  0.00  0.00    +0.347 C 
BRANCH  24  25
ATOM     25  O   UNL     1      34.546 -20.425 -20.222  0.00  0.00    -0.478 OA
ATOM     26  H   UNL     1      34.225 -20.095 -21.039  0.00  0.00    +0.295 HD
ENDBRANCH  24  25
ENDBRANCH  22  24
ENDBRANCH  21  22
ENDBRANCH  20  21
ENDBRANCH   5  20
TORSDOF 6
ENDMDL
MODEL 3
REMARK VINA RESULT:      -9.8     15.399     18.372
REMARK  Name = 11840955
REMARK  6 active torsions:
REMARK  status: ('A' for Active; 'I' for Inactive)
REMARK    1  A    between atoms: N_4  and  C_10
REMARK    2  A    between atoms: N_4  and  O_21
REMARK    3  A    between atoms: C_5  and  C_6
REMARK    4  A    between atoms: O_21  and  C_22
REMARK    5  A    between atoms: C_22  and  C_24
REMARK    6  A    between atoms: C_24  and  O_25
REMARK                            x       y       z     vdW  Elec       q    Type
REMARK                         _______ _______ _______ _____ _____    ______ ____
ROOT
ATOM      1  N   UNL     1      32.748 -24.894 -13.381  0.00  0.00    -0.403 NA
ATOM      2  C   UNL     1      33.935 -24.322 -13.823  0.00  0.00    +0.149 C 
ATOM      3  C   UNL     1      32.301 -23.545 -15.216  0.00  0.00    +0.052 C 
ATOM      4  C   UNL     1      31.805 -24.456 -14.172  0.00  0.00    +0.133 C 
ATOM      5  C   UNL     1      33.748 -23.428 -15.011  0.00  0.00    +0.137 C 
ATOM      6  C   UNL     1      30.348 -24.815 -14.066  0.00  0.00    +0.032 C 
ATOM      7  C   UNL     1      31.469 -23.007 -16.106  0.00  0.00    +0.004 C 
ATOM      8  C   UNL     1      29.536 -24.136 -15.135  0.00  0.00    +0.003 C 
ATOM      9  C   UNL     1      30.056 -23.313 -16.061  0.00  0.00    +0.000 C 
ENDROOT
BRANCH   2  12
ATOM     10  O   UNL     1      34.765 -23.498 -11.118  0.00  0.00    -0.213 OA
ATOM     11  N   UNL     1      36.833 -24.456 -11.664  0.00  0.00    -0.340 NA
ATOM     12  C   UNL     1      35.137 -24.520 -13.277  0.00  0.00    +0.196 C 
ATOM     13  C   UNL     1      36.298 -25.153 -13.810  0.00  0.00    +0.027 C 
ATOM     14  C   UNL     1      37.291 -25.057 -12.729  0.00  0.00    +0.123 C 
ATOM     15  C   UNL     1      38.681 -25.612 -12.877  0.00  0.00    +0.086 C 
ATOM     16  C   UNL     1      35.509 -24.080 -11.892  0.00  0.00    +0.190 C 
ATOM     17  C   UNL     1      36.610 -25.739 -14.966  0.00  0.00    -0.001 C 
ATOM     18  C   UNL     1      38.881 -26.240 -14.228  0.00  0.00    -0.019 C 
ATOM     19  C   UNL     1      37.929 -26.293 -15.175  0.00  0.00    -0.004 C 
ENDBRANCH   2  12
BRANCH   5  20
ATOM     20  N   UNL     1      34.619 -22.754 -15.662  0.00  0.00    -0.128 NA
BRANCH  20  21
ATOM     21  O   UNL     1      34.842 -23.377 -16.901  0.00  0.00    -0.224 OA
BRANCH  21  22
ATOM     22  C   UNL     1      34.829 -22.384 -17.914  0.00  0.00    +0.284 C 
BRANCH  22  24
ATOM     23  O   UNL     1      32.911 -21.961 -19.345  0.00  0.00    -0.247 OA
ATOM     24  C   UNL     1      33.784 -22.717 -18.941  0.00  0.00    +0.347 C 
BRANCH  24  25
ATOM     25  O   UNL     1      33.938 -23.995 -19.371  0.00  0.00    -0.478 OA
ATOM     26  H   UNL     1      34.792 -24.381 -19.396  0.00  0.00    +0.295 HD
ENDBRANCH  24  25
ENDBRANCH  22  24
ENDBRANCH  21  22
ENDBRANCH  20  21
ENDBRANCH   5  20
TORSDOF 6
ENDMDL
MODEL 4
REMARK VINA RESULT:      -9.7      3.677      6.143
REMARK  Name = 11840955
REMARK  6 active torsions:
REMARK  status: ('A' for Active; 'I' for Inactive)
REMARK    1  A    between atoms: N_4  and  C_10
REMARK    2  A    between atoms: N_4  and  O_21
REMARK    3  A    between atoms: C_5  and  C_6
REMARK    4  A    between atoms: O_21  and  C_22
REMARK    5  A    between atoms: C_22  and  C_24
REMARK    6  A    between atoms: C_24  and  O_25
REMARK                            x       y       z     vdW  Elec       q    Type
REMARK                         _______ _______ _______ _____ _____    ______ ____
ROOT
ATOM      1  N   UNL     1      34.539 -11.058 -24.328  0.00  0.00    -0.403 NA
ATOM      2  C   UNL     1      33.637 -11.970 -23.793  0.00  0.00    +0.149 C 
ATOM      3  C   UNL     1      32.907  -9.906 -23.146  0.00  0.00    +0.052 C 
ATOM      4  C   UNL     1      34.130  -9.871 -23.963  0.00  0.00    +0.133 C 
ATOM      5  C   UNL     1      32.539 -11.319 -23.008  0.00  0.00    +0.137 C 
ATOM      6  C   UNL     1      34.805  -8.575 -24.318  0.00  0.00    +0.032 C 
ATOM      7  C   UNL     1      32.356  -8.782 -22.691  0.00  0.00    +0.004 C 
ATOM      8  C   UNL     1      34.072  -7.397 -23.735  0.00  0.00    +0.003 C 
ATOM      9  C   UNL     1      32.956  -7.501 -22.995  0.00  0.00    +0.000 C 
ENDROOT
BRANCH   2  12
ATOM     10  O   UNL     1      33.074 -13.471 -26.266  0.00  0.00    -0.213 OA
ATOM     11  N   UNL     1      33.581 -15.378 -25.002  0.00  0.00    -0.340 NA
ATOM     12  C   UNL     1      33.704 -13.296 -23.939  0.00  0.00    +0.196 C 
ATOM     13  C   UNL     1      34.049 -14.309 -22.998  0.00  0.00    +0.027 C 
ATOM     14  C   UNL     1      33.939 -15.563 -23.760  0.00  0.00    +0.123 C 
ATOM     15  C   UNL     1      34.224 -16.900 -23.133  0.00  0.00    +0.086 C 
ATOM     16  C   UNL     1      33.407 -14.012 -25.223  0.00  0.00    +0.190 C 
ATOM     17  C   UNL     1      34.405 -14.327 -21.714  0.00  0.00    -0.001 C 
ATOM     18  C   UNL     1      34.612 -16.757 -21.688  0.00  0.00    -0.019 C 
ATOM     19  C   UNL     1      34.692 -15.579 -21.048  0.00  0.00    -0.004 C 
ENDBRANCH   2  12
BRANCH   5  20
ATOM     20  N   UNL     1      31.558 -11.858 -22.390  0.00  0.00    -0.128 NA
BRANCH  20  21
ATOM     21  O   UNL     1      31.867 -11.926 -21.021  0.00  0.00    -0.224 OA
BRANCH  21  22
ATOM     22  C   UNL     1      30.948 -11.112 -20.310  0.00  0.00    +0.284 C 
BRANCH  22  24
ATOM     23  O   UNL     1      32.412  -9.465 -19.285  0.00  0.00    -0.247 OA
ATOM     24  C   UNL     1      31.653 -10.417 -19.178  0.00  0.00    +0.347 C 
BRANCH  24  25
ATOM     25  O   UNL     1      31.329 -11.000 -17.996  0.00  0.00    -0.478 OA
ATOM     26  H   UNL     1      31.696 -11.831 -17.767  0.00  0.00    +0.295 HD
ENDBRANCH  24  25
ENDBRANCH  22  24
ENDBRANCH  21  22
ENDBRANCH  20  21
ENDBRANCH   5  20
TORSDOF 6
ENDMDL
MODEL 5
REMARK VINA RESULT:      -9.5      8.108     10.808
REMARK  Name = 11840955
REMARK  6 active torsions:
REMARK  status: ('A' for Active; 'I' for Inactive)
REMARK    1  A    between atoms: N_4  and  C_10
REMARK    2  A    between atoms: N_4  and  O_21
REMARK    3  A    between atoms: C_5  and  C_6
REMARK    4  A    between atoms: O_21  and  C_22
REMARK    5  A    between atoms: C_22  and  C_24
REMARK    6  A    between atoms: C_24  and  O_25
REMARK                            x       y       z     vdW  Elec       q    Type
REMARK                         _______ _______ _______ _____ _____    ______ ____
ROOT
ATOM      1  N   UNL     1      34.840 -18.987 -23.372  0.00  0.00    -0.403 NA
ATOM      2  C   UNL     1      35.135 -18.656 -22.055  0.00  0.00    +0.149 C 
ATOM      3  C   UNL     1      34.622 -16.692 -23.101  0.00  0.00    +0.052 C 
ATOM      4  C   UNL     1      34.545 -17.869 -23.981  0.00  0.00    +0.133 C 
ATOM      5  C   UNL     1      35.021 -17.187 -21.780  0.00  0.00    +0.137 C 
ATOM      6  C   UNL     1      34.158 -17.748 -25.430  0.00  0.00    +0.032 C 
ATOM      7  C   UNL     1      34.351 -15.473 -23.565  0.00  0.00    +0.004 C 
ATOM      8  C   UNL     1      33.884 -16.317 -25.806  0.00  0.00    +0.003 C 
ATOM      9  C   UNL     1      33.974 -15.286 -24.949  0.00  0.00    +0.000 C 
ENDROOT
BRANCH   2  12
ATOM     10  O   UNL     1      37.878 -19.164 -21.106  0.00  0.00    -0.213 OA
ATOM     11  N   UNL     1      36.888 -20.710 -19.649  0.00  0.00    -0.340 NA
ATOM     12  C   UNL     1      35.488 -19.522 -21.102  0.00  0.00    +0.196 C 
ATOM     13  C   UNL     1      34.687 -20.398 -20.313  0.00  0.00    +0.027 C 
ATOM     14  C   UNL     1      35.655 -21.089 -19.446  0.00  0.00    +0.123 C 
ATOM     15  C   UNL     1      35.223 -22.120 -18.439  0.00  0.00    +0.086 C 
ATOM     16  C   UNL     1      36.902 -19.743 -20.655  0.00  0.00    +0.190 C 
ATOM     17  C   UNL     1      33.386 -20.674 -20.228  0.00  0.00    -0.001 C 
ATOM     18  C   UNL     1      33.734 -22.319 -18.461  0.00  0.00    -0.019 C 
ATOM     19  C   UNL     1      32.903 -21.654 -19.281  0.00  0.00    -0.004 C 
ENDBRANCH   2  12
BRANCH   5  20
ATOM     20  N   UNL     1      35.221 -16.550 -20.689  0.00  0.00    -0.128 NA
BRANCH  20  21
ATOM     21  O   UNL     1      33.986 -16.101 -20.193  0.00  0.00    -0.224 OA
BRANCH  21  22
ATOM     22  C   UNL     1      33.969 -14.683 -20.241  0.00  0.00    +0.284 C 
BRANCH  22  24
ATOM     23  O   UNL     1      32.285 -13.045 -20.862  0.00  0.00    -0.247 OA
ATOM     24  C   UNL     1      32.658 -14.207 -20.803  0.00  0.00    +0.347 C 
BRANCH  24  25
ATOM     25  O   UNL     1      31.928 -15.262 -21.246  0.00  0.00    -0.478 OA
ATOM     26  H   UNL     1      31.305 -15.672 -20.679  0.00  0.00    +0.295 HD
ENDBRANCH  24  25
ENDBRANCH  22  24
ENDBRANCH  21  22
ENDBRANCH  20  21
ENDBRANCH   5  20
TORSDOF 6
ENDMDL
MODEL 6
REMARK VINA RESULT:      -9.4     16.285     18.654
REMARK  Name = 11840955
REMARK  6 active torsions:
REMARK  status: ('A' for Active; 'I' for Inactive)
REMARK    1  A    between atoms: N_4  and  C_10
REMARK    2  A    between atoms: N_4  and  O_21
REMARK    3  A    between atoms: C_5  and  C_6
REMARK    4  A    between atoms: O_21  and  C_22
REMARK    5  A    between atoms: C_22  and  C_24
REMARK    6  A    between atoms: C_24  and  O_25
REMARK                            x       y       z     vdW  Elec       q    Type
REMARK                         _______ _______ _______ _____ _____    ______ ____
ROOT
ATOM      1  N   UNL     1      33.888 -23.260 -16.347  0.00  0.00    -0.403 NA
ATOM      2  C   UNL     1      34.695 -23.624 -15.276  0.00  0.00    +0.149 C 
ATOM      3  C   UNL     1      32.550 -23.671 -14.495  0.00  0.00    +0.052 C 
ATOM      4  C   UNL     1      32.656 -23.283 -15.911  0.00  0.00    +0.133 C 
ATOM      5  C   UNL     1      33.918 -23.913 -14.027  0.00  0.00    +0.137 C 
ATOM      6  C   UNL     1      31.439 -22.956 -16.733  0.00  0.00    +0.032 C 
ATOM      7  C   UNL     1      31.364 -23.745 -13.894  0.00  0.00    +0.004 C 
ATOM      8  C   UNL     1      30.179 -23.081 -15.920  0.00  0.00    +0.003 C 
ATOM      9  C   UNL     1      30.155 -23.442 -14.626  0.00  0.00    +0.000 C 
ENDROOT
BRANCH   2  12
ATOM     10  O   UNL     1      36.561 -21.512 -16.135  0.00  0.00    -0.213 OA
ATOM     11  N   UNL     1      38.248 -23.068 -15.660  0.00  0.00    -0.340 NA
ATOM     12  C   UNL     1      36.026 -23.721 -15.312  0.00  0.00    +0.196 C 
ATOM     13  C   UNL     1      36.881 -24.807 -14.963  0.00  0.00    +0.027 C 
ATOM     14  C   UNL     1      38.237 -24.296 -15.218  0.00  0.00    +0.123 C 
ATOM     15  C   UNL     1      39.460 -25.139 -14.976  0.00  0.00    +0.086 C 
ATOM     16  C   UNL     1      36.933 -22.612 -15.758  0.00  0.00    +0.190 C 
ATOM     17  C   UNL     1      36.699 -26.046 -14.508  0.00  0.00    -0.001 C 
ATOM     18  C   UNL     1      39.094 -26.504 -14.466  0.00  0.00    -0.019 C 
ATOM     19  C   UNL     1      37.831 -26.910 -14.255  0.00  0.00    -0.004 C 
ENDBRANCH   2  12
BRANCH   5  20
ATOM     20  N   UNL     1      34.343 -24.269 -12.875  0.00  0.00    -0.128 NA
BRANCH  20  21
ATOM     21  O   UNL     1      35.184 -23.262 -12.371  0.00  0.00    -0.224 OA
BRANCH  21  22
ATOM     22  C   UNL     1      35.974 -23.815 -11.329  0.00  0.00    +0.284 C 
BRANCH  22  24
ATOM     23  O   UNL     1      37.936 -22.510 -11.922  0.00  0.00    -0.247 OA
ATOM     24  C   UNL     1      37.431 -23.580 -11.616  0.00  0.00    +0.347 C 
BRANCH  24  25
ATOM     25  O   UNL     1      38.127 -24.738 -11.487  0.00  0.00    -0.478 OA
ATOM     26  H   UNL     1      38.039 -25.254 -10.710  0.00  0.00    +0.295 HD
ENDBRANCH  24  25
ENDBRANCH  22  24
ENDBRANCH  21  22
ENDBRANCH  20  21
ENDBRANCH   5  20
TORSDOF 6
ENDMDL
MODEL 7
REMARK VINA RESULT:      -9.0      4.167      6.775
REMARK  Name = 11840955
REMARK  6 active torsions:
REMARK  status: ('A' for Active; 'I' for Inactive)
REMARK    1  A    between atoms: N_4  and  C_10
REMARK    2  A    between atoms: N_4  and  O_21
REMARK    3  A    between atoms: C_5  and  C_6
REMARK    4  A    between atoms: O_21  and  C_22
REMARK    5  A    between atoms: C_22  and  C_24
REMARK    6  A    between atoms: C_24  and  O_25
REMARK                            x       y       z     vdW  Elec       q    Type
REMARK                         _______ _______ _______ _____ _____    ______ ____
ROOT
ATOM      1  N   UNL     1      34.482 -11.535 -24.929  0.00  0.00    -0.403 NA
ATOM      2  C   UNL     1      33.653 -12.564 -24.498  0.00  0.00    +0.149 C 
ATOM      3  C   UNL     1      33.056 -10.723 -23.287  0.00  0.00    +0.052 C 
ATOM      4  C   UNL     1      34.149 -10.475 -24.241  0.00  0.00    +0.133 C 
ATOM      5  C   UNL     1      32.691 -12.135 -23.432  0.00  0.00    +0.137 C 
ATOM      6  C   UNL     1      34.785  -9.119 -24.377  0.00  0.00    +0.032 C 
ATOM      7  C   UNL     1      32.595  -9.747 -22.507  0.00  0.00    +0.004 C 
ATOM      8  C   UNL     1      34.163  -8.124 -23.435  0.00  0.00    +0.003 C 
ATOM      9  C   UNL     1      33.164  -8.420 -22.586  0.00  0.00    +0.000 C 
ENDROOT
BRANCH   2  12
ATOM     10  O   UNL     1      32.582 -13.481 -27.086  0.00  0.00    -0.213 OA
ATOM     11  N   UNL     1      33.322 -15.605 -26.428  0.00  0.00    -0.340 NA
ATOM     12  C   UNL     1      33.678 -13.818 -24.957  0.00  0.00    +0.196 C 
ATOM     13  C   UNL     1      34.200 -15.005 -24.366  0.00  0.00    +0.027 C 
ATOM     14  C   UNL     1      33.926 -16.054 -25.361  0.00  0.00    +0.123 C 
ATOM     15  C   UNL     1      34.323 -17.487 -25.131  0.00  0.00    +0.086 C 
ATOM     16  C   UNL     1      33.118 -14.232 -26.285  0.00  0.00    +0.190 C 
ATOM     17  C   UNL     1      34.812 -15.302 -23.220  0.00  0.00    -0.001 C 
ATOM     18  C   UNL     1      35.000 -17.664 -23.801  0.00  0.00    -0.019 C 
ATOM     19  C   UNL     1      35.220 -16.660 -22.935  0.00  0.00    -0.004 C 
ENDBRANCH   2  12
BRANCH   5  20
ATOM     20  N   UNL     1      31.802 -12.822 -22.821  0.00  0.00    -0.128 NA
BRANCH  20  21
ATOM     21  O   UNL     1      31.924 -12.597 -21.440  0.00  0.00    -0.224 OA
BRANCH  21  22
ATOM     22  C   UNL     1      32.977 -13.408 -20.942  0.00  0.00    +0.284 C 
BRANCH  22  24
ATOM     23  O   UNL     1      32.380 -15.228 -19.447  0.00  0.00    -0.247 OA
ATOM     24  C   UNL     1      32.445 -14.765 -20.577  0.00  0.00    +0.347 C 
BRANCH  24  25
ATOM     25  O   UNL     1      32.038 -15.425 -21.691  0.00  0.00    -0.478 OA
ATOM     26  H   UNL     1      32.340 -15.151 -22.535  0.00  0.00    +0.295 HD
ENDBRANCH  24  25
ENDBRANCH  22  24
ENDBRANCH  21  22
ENDBRANCH  20  21
ENDBRANCH   5  20
TORSDOF 6
ENDMDL
MODEL 8
REMARK VINA RESULT:      -9.0     13.861     17.332
REMARK  Name = 11840955
REMARK  6 active torsions:
REMARK  status: ('A' for Active; 'I' for Inactive)
REMARK    1  A    between atoms: N_4  and  C_10
REMARK    2  A    between atoms: N_4  and  O_21
REMARK    3  A    between atoms: C_5  and  C_6
REMARK    4  A    between atoms: O_21  and  C_22
REMARK    5  A    between atoms: C_22  and  C_24
REMARK    6  A    between atoms: C_24  and  O_25
REMARK                            x       y       z     vdW  Elec       q    Type
REMARK                         _______ _______ _______ _____ _____    ______ ____
ROOT
ATOM      1  N   UNL     1      35.156 -25.332 -15.217  0.00  0.00    -0.403 NA
ATOM      2  C   UNL     1      34.906 -24.095 -15.800  0.00  0.00    +0.149 C 
ATOM      3  C   UNL     1      37.138 -24.129 -15.321  0.00  0.00    +0.052 C 
ATOM      4  C   UNL     1      36.432 -25.362 -14.938  0.00  0.00    +0.133 C 
ATOM      5  C   UNL     1      36.132 -23.241 -15.912  0.00  0.00    +0.137 C 
ATOM      6  C   UNL     1      37.152 -26.516 -14.295  0.00  0.00    +0.032 C 
ATOM      7  C   UNL     1      38.446 -23.996 -15.107  0.00  0.00    +0.004 C 
ATOM      8  C   UNL     1      38.616 -26.219 -14.117  0.00  0.00    +0.003 C 
ATOM      9  C   UNL     1      39.197 -25.067 -14.491  0.00  0.00    +0.000 C 
ENDROOT
BRANCH   2  12
ATOM     10  O   UNL     1      34.196 -23.456 -18.587  0.00  0.00    -0.213 OA
ATOM     11  N   UNL     1      32.072 -22.952 -17.735  0.00  0.00    -0.340 NA
ATOM     12  C   UNL     1      33.715 -23.671 -16.228  0.00  0.00    +0.196 C 
ATOM     13  C   UNL     1      32.511 -23.422 -15.506  0.00  0.00    +0.027 C 
ATOM     14  C   UNL     1      31.557 -22.979 -16.535  0.00  0.00    +0.123 C 
ATOM     15  C   UNL     1      30.140 -22.608 -16.195  0.00  0.00    +0.086 C 
ATOM     16  C   UNL     1      33.404 -23.360 -17.662  0.00  0.00    +0.190 C 
ATOM     17  C   UNL     1      32.139 -23.505 -14.229  0.00  0.00    -0.001 C 
ATOM     18  C   UNL     1      29.872 -22.752 -14.723  0.00  0.00    -0.019 C 
ATOM     19  C   UNL     1      30.791 -23.162 -13.833  0.00  0.00    -0.004 C 
ENDBRANCH   2  12
BRANCH   5  20
ATOM     20  N   UNL     1      36.255 -22.062 -16.392  0.00  0.00    -0.128 NA
BRANCH  20  21
ATOM     21  O   UNL     1      36.758 -22.155 -17.700  0.00  0.00    -0.224 OA
BRANCH  21  22
ATOM     22  C   UNL     1      37.013 -20.844 -18.180  0.00  0.00    +0.284 C 
BRANCH  22  24
ATOM     23  O   UNL     1      36.497 -19.677 -20.248  0.00  0.00    -0.247 OA
ATOM     24  C   UNL     1      36.452 -20.691 -19.566  0.00  0.00    +0.347 C 
BRANCH  24  25
ATOM     25  O   UNL     1      35.876 -21.851 -19.969  0.00  0.00    -0.478 OA
ATOM     26  H   UNL     1      35.015 -21.844 -20.339  0.00  0.00    +0.295 HD
ENDBRANCH  24  25
ENDBRANCH  22  24
ENDBRANCH  21  22
ENDBRANCH  20  21
ENDBRANCH   5  20
TORSDOF 6
ENDMDL
MODEL 9
REMARK VINA RESULT:      -9.0     14.673     17.900
REMARK  Name = 11840955
REMARK  6 active torsions:
REMARK  status: ('A' for Active; 'I' for Inactive)
REMARK    1  A    between atoms: N_4  and  C_10
REMARK    2  A    between atoms: N_4  and  O_21
REMARK    3  A    between atoms: C_5  and  C_6
REMARK    4  A    between atoms: O_21  and  C_22
REMARK    5  A    between atoms: C_22  and  C_24
REMARK    6  A    between atoms: C_24  and  O_25
REMARK                            x       y       z     vdW  Elec       q    Type
REMARK                         _______ _______ _______ _____ _____    ______ ____
ROOT
ATOM      1  N   UNL     1      36.400 -22.904 -17.070  0.00  0.00    -0.403 NA
ATOM      2  C   UNL     1      35.657 -23.638 -16.153  0.00  0.00    +0.149 C 
ATOM      3  C   UNL     1      34.146 -22.694 -17.580  0.00  0.00    +0.052 C 
ATOM      4  C   UNL     1      35.544 -22.358 -17.893  0.00  0.00    +0.133 C 
ATOM      5  C   UNL     1      34.181 -23.564 -16.401  0.00  0.00    +0.137 C 
ATOM      6  C   UNL     1      35.903 -21.473 -19.055  0.00  0.00    +0.032 C 
ATOM      7  C   UNL     1      33.147 -22.219 -18.323  0.00  0.00    +0.004 C 
ATOM      8  C   UNL     1      34.675 -21.016 -19.795  0.00  0.00    +0.003 C 
ATOM      9  C   UNL     1      33.422 -21.361 -19.454  0.00  0.00    +0.000 C 
ENDROOT
BRANCH   2  12
ATOM     10  O   UNL     1      35.925 -26.571 -16.060  0.00  0.00    -0.213 OA
ATOM     11  N   UNL     1      36.852 -26.232 -13.934  0.00  0.00    -0.340 NA
ATOM     12  C   UNL     1      36.163 -24.347 -15.141  0.00  0.00    +0.196 C 
ATOM     13  C   UNL     1      36.691 -23.918 -13.889  0.00  0.00    +0.027 C 
ATOM     14  C   UNL     1      37.088 -25.166 -13.218  0.00  0.00    +0.123 C 
ATOM     15  C   UNL     1      37.705 -25.167 -11.845  0.00  0.00    +0.086 C 
ATOM     16  C   UNL     1      36.278 -25.843 -15.145  0.00  0.00    +0.190 C 
ATOM     17  C   UNL     1      36.868 -22.742 -13.289  0.00  0.00    -0.001 C 
ATOM     18  C   UNL     1      37.838 -23.772 -11.302  0.00  0.00    -0.019 C 
ATOM     19  C   UNL     1      37.454 -22.670 -11.969  0.00  0.00    -0.004 C 
ENDBRANCH   2  12
BRANCH   5  20
ATOM     20  N   UNL     1      33.223 -24.113 -15.755  0.00  0.00    -0.128 NA
BRANCH  20  21
ATOM     21  O   UNL     1      32.772 -23.220 -14.768  0.00  0.00    -0.224 OA
BRANCH  21  22
ATOM     22  C   UNL     1      31.409 -23.502 -14.494  0.00  0.00    +0.284 C 
BRANCH  22  24
ATOM     23  O   UNL     1      30.432 -25.724 -14.611  0.00  0.00    -0.247 OA
ATOM     24  C   UNL     1      31.251 -24.953 -14.133  0.00  0.00    +0.347 C 
BRANCH  24  25
ATOM     25  O   UNL     1      32.160 -25.302 -13.187  0.00  0.00    -0.478 OA
ATOM     26  H   UNL     1      33.007 -24.901 -13.179  0.00  0.00    +0.295 HD
ENDBRANCH  24  25
ENDBRANCH  22  24
ENDBRANCH  21  22
ENDBRANCH  20  21
ENDBRANCH   5  20
TORSDOF 6
ENDMDL
