MODEL 1
REMARK VINA RESULT:      -9.8      0.000      0.000
REMARK  Name = 5029
REMARK  8 active torsions:
REMARK  status: ('A' for Active; 'I' for Inactive)
REMARK    1  A    between atoms: C_1  and  C_3
REMARK    2  A    between atoms: C_1  and  S_15
REMARK    3  A    between atoms: C_5  and  O_9
REMARK    4  A    between atoms: O_9  and  C_10
REMARK    5  A    between atoms: C_10  and  C_11
REMARK    6  A    between atoms: C_11  and  C_12
REMARK    7  A    between atoms: C_12  and  O_13
REMARK    8  A    between atoms: S_15  and  C_19
REMARK                            x       y       z     vdW  Elec       q    Type
REMARK                         _______ _______ _______ _____ _____    ______ ____
ROOT
ATOM      1  C   UNL     1      34.617 -14.567 -23.219  0.00  0.00    +0.140 C 
ENDROOT
BRANCH   1   3
ATOM      2  N   UNL     1      34.703 -16.685 -24.366  0.00  0.00    -0.247 NA
ATOM      3  C   UNL     1      34.649 -16.067 -23.168  0.00  0.00    +0.072 C 
ATOM      4  C   UNL     1      34.626 -16.718 -21.950  0.00  0.00    +0.027 C 
ATOM      5  C   UNL     1      34.658 -18.109 -21.961  0.00  0.00    +0.137 C 
ATOM      6  C   UNL     1      34.562 -15.969 -20.663  0.00  0.00    +0.035 C 
ATOM      7  C   UNL     1      34.714 -18.788 -23.173  0.00  0.00    +0.057 C 
ATOM      8  C   UNL     1      34.734 -18.036 -24.338  0.00  0.00    +0.102 C 
BRANCH   5   9
ATOM      9  O   UNL     1      34.636 -18.819 -20.800  0.00  0.00    -0.476 OA
BRANCH   9  10
ATOM     10  C   UNL     1      35.540 -19.917 -20.693  0.00  0.00    +0.208 C 
BRANCH  10  11
ATOM     11  C   UNL     1      34.868 -21.031 -19.906  0.00  0.00    +0.079 C 
BRANCH  11  12
ATOM     12  C   UNL     1      33.353 -20.906 -19.921  0.00  0.00    +0.146 C 
BRANCH  12  13
ATOM     13  O   UNL     1      32.773 -21.976 -19.187  0.00  0.00    -0.351 OA
ATOM     14  C   UNL     1      33.759 -22.716 -18.479  0.00  0.00    +0.174 C 
ENDBRANCH  12  13
ENDBRANCH  11  12
ENDBRANCH  10  11
ENDBRANCH   9  10
ENDBRANCH   5   9
ENDBRANCH   1   3
BRANCH   1  15
ATOM     15  S   UNL     1      33.008 -13.949 -23.791  0.00  0.00    +0.085 S 
ATOM     16  O   UNL     1      32.884 -14.320 -25.255  0.00  0.00    -0.252 OA
BRANCH  15  19
ATOM     17  N   UNL     1      34.311 -11.523 -24.272  0.00  0.00    -0.307 N 
ATOM     18  N   UNL     1      32.511 -11.374 -22.976  0.00  0.00    -0.307 N 
ATOM     19  C   UNL     1      33.281 -12.186 -23.665  0.00  0.00    +0.226 C 
ATOM     20  C   UNL     1      34.199 -10.194 -23.953  0.00  0.00    +0.060 C 
ATOM     21  C   UNL     1      33.068 -10.127 -23.144  0.00  0.00    +0.060 C 
ATOM     22  C   UNL     1      34.966  -9.080 -24.294  0.00  0.00    +0.016 C 
ATOM     23  C   UNL     1      32.663  -8.881 -22.635  0.00  0.00    +0.016 C 
ATOM     24  C   UNL     1      34.549  -7.848 -23.778  0.00  0.00    +0.001 C 
ATOM     25  C   UNL     1      33.419  -7.748 -22.963  0.00  0.00    +0.001 C 
ATOM     26  H   UNL     1      35.008 -11.928 -24.837  0.00  0.00    +0.149 HD
ATOM     27  H   UNL     1      31.710 -11.606 -22.453  0.00  0.00    +0.149 HD
ENDBRANCH  15  19
ENDBRANCH   1  15
TORSDOF 8
ENDMDL
MODEL 2
REMARK VINA RESULT:      -9.7      0.988      1.676
REMARK  Name = 5029
REMARK  8 active torsions:
REMARK  status: ('A' for Active; 'I' for Inactive)
REMARK    1  A    between atoms: C_1  and  C_3
REMARK    2  A    between atoms: C_1  and  S_15
REMARK    3  A    between atoms: C_5  and  O_9
REMARK    4  A    between atoms: O_9  and  C_10
REMARK    5  A    between atoms: C_10  and  C_11
REMARK    6  A    between atoms: C_11  and  C_12
REMARK    7  A    between atoms: C_12  and  O_13
REMARK    8  A    between atoms: S_15  and  C_19
REMARK                            x       y       z     vdW  Elec       q    Type
REMARK                         _______ _______ _______ _____ _____    ______ ____
ROOT
ATOM      1  C   UNL     1      34.651 -14.650 -23.187  0.00  0.00    +0.140 C 
ENDROOT
BRANCH   1   3
ATOM      2  N   UNL     1      34.706 -16.769 -24.333  0.00  0.00    -0.247 NA
ATOM      3  C   UNL     1      34.682 -16.150 -23.135  0.00  0.00    +0.072 C 
ATOM      4  C   UNL     1      34.685 -16.800 -21.916  0.00  0.00    +0.027 C 
ATOM      5  C   UNL     1      34.716 -18.191 -21.927  0.00  0.00    +0.137 C 
ATOM      6  C   UNL     1      34.653 -16.050 -20.629  0.00  0.00    +0.035 C 
ATOM      7  C   UNL     1      34.742 -18.871 -23.139  0.00  0.00    +0.057 C 
ATOM      8  C   UNL     1      34.736 -18.120 -24.304  0.00  0.00    +0.102 C 
BRANCH   5   9
ATOM      9  O   UNL     1      34.720 -18.900 -20.764  0.00  0.00    -0.476 OA
BRANCH   9  10
ATOM     10  C   UNL     1      33.774 -19.961 -20.649  0.00  0.00    +0.208 C 
BRANCH  10  11
ATOM     11  C   UNL     1      34.403 -21.095 -19.856  0.00  0.00    +0.079 C 
BRANCH  11  12
ATOM     12  C   UNL     1      35.907 -21.175 -20.071  0.00  0.00    +0.146 C 
BRANCH  12  13
ATOM     13  O   UNL     1      36.584 -20.690 -18.921  0.00  0.00    -0.351 OA
ATOM     14  C   UNL     1      36.670 -21.684 -17.908  0.00  0.00    +0.174 C 
ENDBRANCH  12  13
ENDBRANCH  11  12
ENDBRANCH  10  11
ENDBRANCH   9  10
ENDBRANCH   5   9
ENDBRANCH   1   3
BRANCH   1  15
ATOM     15  S   UNL     1      33.082 -14.034 -23.864  0.00  0.00    +0.085 S 
ATOM     16  O   UNL     1      33.043 -14.429 -25.326  0.00  0.00    -0.252 OA
BRANCH  15  19
ATOM     17  N   UNL     1      32.572 -11.415 -23.028  0.00  0.00    -0.307 N 
ATOM     18  N   UNL     1      34.341 -11.644 -24.356  0.00  0.00    -0.307 N 
ATOM     19  C   UNL     1      33.357 -12.271 -23.751  0.00  0.00    +0.226 C 
ATOM     20  C   UNL     1      33.084 -10.152 -23.176  0.00  0.00    +0.060 C 
ATOM     21  C   UNL     1      34.188 -10.321 -24.008  0.00  0.00    +0.060 C 
ATOM     22  C   UNL     1      32.689  -8.915 -22.668  0.00  0.00    +0.016 C 
ATOM     23  C   UNL     1      34.955  -9.199 -24.365  0.00  0.00    +0.016 C 
ATOM     24  C   UNL     1      33.463  -7.808 -23.034  0.00  0.00    +0.001 C 
ATOM     25  C   UNL     1      34.576  -7.945 -23.868  0.00  0.00    +0.001 C 
ATOM     26  H   UNL     1      31.782 -11.663 -22.497  0.00  0.00    +0.149 HD
ATOM     27  H   UNL     1      35.038 -12.035 -24.931  0.00  0.00    +0.149 HD
ENDBRANCH  15  19
ENDBRANCH   1  15
TORSDOF 8
ENDMDL
MODEL 3
REMARK VINA RESULT:      -9.5      1.607      2.164
REMARK  Name = 5029
REMARK  8 active torsions:
REMARK  status: ('A' for Active; 'I' for Inactive)
REMARK    1  A    between atoms: C_1  and  C_3
REMARK    2  A    between atoms: C_1  and  S_15
REMARK    3  A    between atoms: C_5  and  O_9
REMARK    4  A    between atoms: O_9  and  C_10
REMARK    5  A    between atoms: C_10  and  C_11
REMARK    6  A    between atoms: C_11  and  C_12
REMARK    7  A    between atoms: C_12  and  O_13
REMARK    8  A    between atoms: S_15  and  C_19
REMARK                            x       y       z     vdW  Elec       q    Type
REMARK                         _______ _______ _______ _____ _____    ______ ____
ROOT
ATOM      1  C   UNL     1      34.546 -14.762 -23.328  0.00  0.00    +0.140 C 
ENDROOT
BRANCH   1   3
ATOM      2  N   UNL     1      34.736 -16.927 -24.369  0.00  0.00    -0.247 NA
ATOM      3  C   UNL     1      34.672 -16.253 -23.203  0.00  0.00    +0.072 C 
ATOM      4  C   UNL     1      34.717 -16.841 -21.954  0.00  0.00    +0.027 C 
ATOM      5  C   UNL     1      34.835 -18.225 -21.896  0.00  0.00    +0.137 C 
ATOM      6  C   UNL     1      34.637 -16.031 -20.704  0.00  0.00    +0.035 C 
ATOM      7  C   UNL     1      34.905 -18.961 -23.073  0.00  0.00    +0.057 C 
ATOM      8  C   UNL     1      34.851 -18.271 -24.274  0.00  0.00    +0.102 C 
BRANCH   5   9
ATOM      9  O   UNL     1      34.883 -18.874 -20.700  0.00  0.00    -0.476 OA
BRANCH   9  10
ATOM     10  C   UNL     1      34.811 -20.298 -20.732  0.00  0.00    +0.208 C 
BRANCH  10  11
ATOM     11  C   UNL     1      33.569 -20.744 -19.977  0.00  0.00    +0.079 C 
BRANCH  11  12
ATOM     12  C   UNL     1      33.835 -21.967 -19.114  0.00  0.00    +0.146 C 
BRANCH  12  13
ATOM     13  O   UNL     1      32.639 -22.364 -18.457  0.00  0.00    -0.351 OA
ATOM     14  C   UNL     1      32.912 -23.148 -17.304  0.00  0.00    +0.174 C 
ENDBRANCH  12  13
ENDBRANCH  11  12
ENDBRANCH  10  11
ENDBRANCH   9  10
ENDBRANCH   5   9
ENDBRANCH   1   3
BRANCH   1  15
ATOM     15  S   UNL     1      32.898 -14.274 -23.917  0.00  0.00    +0.085 S 
ATOM     16  O   UNL     1      33.082 -13.653 -25.287  0.00  0.00    -0.252 OA
BRANCH  15  19
ATOM     17  N   UNL     1      32.580 -11.644 -23.026  0.00  0.00    -0.307 N 
ATOM     18  N   UNL     1      32.127 -13.204 -21.508  0.00  0.00    -0.307 N 
ATOM     19  C   UNL     1      32.512 -12.980 -22.745  0.00  0.00    +0.226 C 
ATOM     20  C   UNL     1      32.215 -10.959 -21.896  0.00  0.00    +0.060 C 
ATOM     21  C   UNL     1      31.936 -11.955 -20.963  0.00  0.00    +0.060 C 
ATOM     22  C   UNL     1      32.107  -9.596 -21.619  0.00  0.00    +0.016 C 
ATOM     23  C   UNL     1      31.524 -11.587 -19.671  0.00  0.00    +0.016 C 
ATOM     24  C   UNL     1      31.696  -9.248 -20.327  0.00  0.00    +0.001 C 
ATOM     25  C   UNL     1      31.410 -10.223 -19.369  0.00  0.00    +0.001 C 
ATOM     26  H   UNL     1      32.844 -11.245 -23.887  0.00  0.00    +0.149 HD
ATOM     27  H   UNL     1      32.001 -14.075 -21.068  0.00  0.00    +0.149 HD
ENDBRANCH  15  19
ENDBRANCH   1  15
TORSDOF 8
ENDMDL
MODEL 4
REMARK VINA RESULT:      -9.3      3.189      5.249
REMARK  Name = 5029
REMARK  8 active torsions:
REMARK  status: ('A' for Active; 'I' for Inactive)
REMARK    1  A    between atoms: C_1  and  C_3
REMARK    2  A    between atoms: C_1  and  S_15
REMARK    3  A    between atoms: C_5  and  O_9
REMARK    4  A    between atoms: O_9  and  C_10
REMARK    5  A    between atoms: C_10  and  C_11
REMARK    6  A    between atoms: C_11  and  C_12
REMARK    7  A    between atoms: C_12  and  O_13
REMARK    8  A    between atoms: S_15  and  C_19
REMARK                            x       y       z     vdW  Elec       q    Type
REMARK                         _______ _______ _______ _____ _____    ______ ____
ROOT
ATOM      1  C   UNL     1      34.770 -19.150 -22.056  0.00  0.00    +0.140 C 
ENDROOT
BRANCH   1   3
ATOM      2  N   UNL     1      36.171 -20.453 -20.591  0.00  0.00    -0.247 NA
ATOM      3  C   UNL     1      34.905 -20.135 -20.931  0.00  0.00    +0.072 C 
ATOM      4  C   UNL     1      33.776 -20.647 -20.320  0.00  0.00    +0.027 C 
ATOM      5  C   UNL     1      33.960 -21.555 -19.283  0.00  0.00    +0.137 C 
ATOM      6  C   UNL     1      32.405 -20.252 -20.752  0.00  0.00    +0.035 C 
ATOM      7  C   UNL     1      35.247 -21.912 -18.898  0.00  0.00    +0.057 C 
ATOM      8  C   UNL     1      36.310 -21.338 -19.578  0.00  0.00    +0.102 C 
BRANCH   5   9
ATOM      9  O   UNL     1      32.894 -22.103 -18.635  0.00  0.00    -0.476 OA
BRANCH   9  10
ATOM     10  C   UNL     1      33.166 -23.163 -17.721  0.00  0.00    +0.208 C 
BRANCH  10  11
ATOM     11  C   UNL     1      32.397 -22.911 -16.434  0.00  0.00    +0.079 C 
BRANCH  11  12
ATOM     12  C   UNL     1      31.018 -23.553 -16.460  0.00  0.00    +0.146 C 
BRANCH  12  13
ATOM     13  O   UNL     1      30.059 -22.617 -16.934  0.00  0.00    -0.351 OA
ATOM     14  C   UNL     1      28.882 -22.629 -16.138  0.00  0.00    +0.174 C 
ENDBRANCH  12  13
ENDBRANCH  11  12
ENDBRANCH  10  11
ENDBRANCH   9  10
ENDBRANCH   5   9
ENDBRANCH   1   3
BRANCH   1  15
ATOM     15  S   UNL     1      35.714 -17.632 -21.736  0.00  0.00    +0.085 S 
ATOM     16  O   UNL     1      35.359 -17.174 -20.337  0.00  0.00    -0.252 OA
BRANCH  15  19
ATOM     17  N   UNL     1      34.739 -15.194 -22.695  0.00  0.00    -0.307 N 
ATOM     18  N   UNL     1      34.524 -16.903 -24.101  0.00  0.00    -0.307 N 
ATOM     19  C   UNL     1      34.950 -16.527 -22.916  0.00  0.00    +0.226 C 
ATOM     20  C   UNL     1      34.136 -14.675 -23.812  0.00  0.00    +0.060 C 
ATOM     21  C   UNL     1      34.014 -15.761 -24.675  0.00  0.00    +0.060 C 
ATOM     22  C   UNL     1      33.703 -13.389 -24.131  0.00  0.00    +0.016 C 
ATOM     23  C   UNL     1      33.425 -15.570 -25.937  0.00  0.00    +0.016 C 
ATOM     24  C   UNL     1      33.118 -13.216 -25.391  0.00  0.00    +0.001 C 
ATOM     25  C   UNL     1      32.981 -14.286 -26.279  0.00  0.00    +0.001 C 
ATOM     26  H   UNL     1      34.977 -14.697 -21.879  0.00  0.00    +0.149 HD
ATOM     27  H   UNL     1      34.562 -17.805 -24.494  0.00  0.00    +0.149 HD
ENDBRANCH  15  19
ENDBRANCH   1  15
TORSDOF 8
ENDMDL
MODEL 5
REMARK VINA RESULT:      -9.3      3.263      5.161
REMARK  Name = 5029
REMARK  8 active torsions:
REMARK  status: ('A' for Active; 'I' for Inactive)
REMARK    1  A    between atoms: C_1  and  C_3
REMARK    2  A    between atoms: C_1  and  S_15
REMARK    3  A    between atoms: C_5  and  O_9
REMARK    4  A    between atoms: O_9  and  C_10
REMARK    5  A    between atoms: C_10  and  C_11
REMARK    6  A    between atoms: C_11  and  C_12
REMARK    7  A    between atoms: C_12  and  O_13
REMARK    8  A    between atoms: S_15  and  C_19
REMARK                            x       y       z     vdW  Elec       q    Type
REMARK                         _______ _______ _______ _____ _____    ______ ____
ROOT
ATOM      1  C   UNL     1      34.761 -18.430 -21.323  0.00  0.00    +0.140 C 
ENDROOT
BRANCH   1   3
ATOM      2  N   UNL     1      36.246 -19.962 -20.204  0.00  0.00    -0.247 NA
ATOM      3  C   UNL     1      34.966 -19.686 -20.526  0.00  0.00    +0.072 C 
ATOM      4  C   UNL     1      33.882 -20.465 -20.172  0.00  0.00    +0.027 C 
ATOM      5  C   UNL     1      34.129 -21.617 -19.433  0.00  0.00    +0.137 C 
ATOM      6  C   UNL     1      32.492 -20.099 -20.568  0.00  0.00    +0.035 C 
ATOM      7  C   UNL     1      35.433 -21.942 -19.078  0.00  0.00    +0.057 C 
ATOM      8  C   UNL     1      36.448 -21.089 -19.484  0.00  0.00    +0.102 C 
BRANCH   5   9
ATOM      9  O   UNL     1      33.110 -22.436 -19.050  0.00  0.00    -0.476 OA
BRANCH   9  10
ATOM     10  C   UNL     1      33.429 -23.485 -18.139  0.00  0.00    +0.208 C 
BRANCH  10  11
ATOM     11  C   UNL     1      32.844 -23.147 -16.776  0.00  0.00    +0.079 C 
BRANCH  11  12
ATOM     12  C   UNL     1      33.811 -23.465 -15.646  0.00  0.00    +0.146 C 
BRANCH  12  13
ATOM     13  O   UNL     1      35.044 -23.926 -16.182  0.00  0.00    -0.351 OA
ATOM     14  C   UNL     1      36.152 -23.429 -15.444  0.00  0.00    +0.174 C 
ENDBRANCH  12  13
ENDBRANCH  11  12
ENDBRANCH  10  11
ENDBRANCH   9  10
ENDBRANCH   5   9
ENDBRANCH   1   3
BRANCH   1  15
ATOM     15  S   UNL     1      35.318 -18.627 -23.041  0.00  0.00    +0.085 S 
ATOM     16  O   UNL     1      36.832 -18.580 -23.025  0.00  0.00    -0.252 OA
BRANCH  15  19
ATOM     17  N   UNL     1      34.692 -15.904 -23.103  0.00  0.00    -0.307 N 
ATOM     18  N   UNL     1      34.204 -17.015 -24.965  0.00  0.00    -0.307 N 
ATOM     19  C   UNL     1      34.701 -17.107 -23.752  0.00  0.00    +0.226 C 
ATOM     20  C   UNL     1      34.151 -14.974 -23.953  0.00  0.00    +0.060 C 
ATOM     21  C   UNL     1      33.855 -15.692 -25.109  0.00  0.00    +0.060 C 
ATOM     22  C   UNL     1      33.905 -13.608 -23.814  0.00  0.00    +0.016 C 
ATOM     23  C   UNL     1      33.278 -15.023 -26.202  0.00  0.00    +0.016 C 
ATOM     24  C   UNL     1      33.329 -12.958 -24.912  0.00  0.00    +0.001 C 
ATOM     25  C   UNL     1      33.021 -13.651 -26.085  0.00  0.00    +0.001 C 
ATOM     26  H   UNL     1      35.014 -15.736 -22.188  0.00  0.00    +0.149 HD
ATOM     27  H   UNL     1      34.103 -17.736 -25.628  0.00  0.00    +0.149 HD
ENDBRANCH  15  19
ENDBRANCH   1  15
TORSDOF 8
ENDMDL
MODEL 6
REMARK VINA RESULT:      -9.3      5.084     10.983
REMARK  Name = 5029
REMARK  8 active torsions:
REMARK  status: ('A' for Active; 'I' for Inactive)
REMARK    1  A    between atoms: C_1  and  C_3
REMARK    2  A    between atoms: C_1  and  S_15
REMARK    3  A    between atoms: C_5  and  O_9
REMARK    4  A    between atoms: O_9  and  C_10
REMARK    5  A    between atoms: C_10  and  C_11
REMARK    6  A    between atoms: C_11  and  C_12
REMARK    7  A    between atoms: C_12  and  O_13
REMARK    8  A    between atoms: S_15  and  C_19
REMARK                            x       y       z     vdW  Elec       q    Type
REMARK                         _______ _______ _______ _____ _____    ______ ____
ROOT
ATOM      1  C   UNL     1      33.359 -21.408 -19.670  0.00  0.00    +0.140 C 
ENDROOT
BRANCH   1   3
ATOM      2  N   UNL     1      35.617 -20.657 -20.048  0.00  0.00    -0.247 NA
ATOM      3  C   UNL     1      34.308 -20.388 -20.230  0.00  0.00    +0.072 C 
ATOM      4  C   UNL     1      33.819 -19.271 -20.878  0.00  0.00    +0.027 C 
ATOM      5  C   UNL     1      34.743 -18.359 -21.378  0.00  0.00    +0.137 C 
ATOM      6  C   UNL     1      32.355 -19.037 -21.039  0.00  0.00    +0.035 C 
ATOM      7  C   UNL     1      36.103 -18.595 -21.214  0.00  0.00    +0.057 C 
ATOM      8  C   UNL     1      36.485 -19.749 -20.548  0.00  0.00    +0.102 C 
BRANCH   5   9
ATOM      9  O   UNL     1      34.335 -17.233 -22.027  0.00  0.00    -0.476 OA
BRANCH   9  10
ATOM     10  C   UNL     1      35.310 -16.546 -22.808  0.00  0.00    +0.208 C 
BRANCH  10  11
ATOM     11  C   UNL     1      34.608 -15.833 -23.953  0.00  0.00    +0.079 C 
BRANCH  11  12
ATOM     12  C   UNL     1      34.441 -16.734 -25.167  0.00  0.00    +0.146 C 
BRANCH  12  13
ATOM     13  O   UNL     1      33.842 -16.005 -26.230  0.00  0.00    -0.351 OA
ATOM     14  C   UNL     1      33.137 -14.868 -25.749  0.00  0.00    +0.174 C 
ENDBRANCH  12  13
ENDBRANCH  11  12
ENDBRANCH  10  11
ENDBRANCH   9  10
ENDBRANCH   5   9
ENDBRANCH   1   3
BRANCH   1  15
ATOM     15  S   UNL     1      34.241 -22.770 -18.855  0.00  0.00    +0.085 S 
ATOM     16  O   UNL     1      34.145 -23.973 -19.772  0.00  0.00    -0.252 OA
BRANCH  15  19
ATOM     17  N   UNL     1      33.619 -23.461 -16.219  0.00  0.00    -0.307 N 
ATOM     18  N   UNL     1      31.878 -22.849 -17.459  0.00  0.00    -0.307 N 
ATOM     19  C   UNL     1      33.178 -23.038 -17.442  0.00  0.00    +0.226 C 
ATOM     20  C   UNL     1      32.530 -23.551 -15.390  0.00  0.00    +0.060 C 
ATOM     21  C   UNL     1      31.456 -23.163 -16.187  0.00  0.00    +0.060 C 
ATOM     22  C   UNL     1      32.398 -23.926 -14.053  0.00  0.00    +0.016 C 
ATOM     23  C   UNL     1      30.165 -23.143 -15.633  0.00  0.00    +0.016 C 
ATOM     24  C   UNL     1      31.105 -23.901 -13.518  0.00  0.00    +0.001 C 
ATOM     25  C   UNL     1      30.007 -23.517 -14.292  0.00  0.00    +0.001 C 
ATOM     26  H   UNL     1      34.551 -23.664 -15.977  0.00  0.00    +0.149 HD
ATOM     27  H   UNL     1      31.325 -22.547 -18.215  0.00  0.00    +0.149 HD
ENDBRANCH  15  19
ENDBRANCH   1  15
TORSDOF 8
ENDMDL
MODEL 7
REMARK VINA RESULT:      -9.2      6.646     10.118
REMARK  Name = 5029
REMARK  8 active torsions:
REMARK  status: ('A' for Active; 'I' for Inactive)
REMARK    1  A    between atoms: C_1  and  C_3
REMARK    2  A    between atoms: C_1  and  S_15
REMARK    3  A    between atoms: C_5  and  O_9
REMARK    4  A    between atoms: O_9  and  C_10
REMARK    5  A    between atoms: C_10  and  C_11
REMARK    6  A    between atoms: C_11  and  C_12
REMARK    7  A    between atoms: C_12  and  O_13
REMARK    8  A    between atoms: S_15  and  C_19
REMARK                            x       y       z     vdW  Elec       q    Type
REMARK                         _______ _______ _______ _____ _____    ______ ____
ROOT
ATOM      1  C   UNL     1      35.220 -22.600 -17.250  0.00  0.00    +0.140 C 
ENDROOT
BRANCH   1   3
ATOM      2  N   UNL     1      33.536 -23.380 -15.713  0.00  0.00    -0.247 NA
ATOM      3  C   UNL     1      34.846 -23.114 -15.890  0.00  0.00    +0.072 C 
ATOM      4  C   UNL     1      35.819 -23.285 -14.924  0.00  0.00    +0.027 C 
ATOM      5  C   UNL     1      35.417 -23.765 -13.682  0.00  0.00    +0.137 C 
ATOM      6  C   UNL     1      37.251 -22.965 -15.190  0.00  0.00    +0.035 C 
ATOM      7  C   UNL     1      34.077 -24.053 -13.454  0.00  0.00    +0.057 C 
ATOM      8  C   UNL     1      33.183 -23.846 -14.494  0.00  0.00    +0.102 C 
BRANCH   5   9
ATOM      9  O   UNL     1      36.320 -23.956 -12.680  0.00  0.00    -0.476 OA
BRANCH   9  10
ATOM     10  C   UNL     1      36.564 -25.302 -12.277  0.00  0.00    +0.208 C 
BRANCH  10  11
ATOM     11  C   UNL     1      37.904 -25.748 -12.840  0.00  0.00    +0.079 C 
BRANCH  11  12
ATOM     12  C   UNL     1      37.747 -26.524 -14.139  0.00  0.00    +0.146 C 
BRANCH  12  13
ATOM     13  O   UNL     1      39.024 -26.774 -14.708  0.00  0.00    -0.351 OA
ATOM     14  C   UNL     1      39.947 -25.739 -14.396  0.00  0.00    +0.174 C 
ENDBRANCH  12  13
ENDBRANCH  11  12
ENDBRANCH  10  11
ENDBRANCH   9  10
ENDBRANCH   5   9
ENDBRANCH   1   3
BRANCH   1  15
ATOM     15  S   UNL     1      33.807 -22.632 -18.391  0.00  0.00    +0.085 S 
ATOM     16  O   UNL     1      33.845 -23.967 -19.108  0.00  0.00    -0.252 OA
BRANCH  15  19
ATOM     17  N   UNL     1      35.568 -20.867 -19.655  0.00  0.00    -0.307 N 
ATOM     18  N   UNL     1      33.466 -20.758 -20.370  0.00  0.00    -0.307 N 
ATOM     19  C   UNL     1      34.294 -21.349 -19.538  0.00  0.00    +0.226 C 
ATOM     20  C   UNL     1      35.562 -19.900 -20.627  0.00  0.00    +0.060 C 
ATOM     21  C   UNL     1      34.239 -19.851 -21.058  0.00  0.00    +0.060 C 
ATOM     22  C   UNL     1      36.570 -19.090 -21.150  0.00  0.00    +0.016 C 
ATOM     23  C   UNL     1      33.882 -18.945 -22.071  0.00  0.00    +0.016 C 
ATOM     24  C   UNL     1      36.196 -18.193 -22.158  0.00  0.00    +0.001 C 
ATOM     25  C   UNL     1      34.877 -18.120 -22.611  0.00  0.00    +0.001 C 
ATOM     26  H   UNL     1      36.350 -21.162 -19.134  0.00  0.00    +0.149 HD
ATOM     27  H   UNL     1      32.502 -20.927 -20.478  0.00  0.00    +0.149 HD
ENDBRANCH  15  19
ENDBRANCH   1  15
TORSDOF 8
ENDMDL
MODEL 8
REMARK VINA RESULT:      -9.1      5.602     11.329
REMARK  Name = 5029
REMARK  8 active torsions:
REMARK  status: ('A' for Active; 'I' for Inactive)
REMARK    1  A    between atoms: C_1  and  C_3
REMARK    2  A    between atoms: C_1  and  S_15
REMARK    3  A    between atoms: C_5  and  O_9
REMARK    4  A    between atoms: O_9  and  C_10
REMARK    5  A    between atoms: C_10  and  C_11
REMARK    6  A    between atoms: C_11  and  C_12
REMARK    7  A    between atoms: C_12  and  O_13
REMARK    8  A    between atoms: S_15  and  C_19
REMARK                            x       y       z     vdW  Elec       q    Type
REMARK                         _______ _______ _______ _____ _____    ______ ____
ROOT
ATOM      1  C   UNL     1      34.353 -23.020 -18.762  0.00  0.00    +0.140 C 
ENDROOT
BRANCH   1   3
ATOM      2  N   UNL     1      32.777 -21.445 -19.681  0.00  0.00    -0.247 NA
ATOM      3  C   UNL     1      34.080 -21.749 -19.514  0.00  0.00    +0.072 C 
ATOM      4  C   UNL     1      35.131 -20.981 -19.978  0.00  0.00    +0.027 C 
ATOM      5  C   UNL     1      34.821 -19.813 -20.667  0.00  0.00    +0.137 C 
ATOM      6  C   UNL     1      36.550 -21.382 -19.760  0.00  0.00    +0.035 C 
ATOM      7  C   UNL     1      33.491 -19.460 -20.863  0.00  0.00    +0.057 C 
ATOM      8  C   UNL     1      32.514 -20.303 -20.355  0.00  0.00    +0.102 C 
BRANCH   5   9
ATOM      9  O   UNL     1      35.804 -19.007 -21.156  0.00  0.00    -0.476 OA
BRANCH   9  10
ATOM     10  C   UNL     1      35.468 -17.640 -21.382  0.00  0.00    +0.208 C 
BRANCH  10  11
ATOM     11  C   UNL     1      35.615 -17.336 -22.864  0.00  0.00    +0.079 C 
BRANCH  11  12
ATOM     12  C   UNL     1      34.958 -16.019 -23.244  0.00  0.00    +0.146 C 
BRANCH  12  13
ATOM     13  O   UNL     1      34.064 -16.221 -24.330  0.00  0.00    -0.351 OA
ATOM     14  C   UNL     1      34.439 -17.348 -25.111  0.00  0.00    +0.174 C 
ENDBRANCH  12  13
ENDBRANCH  11  12
ENDBRANCH  10  11
ENDBRANCH   9  10
ENDBRANCH   5   9
ENDBRANCH   1   3
BRANCH   1  15
ATOM     15  S   UNL     1      34.452 -22.732 -16.972  0.00  0.00    +0.085 S 
ATOM     16  O   UNL     1      35.413 -23.760 -16.409  0.00  0.00    -0.252 OA
BRANCH  15  19
ATOM     17  N   UNL     1      32.489 -24.070 -15.498  0.00  0.00    -0.307 N 
ATOM     18  N   UNL     1      31.708 -22.669 -17.038  0.00  0.00    -0.307 N 
ATOM     19  C   UNL     1      32.789 -23.173 -16.485  0.00  0.00    +0.226 C 
ATOM     20  C   UNL     1      31.123 -24.151 -15.407  0.00  0.00    +0.060 C 
ATOM     21  C   UNL     1      30.659 -23.267 -16.377  0.00  0.00    +0.060 C 
ATOM     22  C   UNL     1      30.282 -24.898 -14.584  0.00  0.00    +0.016 C 
ATOM     23  C   UNL     1      29.273 -23.106 -16.550  0.00  0.00    +0.016 C 
ATOM     24  C   UNL     1      28.905 -24.727 -14.770  0.00  0.00    +0.001 C 
ATOM     25  C   UNL     1      28.408 -23.847 -15.735  0.00  0.00    +0.001 C 
ATOM     26  H   UNL     1      33.138 -24.568 -14.952  0.00  0.00    +0.149 HD
ATOM     27  H   UNL     1      31.658 -22.007 -17.764  0.00  0.00    +0.149 HD
ENDBRANCH  15  19
ENDBRANCH   1  15
TORSDOF 8
ENDMDL
MODEL 9
REMARK VINA RESULT:      -9.0      8.255     12.441
REMARK  Name = 5029
REMARK  8 active torsions:
REMARK  status: ('A' for Active; 'I' for Inactive)
REMARK    1  A    between atoms: C_1  and  C_3
REMARK    2  A    between atoms: C_1  and  S_15
REMARK    3  A    between atoms: C_5  and  O_9
REMARK    4  A    between atoms: O_9  and  C_10
REMARK    5  A    between atoms: C_10  and  C_11
REMARK    6  A    between atoms: C_11  and  C_12
REMARK    7  A    between atoms: C_12  and  O_13
REMARK    8  A    between atoms: S_15  and  C_19
REMARK                            x       y       z     vdW  Elec       q    Type
REMARK                         _______ _______ _______ _____ _____    ______ ____
ROOT
ATOM      1  C   UNL     1      35.684 -24.311 -14.764  0.00  0.00    +0.140 C 
ENDROOT
BRANCH   1   3
ATOM      2  N   UNL     1      34.070 -23.974 -16.521  0.00  0.00    -0.247 NA
ATOM      3  C   UNL     1      35.273 -23.615 -16.029  0.00  0.00    +0.072 C 
ATOM      4  C   UNL     1      36.109 -22.678 -16.605  0.00  0.00    +0.027 C 
ATOM      5  C   UNL     1      35.679 -22.063 -17.776  0.00  0.00    +0.137 C 
ATOM      6  C   UNL     1      37.430 -22.334 -16.006  0.00  0.00    +0.035 C 
ATOM      7  C   UNL     1      34.445 -22.401 -18.320  0.00  0.00    +0.057 C 
ATOM      8  C   UNL     1      33.685 -23.354 -17.660  0.00  0.00    +0.102 C 
BRANCH   5   9
ATOM      9  O   UNL     1      36.450 -21.131 -18.402  0.00  0.00    -0.476 OA
BRANCH   9  10
ATOM     10  C   UNL     1      36.503 -21.184 -19.826  0.00  0.00    +0.208 C 
BRANCH  10  11
ATOM     11  C   UNL     1      36.279 -19.785 -20.378  0.00  0.00    +0.079 C 
BRANCH  11  12
ATOM     12  C   UNL     1      35.169 -19.754 -21.417  0.00  0.00    +0.146 C 
BRANCH  12  13
ATOM     13  O   UNL     1      34.026 -19.103 -20.881  0.00  0.00    -0.351 OA
ATOM     14  C   UNL     1      32.988 -20.029 -20.588  0.00  0.00    +0.174 C 
ENDBRANCH  12  13
ENDBRANCH  11  12
ENDBRANCH  10  11
ENDBRANCH   9  10
ENDBRANCH   5   9
ENDBRANCH   1   3
BRANCH   1  15
ATOM     15  S   UNL     1      34.811 -23.644 -13.317  0.00  0.00    +0.085 S 
ATOM     16  O   UNL     1      35.055 -24.604 -12.170  0.00  0.00    -0.252 OA
BRANCH  15  19
ATOM     17  N   UNL     1      32.316 -22.766 -14.220  0.00  0.00    -0.307 N 
ATOM     18  N   UNL     1      32.493 -24.968 -13.962  0.00  0.00    -0.307 N 
ATOM     19  C   UNL     1      33.116 -23.815 -13.861  0.00  0.00    +0.226 C 
ATOM     20  C   UNL     1      31.094 -23.276 -14.578  0.00  0.00    +0.060 C 
ATOM     21  C   UNL     1      31.230 -24.652 -14.409  0.00  0.00    +0.060 C 
ATOM     22  C   UNL     1      29.919 -22.670 -15.021  0.00  0.00    +0.016 C 
ATOM     23  C   UNL     1      30.138 -25.488 -14.694  0.00  0.00    +0.016 C 
ATOM     24  C   UNL     1      28.841 -23.519 -15.300  0.00  0.00    +0.001 C 
ATOM     25  C   UNL     1      28.946 -24.902 -15.140  0.00  0.00    +0.001 C 
ATOM     26  H   UNL     1      32.571 -21.816 -14.222  0.00  0.00    +0.149 HD
ATOM     27  H   UNL     1      32.851 -25.863 -13.764  0.00  0.00    +0.149 HD
ENDBRANCH  15  19
ENDBRANCH   1  15
TORSDOF 8
ENDMDL
