MODEL 1
REMARK VINA RESULT:      -9.9      0.000      0.000
REMARK  Name = 54708746
REMARK  4 active torsions:
REMARK  status: ('A' for Active; 'I' for Inactive)
REMARK    1  A    between atoms: C_10  and  C_15
REMARK    2  A    between atoms: C_11  and  O_13
REMARK    3  A    between atoms: C_15  and  C_16
REMARK    4  A    between atoms: C_15  and  C_22
REMARK                            x       y       z     vdW  Elec       q    Type
REMARK                         _______ _______ _______ _____ _____    ______ ____
ROOT
ATOM      1  O   UNL     1      34.228 -17.063 -24.348  0.00  0.00    -0.426 OA
ATOM      2  O   UNL     1      34.894 -19.218 -24.462  0.00  0.00    -0.245 OA
ATOM      3  C   UNL     1      34.191 -15.858 -22.261  0.00  0.00    +0.042 A 
ATOM      4  C   UNL     1      33.783 -14.722 -21.337  0.00  0.00    +0.032 C 
ATOM      5  C   UNL     1      32.599 -13.862 -21.780  0.00  0.00    +0.005 C 
ATOM      6  C   UNL     1      32.932 -12.847 -22.867  0.00  0.00    +0.001 C 
ATOM      7  C   UNL     1      33.763 -13.388 -24.025  0.00  0.00    +0.008 C 
ATOM      8  C   UNL     1      33.378 -14.801 -24.451  0.00  0.00    +0.064 C 
ATOM      9  C   UNL     1      33.937 -15.903 -23.585  0.00  0.00    +0.125 A 
ATOM     10  C   UNL     1      35.098 -18.140 -22.362  0.00  0.00    +0.091 A 
ATOM     11  C   UNL     1      34.854 -17.017 -21.667  0.00  0.00    +0.135 A 
ATOM     12  C   UNL     1      34.729 -18.201 -23.796  0.00  0.00    +0.345 A 
ENDROOT
BRANCH  11  13
ATOM     13  O   UNL     1      35.265 -16.925 -20.347  0.00  0.00    -0.506 OA
ATOM     14  H   UNL     1      35.525 -16.097 -19.994  0.00  0.00    +0.292 HD
ENDBRANCH  11  13
BRANCH  10  15
ATOM     15  C   UNL     1      35.765 -19.360 -21.798  0.00  0.00    +0.054 C 
BRANCH  15  16
ATOM     16  C   UNL     1      34.825 -20.115 -20.874  0.00  0.00    -0.018 C 
ATOM     17  C   UNL     1      35.329 -21.088 -20.010  0.00  0.00    -0.004 C 
ATOM     18  C   UNL     1      33.459 -19.834 -20.887  0.00  0.00    -0.004 C 
ATOM     19  C   UNL     1      34.465 -21.781 -19.162  0.00  0.00    -0.000 C 
ATOM     20  C   UNL     1      32.596 -20.527 -20.039  0.00  0.00    -0.000 C 
ATOM     21  C   UNL     1      33.098 -21.500 -19.176  0.00  0.00    -0.000 C 
ENDBRANCH  15  16
BRANCH  15  22
ATOM     22  C   UNL     1      37.102 -18.971 -21.134  0.00  0.00    +0.009 C 
ATOM     23  C   UNL     1      38.190 -18.623 -22.144  0.00  0.00    +0.001 C 
ENDBRANCH  15  22
ENDBRANCH  10  15
TORSDOF 4
ENDMDL
MODEL 2
REMARK VINA RESULT:      -8.6      7.691     10.279
REMARK  Name = 54708746
REMARK  4 active torsions:
REMARK  status: ('A' for Active; 'I' for Inactive)
REMARK    1  A    between atoms: C_10  and  C_15
REMARK    2  A    between atoms: C_11  and  O_13
REMARK    3  A    between atoms: C_15  and  C_16
REMARK    4  A    between atoms: C_15  and  C_22
REMARK                            x       y       z     vdW  Elec       q    Type
REMARK                         _______ _______ _______ _____ _____    ______ ____
ROOT
ATOM      1  O   UNL     1      33.216 -23.799 -13.435  0.00  0.00    -0.426 OA
ATOM      2  O   UNL     1      35.437 -23.590 -13.077  0.00  0.00    -0.245 OA
ATOM      3  C   UNL     1      32.263 -23.580 -15.638  0.00  0.00    +0.042 A 
ATOM      4  C   UNL     1      31.132 -23.372 -16.632  0.00  0.00    +0.032 C 
ATOM      5  C   UNL     1      29.822 -22.808 -16.079  0.00  0.00    +0.005 C 
ATOM      6  C   UNL     1      28.967 -23.823 -15.330  0.00  0.00    +0.001 C 
ATOM      7  C   UNL     1      29.723 -24.699 -14.337  0.00  0.00    +0.008 C 
ATOM      8  C   UNL     1      30.807 -23.956 -13.562  0.00  0.00    +0.064 C 
ATOM      9  C   UNL     1      32.101 -23.752 -14.310  0.00  0.00    +0.125 A 
ATOM     10  C   UNL     1      34.701 -23.529 -15.328  0.00  0.00    +0.091 A 
ATOM     11  C   UNL     1      33.633 -23.530 -16.144  0.00  0.00    +0.135 A 
ATOM     12  C   UNL     1      34.496 -23.628 -13.864  0.00  0.00    +0.345 A 
ENDROOT
BRANCH  11  13
ATOM     13  O   UNL     1      33.820 -23.513 -17.517  0.00  0.00    -0.506 OA
ATOM     14  H   UNL     1      33.087 -23.383 -18.087  0.00  0.00    +0.292 HD
ENDBRANCH  11  13
BRANCH  10  15
ATOM     15  C   UNL     1      36.126 -23.467 -15.795  0.00  0.00    +0.054 C 
BRANCH  15  16
ATOM     16  C   UNL     1      36.942 -24.601 -15.200  0.00  0.00    -0.018 C 
ATOM     17  C   UNL     1      36.442 -25.903 -15.218  0.00  0.00    -0.004 C 
ATOM     18  C   UNL     1      38.191 -24.341 -14.637  0.00  0.00    -0.004 C 
ATOM     19  C   UNL     1      37.191 -26.945 -14.671  0.00  0.00    -0.000 C 
ATOM     20  C   UNL     1      38.940 -25.383 -14.090  0.00  0.00    -0.000 C 
ATOM     21  C   UNL     1      38.441 -26.685 -14.107  0.00  0.00    -0.000 C 
ENDBRANCH  15  16
BRANCH  15  22
ATOM     22  C   UNL     1      36.713 -22.068 -15.509  0.00  0.00    +0.009 C 
ATOM     23  C   UNL     1      37.259 -21.386 -16.758  0.00  0.00    +0.001 C 
ENDBRANCH  15  22
ENDBRANCH  10  15
TORSDOF 4
ENDMDL
MODEL 3
REMARK VINA RESULT:      -8.5      7.355      9.669
REMARK  Name = 54708746
REMARK  4 active torsions:
REMARK  status: ('A' for Active; 'I' for Inactive)
REMARK    1  A    between atoms: C_10  and  C_15
REMARK    2  A    between atoms: C_11  and  O_13
REMARK    3  A    between atoms: C_15  and  C_16
REMARK    4  A    between atoms: C_15  and  C_22
REMARK                            x       y       z     vdW  Elec       q    Type
REMARK                         _______ _______ _______ _____ _____    ______ ____
ROOT
ATOM      1  O   UNL     1      32.662 -23.100 -17.380  0.00  0.00    -0.426 OA
ATOM      2  O   UNL     1      34.695 -23.086 -18.366  0.00  0.00    -0.245 OA
ATOM      3  C   UNL     1      32.400 -23.534 -15.023  0.00  0.00    +0.042 A 
ATOM      4  C   UNL     1      31.620 -23.901 -13.772  0.00  0.00    +0.032 C 
ATOM      5  C   UNL     1      30.250 -24.547 -13.978  0.00  0.00    +0.005 C 
ATOM      6  C   UNL     1      29.147 -23.571 -14.369  0.00  0.00    +0.001 C 
ATOM      7  C   UNL     1      29.522 -22.574 -15.459  0.00  0.00    +0.008 C 
ATOM      8  C   UNL     1      30.386 -23.169 -16.566  0.00  0.00    +0.064 C 
ATOM      9  C   UNL     1      31.852 -23.299 -16.233  0.00  0.00    +0.125 A 
ATOM     10  C   UNL     1      34.644 -23.346 -16.011  0.00  0.00    +0.091 A 
ATOM     11  C   UNL     1      33.858 -23.489 -14.930  0.00  0.00    +0.135 A 
ATOM     12  C   UNL     1      34.020 -23.179 -17.345  0.00  0.00    +0.345 A 
ENDROOT
BRANCH  11  13
ATOM     13  O   UNL     1      34.432 -23.570 -13.672  0.00  0.00    -0.506 OA
ATOM     14  H   UNL     1      34.193 -22.954 -13.008  0.00  0.00    +0.292 HD
ENDBRANCH  11  13
BRANCH  10  15
ATOM     15  C   UNL     1      36.143 -23.306 -15.972  0.00  0.00    +0.054 C 
BRANCH  15  16
ATOM     16  C   UNL     1      36.689 -24.337 -15.000  0.00  0.00    -0.018 C 
ATOM     17  C   UNL     1      37.436 -23.926 -13.895  0.00  0.00    -0.004 C 
ATOM     18  C   UNL     1      36.444 -25.693 -15.211  0.00  0.00    -0.004 C 
ATOM     19  C   UNL     1      37.938 -24.874 -13.003  0.00  0.00    -0.000 C 
ATOM     20  C   UNL     1      36.946 -26.640 -14.319  0.00  0.00    -0.000 C 
ATOM     21  C   UNL     1      37.693 -26.231 -13.215  0.00  0.00    -0.000 C 
ENDBRANCH  15  16
BRANCH  15  22
ATOM     22  C   UNL     1      36.624 -21.868 -15.681  0.00  0.00    +0.009 C 
ATOM     23  C   UNL     1      37.316 -21.219 -16.875  0.00  0.00    +0.001 C 
ENDBRANCH  15  22
ENDBRANCH  10  15
TORSDOF 4
ENDMDL
MODEL 4
REMARK VINA RESULT:      -8.4      8.664     10.642
REMARK  Name = 54708746
REMARK  4 active torsions:
REMARK  status: ('A' for Active; 'I' for Inactive)
REMARK    1  A    between atoms: C_10  and  C_15
REMARK    2  A    between atoms: C_11  and  O_13
REMARK    3  A    between atoms: C_15  and  C_16
REMARK    4  A    between atoms: C_15  and  C_22
REMARK                            x       y       z     vdW  Elec       q    Type
REMARK                         _______ _______ _______ _____ _____    ______ ____
ROOT
ATOM      1  O   UNL     1      33.468 -22.870 -16.223  0.00  0.00    -0.426 OA
ATOM      2  O   UNL     1      35.696 -22.497 -16.264  0.00  0.00    -0.245 OA
ATOM      3  C   UNL     1      32.430 -24.148 -14.462  0.00  0.00    +0.042 A 
ATOM      4  C   UNL     1      31.309 -24.951 -13.825  0.00  0.00    +0.032 C 
ATOM      5  C   UNL     1      30.215 -25.471 -14.759  0.00  0.00    +0.005 C 
ATOM      6  C   UNL     1      29.203 -24.416 -15.190  0.00  0.00    +0.001 C 
ATOM      7  C   UNL     1      29.803 -23.086 -15.632  0.00  0.00    +0.008 C 
ATOM      8  C   UNL     1      31.087 -23.230 -16.443  0.00  0.00    +0.064 C 
ATOM      9  C   UNL     1      32.333 -23.479 -15.629  0.00  0.00    +0.125 A 
ATOM     10  C   UNL     1      34.827 -23.614 -14.362  0.00  0.00    +0.091 A 
ATOM     11  C   UNL     1      33.732 -24.146 -13.797  0.00  0.00    +0.135 A 
ATOM     12  C   UNL     1      34.716 -22.961 -15.688  0.00  0.00    +0.345 A 
ENDROOT
BRANCH  11  13
ATOM     13  O   UNL     1      33.813 -24.691 -12.525  0.00  0.00    -0.506 OA
ATOM     14  H   UNL     1      34.374 -24.301 -11.884  0.00  0.00    +0.292 HD
ENDBRANCH  11  13
BRANCH  10  15
ATOM     15  C   UNL     1      36.188 -23.596 -13.728  0.00  0.00    +0.054 C 
BRANCH  15  16
ATOM     16  C   UNL     1      37.016 -24.783 -14.186  0.00  0.00    -0.018 C 
ATOM     17  C   UNL     1      38.409 -24.715 -14.152  0.00  0.00    -0.004 C 
ATOM     18  C   UNL     1      36.385 -25.941 -14.639  0.00  0.00    -0.004 C 
ATOM     19  C   UNL     1      39.170 -25.806 -14.573  0.00  0.00    -0.000 C 
ATOM     20  C   UNL     1      37.146 -27.032 -15.060  0.00  0.00    -0.000 C 
ATOM     21  C   UNL     1      38.539 -26.965 -15.027  0.00  0.00    -0.000 C 
ENDBRANCH  15  16
BRANCH  15  22
ATOM     22  C   UNL     1      36.052 -23.492 -12.194  0.00  0.00    +0.009 C 
ATOM     23  C   UNL     1      37.238 -22.794 -11.537  0.00  0.00    +0.001 C 
ENDBRANCH  15  22
ENDBRANCH  10  15
TORSDOF 4
ENDMDL
MODEL 5
REMARK VINA RESULT:      -8.4      0.907      2.376
REMARK  Name = 54708746
REMARK  4 active torsions:
REMARK  status: ('A' for Active; 'I' for Inactive)
REMARK    1  A    between atoms: C_10  and  C_15
REMARK    2  A    between atoms: C_11  and  O_13
REMARK    3  A    between atoms: C_15  and  C_16
REMARK    4  A    between atoms: C_15  and  C_22
REMARK                            x       y       z     vdW  Elec       q    Type
REMARK                         _______ _______ _______ _____ _____    ______ ____
ROOT
ATOM      1  O   UNL     1      34.519 -15.730 -21.738  0.00  0.00    -0.426 OA
ATOM      2  O   UNL     1      35.552 -17.019 -20.197  0.00  0.00    -0.245 OA
ATOM      3  C   UNL     1      34.213 -16.473 -24.011  0.00  0.00    +0.042 A 
ATOM      4  C   UNL     1      33.919 -16.286 -25.490  0.00  0.00    +0.032 C 
ATOM      5  C   UNL     1      34.002 -14.860 -26.035  0.00  0.00    +0.005 C 
ATOM      6  C   UNL     1      32.802 -13.986 -25.695  0.00  0.00    +0.001 C 
ATOM      7  C   UNL     1      32.339 -14.059 -24.244  0.00  0.00    +0.008 C 
ATOM      8  C   UNL     1      33.482 -14.142 -23.237  0.00  0.00    +0.064 C 
ATOM      9  C   UNL     1      34.090 -15.512 -23.073  0.00  0.00    +0.125 A 
ATOM     10  C   UNL     1      35.175 -17.985 -22.328  0.00  0.00    +0.091 A 
ATOM     11  C   UNL     1      34.724 -17.772 -23.575  0.00  0.00    +0.135 A 
ATOM     12  C   UNL     1      35.115 -16.886 -21.335  0.00  0.00    +0.345 A 
ENDROOT
BRANCH  11  13
ATOM     13  O   UNL     1      34.708 -18.816 -24.486  0.00  0.00    -0.506 OA
ATOM     14  H   UNL     1      35.345 -19.500 -24.425  0.00  0.00    +0.292 HD
ENDBRANCH  11  13
BRANCH  10  15
ATOM     15  C   UNL     1      35.721 -19.293 -21.834  0.00  0.00    +0.054 C 
BRANCH  15  16
ATOM     16  C   UNL     1      34.717 -19.996 -20.937  0.00  0.00    -0.018 C 
ATOM     17  C   UNL     1      35.145 -20.991 -20.057  0.00  0.00    -0.004 C 
ATOM     18  C   UNL     1      33.368 -19.647 -20.992  0.00  0.00    -0.004 C 
ATOM     19  C   UNL     1      34.223 -21.637 -19.234  0.00  0.00    -0.000 C 
ATOM     20  C   UNL     1      32.446 -20.294 -20.168  0.00  0.00    -0.000 C 
ATOM     21  C   UNL     1      32.873 -21.288 -19.289  0.00  0.00    -0.000 C 
ENDBRANCH  15  16
BRANCH  15  22
ATOM     22  C   UNL     1      37.095 -19.072 -21.168  0.00  0.00    +0.009 C 
ATOM     23  C   UNL     1      38.174 -18.645 -22.156  0.00  0.00    +0.001 C 
ENDBRANCH  15  22
ENDBRANCH  10  15
TORSDOF 4
ENDMDL
MODEL 6
REMARK VINA RESULT:      -8.1      2.812      7.635
REMARK  Name = 54708746
REMARK  4 active torsions:
REMARK  status: ('A' for Active; 'I' for Inactive)
REMARK    1  A    between atoms: C_10  and  C_15
REMARK    2  A    between atoms: C_11  and  O_13
REMARK    3  A    between atoms: C_15  and  C_16
REMARK    4  A    between atoms: C_15  and  C_22
REMARK                            x       y       z     vdW  Elec       q    Type
REMARK                         _______ _______ _______ _____ _____    ______ ____
ROOT
ATOM      1  O   UNL     1      33.439 -15.413 -25.506  0.00  0.00    -0.426 OA
ATOM      2  O   UNL     1      32.490 -13.443 -26.075  0.00  0.00    -0.245 OA
ATOM      3  C   UNL     1      34.229 -15.839 -23.268  0.00  0.00    +0.042 A 
ATOM      4  C   UNL     1      35.029 -16.582 -22.212  0.00  0.00    +0.032 C 
ATOM      5  C   UNL     1      36.139 -17.508 -22.711  0.00  0.00    +0.005 C 
ATOM      6  C   UNL     1      35.645 -18.840 -23.263  0.00  0.00    +0.001 C 
ATOM      7  C   UNL     1      34.455 -18.747 -24.210  0.00  0.00    +0.008 C 
ATOM      8  C   UNL     1      34.513 -17.550 -25.155  0.00  0.00    +0.064 C 
ATOM      9  C   UNL     1      34.085 -16.237 -24.549  0.00  0.00    +0.125 A 
ATOM     10  C   UNL     1      33.038 -13.752 -23.790  0.00  0.00    +0.091 A 
ATOM     11  C   UNL     1      33.616 -14.566 -22.891  0.00  0.00    +0.135 A 
ATOM     12  C   UNL     1      32.971 -14.169 -25.210  0.00  0.00    +0.345 A 
ENDROOT
BRANCH  11  13
ATOM     13  O   UNL     1      33.615 -14.217 -21.550  0.00  0.00    -0.506 OA
ATOM     14  H   UNL     1      33.015 -13.570 -21.235  0.00  0.00    +0.292 HD
ENDBRANCH  11  13
BRANCH  10  15
ATOM     15  C   UNL     1      32.407 -12.432 -23.458  0.00  0.00    +0.054 C 
BRANCH  15  16
ATOM     16  C   UNL     1      33.328 -11.281 -23.823  0.00  0.00    -0.018 C 
ATOM     17  C   UNL     1      33.159 -10.035 -23.219  0.00  0.00    -0.004 C 
ATOM     18  C   UNL     1      34.343 -11.471 -24.760  0.00  0.00    -0.004 C 
ATOM     19  C   UNL     1      34.005  -8.978 -23.555  0.00  0.00    -0.000 C 
ATOM     20  C   UNL     1      35.189 -10.414 -25.096  0.00  0.00    -0.000 C 
ATOM     21  C   UNL     1      35.021  -9.168 -24.493  0.00  0.00    -0.000 C 
ENDBRANCH  15  16
BRANCH  15  22
ATOM     22  C   UNL     1      31.959 -12.419 -21.981  0.00  0.00    +0.009 C 
ATOM     23  C   UNL     1      30.782 -11.484 -21.723  0.00  0.00    +0.001 C 
ENDBRANCH  15  22
ENDBRANCH  10  15
TORSDOF 4
ENDMDL
MODEL 7
REMARK VINA RESULT:      -8.0      5.587     10.267
REMARK  Name = 54708746
REMARK  4 active torsions:
REMARK  status: ('A' for Active; 'I' for Inactive)
REMARK    1  A    between atoms: C_10  and  C_15
REMARK    2  A    between atoms: C_11  and  O_13
REMARK    3  A    between atoms: C_15  and  C_16
REMARK    4  A    between atoms: C_15  and  C_22
REMARK                            x       y       z     vdW  Elec       q    Type
REMARK                         _______ _______ _______ _____ _____    ______ ____
ROOT
ATOM      1  O   UNL     1      33.974 -10.208 -24.120  0.00  0.00    -0.426 OA
ATOM      2  O   UNL     1      33.924  -8.119 -23.262  0.00  0.00    -0.245 OA
ATOM      3  C   UNL     1      32.558 -11.962 -23.266  0.00  0.00    +0.042 A 
ATOM      4  C   UNL     1      32.126 -13.406 -23.069  0.00  0.00    +0.032 C 
ATOM      5  C   UNL     1      33.156 -14.486 -23.399  0.00  0.00    +0.005 C 
ATOM      6  C   UNL     1      33.333 -14.752 -24.889  0.00  0.00    +0.001 C 
ATOM      7  C   UNL     1      33.455 -13.506 -25.758  0.00  0.00    +0.008 C 
ATOM      8  C   UNL     1      34.275 -12.388 -25.121  0.00  0.00    +0.064 C 
ATOM      9  C   UNL     1      33.539 -11.558 -24.099  0.00  0.00    +0.125 A 
ATOM     10  C   UNL     1      32.334  -9.664 -22.424  0.00  0.00    +0.091 A 
ATOM     11  C   UNL     1      31.908 -10.937 -22.452  0.00  0.00    +0.135 A 
ATOM     12  C   UNL     1      33.473  -9.260 -23.282  0.00  0.00    +0.345 A 
ENDROOT
BRANCH  11  13
ATOM     13  O   UNL     1      30.797 -11.305 -21.710  0.00  0.00    -0.506 OA
ATOM     14  H   UNL     1      30.867 -11.406 -20.781  0.00  0.00    +0.292 HD
ENDBRANCH  11  13
BRANCH  10  15
ATOM     15  C   UNL     1      31.710  -8.577 -21.598  0.00  0.00    +0.054 C 
BRANCH  15  16
ATOM     16  C   UNL     1      31.482  -7.326 -22.428  0.00  0.00    -0.018 C 
ATOM     17  C   UNL     1      30.933  -7.428 -23.706  0.00  0.00    -0.004 C 
ATOM     18  C   UNL     1      31.821  -6.075 -21.912  0.00  0.00    -0.004 C 
ATOM     19  C   UNL     1      30.724  -6.279 -24.469  0.00  0.00    -0.000 C 
ATOM     20  C   UNL     1      31.612  -4.926 -22.675  0.00  0.00    -0.000 C 
ATOM     21  C   UNL     1      31.063  -5.028 -23.953  0.00  0.00    -0.000 C 
ENDBRANCH  15  16
BRANCH  15  22
ATOM     22  C   UNL     1      32.554  -8.331 -20.329  0.00  0.00    +0.009 C 
ATOM     23  C   UNL     1      32.281  -9.348 -19.226  0.00  0.00    +0.001 C 
ENDBRANCH  15  22
ENDBRANCH  10  15
TORSDOF 4
ENDMDL
MODEL 8
REMARK VINA RESULT:      -7.9      4.742      7.291
REMARK  Name = 54708746
REMARK  4 active torsions:
REMARK  status: ('A' for Active; 'I' for Inactive)
REMARK    1  A    between atoms: C_10  and  C_15
REMARK    2  A    between atoms: C_11  and  O_13
REMARK    3  A    between atoms: C_15  and  C_16
REMARK    4  A    between atoms: C_15  and  C_22
REMARK                            x       y       z     vdW  Elec       q    Type
REMARK                         _______ _______ _______ _____ _____    ______ ____
ROOT
ATOM      1  O   UNL     1      31.352 -10.464 -22.491  0.00  0.00    -0.426 OA
ATOM      2  O   UNL     1      31.399 -12.594 -21.738  0.00  0.00    -0.245 OA
ATOM      3  C   UNL     1      33.222  -9.493 -23.663  0.00  0.00    +0.042 A 
ATOM      4  C   UNL     1      34.047  -8.347 -24.224  0.00  0.00    +0.032 C 
ATOM      5  C   UNL     1      33.737  -6.948 -23.691  0.00  0.00    +0.005 C 
ATOM      6  C   UNL     1      32.479  -6.317 -24.274  0.00  0.00    +0.001 C 
ATOM      7  C   UNL     1      31.262  -7.233 -24.330  0.00  0.00    +0.008 C 
ATOM      8  C   UNL     1      31.117  -8.139 -23.111  0.00  0.00    +0.064 C 
ATOM      9  C   UNL     1      31.994  -9.366 -23.119  0.00  0.00    +0.125 A 
ATOM     10  C   UNL     1      33.250 -11.868 -23.028  0.00  0.00    +0.091 A 
ATOM     11  C   UNL     1      33.822 -10.826 -23.654  0.00  0.00    +0.135 A 
ATOM     12  C   UNL     1      31.941 -11.684 -22.358  0.00  0.00    +0.345 A 
ENDROOT
BRANCH  11  13
ATOM     13  O   UNL     1      35.008 -11.010 -24.346  0.00  0.00    -0.506 OA
ATOM     14  H   UNL     1      35.519 -11.783 -24.204  0.00  0.00    +0.292 HD
ENDBRANCH  11  13
BRANCH  10  15
ATOM     15  C   UNL     1      33.830 -13.252 -22.979  0.00  0.00    +0.054 C 
BRANCH  15  16
ATOM     16  C   UNL     1      33.526 -14.014 -24.257  0.00  0.00    -0.018 C 
ATOM     17  C   UNL     1      33.826 -15.373 -24.345  0.00  0.00    -0.004 C 
ATOM     18  C   UNL     1      32.947 -13.355 -25.340  0.00  0.00    -0.004 C 
ATOM     19  C   UNL     1      33.548 -16.073 -25.520  0.00  0.00    -0.000 C 
ATOM     20  C   UNL     1      32.669 -14.055 -26.515  0.00  0.00    -0.000 C 
ATOM     21  C   UNL     1      32.969 -15.414 -26.604  0.00  0.00    -0.000 C 
ENDBRANCH  15  16
BRANCH  15  22
ATOM     22  C   UNL     1      33.355 -13.976 -21.701  0.00  0.00    +0.009 C 
ATOM     23  C   UNL     1      34.489 -14.668 -20.953  0.00  0.00    +0.001 C 
ENDBRANCH  15  22
ENDBRANCH  10  15
TORSDOF 4
ENDMDL
MODEL 9
REMARK VINA RESULT:      -7.8      3.776      6.523
REMARK  Name = 54708746
REMARK  4 active torsions:
REMARK  status: ('A' for Active; 'I' for Inactive)
REMARK    1  A    between atoms: C_10  and  C_15
REMARK    2  A    between atoms: C_11  and  O_13
REMARK    3  A    between atoms: C_15  and  C_16
REMARK    4  A    between atoms: C_15  and  C_22
REMARK                            x       y       z     vdW  Elec       q    Type
REMARK                         _______ _______ _______ _____ _____    ______ ____
ROOT
ATOM      1  O   UNL     1      31.837 -10.706 -22.310  0.00  0.00    -0.426 OA
ATOM      2  O   UNL     1      31.272 -12.866 -21.968  0.00  0.00    -0.245 OA
ATOM      3  C   UNL     1      33.643 -10.087 -23.782  0.00  0.00    +0.042 A 
ATOM      4  C   UNL     1      34.688  -9.144 -24.354  0.00  0.00    +0.032 C 
ATOM      5  C   UNL     1      35.020  -7.900 -23.529  0.00  0.00    +0.005 C 
ATOM      6  C   UNL     1      33.981  -6.790 -23.619  0.00  0.00    +0.001 C 
ATOM      7  C   UNL     1      32.533  -7.246 -23.480  0.00  0.00    +0.008 C 
ATOM      8  C   UNL     1      32.330  -8.342 -22.439  0.00  0.00    +0.064 C 
ATOM      9  C   UNL     1      32.685  -9.734 -22.900  0.00  0.00    +0.125 A 
ATOM     10  C   UNL     1      32.947 -12.437 -23.588  0.00  0.00    +0.091 A 
ATOM     11  C   UNL     1      33.711 -11.496 -24.167  0.00  0.00    +0.135 A 
ATOM     12  C   UNL     1      31.963 -12.039 -22.554  0.00  0.00    +0.345 A 
ENDROOT
BRANCH  11  13
ATOM     13  O   UNL     1      34.580 -11.850 -25.186  0.00  0.00    -0.506 OA
ATOM     14  H   UNL     1      35.074 -11.190 -25.631  0.00  0.00    +0.292 HD
ENDBRANCH  11  13
BRANCH  10  15
ATOM     15  C   UNL     1      32.987 -13.896 -23.936  0.00  0.00    +0.054 C 
BRANCH  15  16
ATOM     16  C   UNL     1      33.693 -14.694 -22.854  0.00  0.00    -0.018 C 
ATOM     17  C   UNL     1      34.349 -15.882 -23.180  0.00  0.00    -0.004 C 
ATOM     18  C   UNL     1      33.686 -14.241 -21.536  0.00  0.00    -0.004 C 
ATOM     19  C   UNL     1      34.997 -16.615 -22.186  0.00  0.00    -0.000 C 
ATOM     20  C   UNL     1      34.333 -14.974 -20.542  0.00  0.00    -0.000 C 
ATOM     21  C   UNL     1      34.989 -16.161 -20.866  0.00  0.00    -0.000 C 
ENDBRANCH  15  16
BRANCH  15  22
ATOM     22  C   UNL     1      33.598 -14.086 -25.341  0.00  0.00    +0.009 C 
ATOM     23  C   UNL     1      32.719 -14.920 -26.265  0.00  0.00    +0.001 C 
ENDBRANCH  15  22
ENDBRANCH  10  15
TORSDOF 4
ENDMDL
