MODEL 1
REMARK VINA RESULT:      -8.8      0.000      0.000
REMARK  Name = 1548942
REMARK  10 active torsions:
REMARK  status: ('A' for Active; 'I' for Inactive)
REMARK    1  A    between atoms: N_2  and  C_14
REMARK    2  A    between atoms: C_3  and  C_5
REMARK    3  A    between atoms: C_5  and  C_6
REMARK    4  A    between atoms: C_6  and  C_7
REMARK    5  A    between atoms: C_7  and  C_8
REMARK    6  A    between atoms: C_8  and  C_9
REMARK    7  A    between atoms: C_10  and  C_11
REMARK    8  A    between atoms: C_14  and  C_15
REMARK    9  A    between atoms: C_18  and  O_21
REMARK   10  A    between atoms: C_20  and  O_23
REMARK                            x       y       z     vdW  Elec       q    Type
REMARK                         _______ _______ _______ _____ _____    ______ ____
ROOT
ATOM      1  O   UNL     1      35.693 -16.086 -23.483  0.00  0.00    -0.275 OA
ATOM      2  N   UNL     1      34.954 -18.282 -23.292  0.00  0.00    -0.300 N 
ATOM      3  C   UNL     1      35.016 -17.031 -23.882  0.00  0.00    +0.223 C 
ATOM      4  H   UNL     1      34.375 -18.965 -23.703  0.00  0.00    +0.150 HD
ENDROOT
BRANCH   3   5
ATOM      5  C   UNL     1      34.137 -16.914 -25.112  0.00  0.00    +0.085 C 
BRANCH   5   6
ATOM      6  C   UNL     1      34.011 -15.474 -25.607  0.00  0.00    +0.010 C 
BRANCH   6   7
ATOM      7  C   UNL     1      32.936 -14.688 -24.846  0.00  0.00    +0.005 C 
BRANCH   7   8
ATOM      8  C   UNL     1      33.506 -13.560 -23.980  0.00  0.00    +0.026 C 
BRANCH   8   9
ATOM      9  C   UNL     1      32.582 -13.137 -22.875  0.00  0.00    -0.031 C 
ATOM     10  C   UNL     1      32.422 -13.825 -21.733  0.00  0.00    -0.031 C 
BRANCH  10  11
ATOM     11  C   UNL     1      33.151 -15.107 -21.421  0.00  0.00    +0.022 C 
ATOM     12  C   UNL     1      32.219 -16.082 -20.701  0.00  0.00    +0.005 C 
ATOM     13  C   UNL     1      34.386 -14.817 -20.569  0.00  0.00    +0.005 C 
ENDBRANCH  10  11
ENDBRANCH   8   9
ENDBRANCH   7   8
ENDBRANCH   6   7
ENDBRANCH   5   6
ENDBRANCH   3   5
BRANCH   2  14
ATOM     14  C   UNL     1      35.699 -18.634 -22.105  0.00  0.00    +0.116 C 
BRANCH  14  15
ATOM     15  C   UNL     1      34.929 -19.565 -21.215  0.00  0.00    +0.001 C 
ATOM     16  C   UNL     1      35.605 -20.494 -20.423  0.00  0.00    +0.037 C 
ATOM     17  C   UNL     1      33.535 -19.501 -21.178  0.00  0.00    +0.001 C 
ATOM     18  C   UNL     1      34.889 -21.358 -19.595  0.00  0.00    +0.172 C 
ATOM     19  C   UNL     1      32.819 -20.367 -20.351  0.00  0.00    +0.040 C 
ATOM     20  C   UNL     1      33.496 -21.294 -19.559  0.00  0.00    +0.168 C 
BRANCH  18  21
ATOM     21  O   UNL     1      35.560 -22.261 -18.827  0.00  0.00    -0.468 OA
ATOM     22  C   UNL     1      36.623 -21.759 -18.018  0.00  0.00    +0.253 C 
ENDBRANCH  18  21
BRANCH  20  23
ATOM     23  O   UNL     1      32.785 -22.133 -18.755  0.00  0.00    -0.503 OA
ATOM     24  H   UNL     1      31.901 -21.924 -18.525  0.00  0.00    +0.292 HD
ENDBRANCH  20  23
ENDBRANCH  14  15
ENDBRANCH   2  14
TORSDOF 10
ENDMDL
MODEL 2
REMARK VINA RESULT:      -8.7      1.949      2.781
REMARK  Name = 1548942
REMARK  10 active torsions:
REMARK  status: ('A' for Active; 'I' for Inactive)
REMARK    1  A    between atoms: N_2  and  C_14
REMARK    2  A    between atoms: C_3  and  C_5
REMARK    3  A    between atoms: C_5  and  C_6
REMARK    4  A    between atoms: C_6  and  C_7
REMARK    5  A    between atoms: C_7  and  C_8
REMARK    6  A    between atoms: C_8  and  C_9
REMARK    7  A    between atoms: C_10  and  C_11
REMARK    8  A    between atoms: C_14  and  C_15
REMARK    9  A    between atoms: C_18  and  O_21
REMARK   10  A    between atoms: C_20  and  O_23
REMARK                            x       y       z     vdW  Elec       q    Type
REMARK                         _______ _______ _______ _____ _____    ______ ____
ROOT
ATOM      1  O   UNL     1      35.202 -16.708 -24.012  0.00  0.00    -0.275 OA
ATOM      2  N   UNL     1      35.290 -17.107 -21.722  0.00  0.00    -0.300 N 
ATOM      3  C   UNL     1      35.009 -16.355 -22.851  0.00  0.00    +0.223 C 
ATOM      4  H   UNL     1      35.091 -16.719 -20.839  0.00  0.00    +0.150 HD
ENDROOT
BRANCH   3   5
ATOM      5  C   UNL     1      34.422 -14.996 -22.522  0.00  0.00    +0.085 C 
BRANCH   5   6
ATOM      6  C   UNL     1      33.987 -14.883 -21.062  0.00  0.00    +0.010 C 
BRANCH   6   7
ATOM      7  C   UNL     1      32.725 -14.027 -20.895  0.00  0.00    +0.005 C 
BRANCH   7   8
ATOM      8  C   UNL     1      32.695 -12.803 -21.817  0.00  0.00    +0.026 C 
BRANCH   8   9
ATOM      9  C   UNL     1      31.351 -12.136 -21.872  0.00  0.00    -0.031 C 
ATOM     10  C   UNL     1      30.989 -11.122 -21.069  0.00  0.00    -0.031 C 
BRANCH  10  11
ATOM     11  C   UNL     1      31.889 -10.528 -20.015  0.00  0.00    +0.022 C 
ATOM     12  C   UNL     1      31.330 -10.817 -18.622  0.00  0.00    +0.005 C 
ATOM     13  C   UNL     1      32.035  -9.023 -20.234  0.00  0.00    +0.005 C 
ENDBRANCH  10  11
ENDBRANCH   8   9
ENDBRANCH   7   8
ENDBRANCH   6   7
ENDBRANCH   5   6
ENDBRANCH   3   5
BRANCH   2  14
ATOM     14  C   UNL     1      35.860 -18.433 -21.779  0.00  0.00    +0.116 C 
BRANCH  14  15
ATOM     15  C   UNL     1      35.038 -19.432 -21.018  0.00  0.00    +0.001 C 
ATOM     16  C   UNL     1      35.664 -20.421 -20.259  0.00  0.00    +0.037 C 
ATOM     17  C   UNL     1      33.644 -19.369 -21.068  0.00  0.00    +0.001 C 
ATOM     18  C   UNL     1      34.899 -21.347 -19.551  0.00  0.00    +0.172 C 
ATOM     19  C   UNL     1      32.880 -20.297 -20.360  0.00  0.00    +0.040 C 
ATOM     20  C   UNL     1      33.507 -21.285 -19.602  0.00  0.00    +0.168 C 
BRANCH  18  21
ATOM     21  O   UNL     1      35.523 -22.308 -18.814  0.00  0.00    -0.468 OA
ATOM     22  C   UNL     1      36.459 -21.866 -17.833  0.00  0.00    +0.253 C 
ENDBRANCH  18  21
BRANCH  20  23
ATOM     23  O   UNL     1      32.748 -22.184 -18.915  0.00  0.00    -0.503 OA
ATOM     24  H   UNL     1      32.502 -22.009 -18.027  0.00  0.00    +0.292 HD
ENDBRANCH  20  23
ENDBRANCH  14  15
ENDBRANCH   2  14
TORSDOF 10
ENDMDL
MODEL 3
REMARK VINA RESULT:      -8.6      2.283      3.348
REMARK  Name = 1548942
REMARK  10 active torsions:
REMARK  status: ('A' for Active; 'I' for Inactive)
REMARK    1  A    between atoms: N_2  and  C_14
REMARK    2  A    between atoms: C_3  and  C_5
REMARK    3  A    between atoms: C_5  and  C_6
REMARK    4  A    between atoms: C_6  and  C_7
REMARK    5  A    between atoms: C_7  and  C_8
REMARK    6  A    between atoms: C_8  and  C_9
REMARK    7  A    between atoms: C_10  and  C_11
REMARK    8  A    between atoms: C_14  and  C_15
REMARK    9  A    between atoms: C_18  and  O_21
REMARK   10  A    between atoms: C_20  and  O_23
REMARK                            x       y       z     vdW  Elec       q    Type
REMARK                         _______ _______ _______ _____ _____    ______ ____
ROOT
ATOM      1  O   UNL     1      35.070 -16.275 -20.271  0.00  0.00    -0.275 OA
ATOM      2  N   UNL     1      34.805 -17.474 -22.246  0.00  0.00    -0.300 N 
ATOM      3  C   UNL     1      34.587 -16.405 -21.393  0.00  0.00    +0.223 C 
ATOM      4  H   UNL     1      34.364 -17.469 -23.126  0.00  0.00    +0.150 HD
ENDROOT
BRANCH   3   5
ATOM      5  C   UNL     1      33.655 -15.362 -21.981  0.00  0.00    +0.085 C 
BRANCH   5   6
ATOM      6  C   UNL     1      34.408 -14.180 -22.589  0.00  0.00    +0.010 C 
BRANCH   6   7
ATOM      7  C   UNL     1      33.674 -13.580 -23.795  0.00  0.00    +0.005 C 
BRANCH   7   8
ATOM      8  C   UNL     1      33.470 -12.065 -23.690  0.00  0.00    +0.026 C 
BRANCH   8   9
ATOM      9  C   UNL     1      34.209 -11.294 -24.746  0.00  0.00    -0.031 C 
ATOM     10  C   UNL     1      34.436  -9.972 -24.681  0.00  0.00    -0.031 C 
BRANCH  10  11
ATOM     11  C   UNL     1      33.978  -9.100 -23.540  0.00  0.00    +0.022 C 
ATOM     12  C   UNL     1      32.484  -8.803 -23.671  0.00  0.00    +0.005 C 
ATOM     13  C   UNL     1      34.784  -7.801 -23.513  0.00  0.00    +0.005 C 
ENDBRANCH  10  11
ENDBRANCH   8   9
ENDBRANCH   7   8
ENDBRANCH   6   7
ENDBRANCH   5   6
ENDBRANCH   3   5
BRANCH   2  14
ATOM     14  C   UNL     1      35.652 -18.595 -21.906  0.00  0.00    +0.116 C 
BRANCH  14  15
ATOM     15  C   UNL     1      34.929 -19.611 -21.071  0.00  0.00    +0.001 C 
ATOM     16  C   UNL     1      35.650 -20.508 -20.281  0.00  0.00    +0.037 C 
ATOM     17  C   UNL     1      33.534 -19.660 -21.084  0.00  0.00    +0.001 C 
ATOM     18  C   UNL     1      34.977 -21.451 -19.506  0.00  0.00    +0.172 C 
ATOM     19  C   UNL     1      32.863 -20.605 -20.309  0.00  0.00    +0.040 C 
ATOM     20  C   UNL     1      33.584 -21.500 -19.519  0.00  0.00    +0.168 C 
BRANCH  18  21
ATOM     21  O   UNL     1      35.693 -22.321 -18.739  0.00  0.00    -0.468 OA
ATOM     22  C   UNL     1      36.584 -21.756 -17.779  0.00  0.00    +0.253 C 
ENDBRANCH  18  21
BRANCH  20  23
ATOM     23  O   UNL     1      32.915 -22.417 -18.766  0.00  0.00    -0.503 OA
ATOM     24  H   UNL     1      32.050 -22.683 -19.009  0.00  0.00    +0.292 HD
ENDBRANCH  20  23
ENDBRANCH  14  15
ENDBRANCH   2  14
TORSDOF 10
ENDMDL
MODEL 4
REMARK VINA RESULT:      -8.5      1.091      2.949
REMARK  Name = 1548942
REMARK  10 active torsions:
REMARK  status: ('A' for Active; 'I' for Inactive)
REMARK    1  A    between atoms: N_2  and  C_14
REMARK    2  A    between atoms: C_3  and  C_5
REMARK    3  A    between atoms: C_5  and  C_6
REMARK    4  A    between atoms: C_6  and  C_7
REMARK    5  A    between atoms: C_7  and  C_8
REMARK    6  A    between atoms: C_8  and  C_9
REMARK    7  A    between atoms: C_10  and  C_11
REMARK    8  A    between atoms: C_14  and  C_15
REMARK    9  A    between atoms: C_18  and  O_21
REMARK   10  A    between atoms: C_20  and  O_23
REMARK                            x       y       z     vdW  Elec       q    Type
REMARK                         _______ _______ _______ _____ _____    ______ ____
ROOT
ATOM      1  O   UNL     1      35.233 -15.857 -22.796  0.00  0.00    -0.275 OA
ATOM      2  N   UNL     1      34.904 -17.176 -20.909  0.00  0.00    -0.300 N 
ATOM      3  C   UNL     1      34.913 -15.985 -21.617  0.00  0.00    +0.223 C 
ATOM      4  H   UNL     1      34.626 -17.157 -19.964  0.00  0.00    +0.150 HD
ENDROOT
BRANCH   3   5
ATOM      5  C   UNL     1      34.480 -14.798 -20.779  0.00  0.00    +0.085 C 
BRANCH   5   6
ATOM      6  C   UNL     1      32.963 -14.718 -20.616  0.00  0.00    +0.010 C 
BRANCH   6   7
ATOM      7  C   UNL     1      32.367 -13.489 -21.316  0.00  0.00    +0.005 C 
BRANCH   7   8
ATOM      8  C   UNL     1      32.363 -13.602 -22.844  0.00  0.00    +0.026 C 
BRANCH   8   9
ATOM      9  C   UNL     1      33.497 -12.864 -23.494  0.00  0.00    -0.031 C 
ATOM     10  C   UNL     1      33.799 -12.962 -24.799  0.00  0.00    -0.031 C 
BRANCH  10  11
ATOM     11  C   UNL     1      33.036 -13.824 -25.771  0.00  0.00    +0.022 C 
ATOM     12  C   UNL     1      33.474 -15.283 -25.639  0.00  0.00    +0.005 C 
ATOM     13  C   UNL     1      33.251 -13.326 -27.200  0.00  0.00    +0.005 C 
ENDBRANCH  10  11
ENDBRANCH   8   9
ENDBRANCH   7   8
ENDBRANCH   6   7
ENDBRANCH   5   6
ENDBRANCH   3   5
BRANCH   2  14
ATOM     14  C   UNL     1      35.283 -18.443 -21.490  0.00  0.00    +0.116 C 
BRANCH  14  15
ATOM     15  C   UNL     1      34.687 -19.603 -20.746  0.00  0.00    +0.001 C 
ATOM     16  C   UNL     1      35.511 -20.476 -20.035  0.00  0.00    +0.037 C 
ATOM     17  C   UNL     1      33.307 -19.807 -20.764  0.00  0.00    +0.001 C 
ATOM     18  C   UNL     1      34.957 -21.552 -19.344  0.00  0.00    +0.172 C 
ATOM     19  C   UNL     1      32.753 -20.885 -20.073  0.00  0.00    +0.040 C 
ATOM     20  C   UNL     1      33.577 -21.756 -19.363  0.00  0.00    +0.168 C 
BRANCH  18  21
ATOM     21  O   UNL     1      35.772 -22.397 -18.654  0.00  0.00    -0.468 OA
ATOM     22  C   UNL     1      36.729 -21.803 -17.778  0.00  0.00    +0.253 C 
ENDBRANCH  18  21
BRANCH  20  23
ATOM     23  O   UNL     1      33.023 -22.804 -18.691  0.00  0.00    -0.503 OA
ATOM     24  H   UNL     1      33.492 -23.213 -17.991  0.00  0.00    +0.292 HD
ENDBRANCH  20  23
ENDBRANCH  14  15
ENDBRANCH   2  14
TORSDOF 10
ENDMDL
MODEL 5
REMARK VINA RESULT:      -8.4      3.387      8.451
REMARK  Name = 1548942
REMARK  10 active torsions:
REMARK  status: ('A' for Active; 'I' for Inactive)
REMARK    1  A    between atoms: N_2  and  C_14
REMARK    2  A    between atoms: C_3  and  C_5
REMARK    3  A    between atoms: C_5  and  C_6
REMARK    4  A    between atoms: C_6  and  C_7
REMARK    5  A    between atoms: C_7  and  C_8
REMARK    6  A    between atoms: C_8  and  C_9
REMARK    7  A    between atoms: C_10  and  C_11
REMARK    8  A    between atoms: C_14  and  C_15
REMARK    9  A    between atoms: C_18  and  O_21
REMARK   10  A    between atoms: C_20  and  O_23
REMARK                            x       y       z     vdW  Elec       q    Type
REMARK                         _______ _______ _______ _____ _____    ______ ____
ROOT
ATOM      1  O   UNL     1      36.028 -21.505 -19.661  0.00  0.00    -0.275 OA
ATOM      2  N   UNL     1      34.745 -19.789 -20.564  0.00  0.00    -0.300 N 
ATOM      3  C   UNL     1      34.943 -20.964 -19.860  0.00  0.00    +0.223 C 
ATOM      4  H   UNL     1      33.827 -19.448 -20.659  0.00  0.00    +0.150 HD
ENDROOT
BRANCH   3   5
ATOM      5  C   UNL     1      33.652 -21.561 -19.334  0.00  0.00    +0.085 C 
BRANCH   5   6
ATOM      6  C   UNL     1      33.830 -22.992 -18.829  0.00  0.00    +0.010 C 
BRANCH   6   7
ATOM      7  C   UNL     1      33.627 -23.103 -17.312  0.00  0.00    +0.005 C 
BRANCH   7   8
ATOM      8  C   UNL     1      32.152 -23.111 -16.897  0.00  0.00    +0.026 C 
BRANCH   8   9
ATOM      9  C   UNL     1      31.955 -23.033 -15.410  0.00  0.00    -0.031 C 
ATOM     10  C   UNL     1      30.801 -23.335 -14.794  0.00  0.00    -0.031 C 
BRANCH  10  11
ATOM     11  C   UNL     1      29.560 -23.789 -15.520  0.00  0.00    +0.022 C 
ATOM     12  C   UNL     1      28.547 -22.647 -15.598  0.00  0.00    +0.005 C 
ATOM     13  C   UNL     1      28.951 -25.000 -14.815  0.00  0.00    +0.005 C 
ENDBRANCH  10  11
ENDBRANCH   8   9
ENDBRANCH   7   8
ENDBRANCH   6   7
ENDBRANCH   5   6
ENDBRANCH   3   5
BRANCH   2  14
ATOM     14  C   UNL     1      35.823 -19.038 -21.166  0.00  0.00    +0.116 C 
BRANCH  14  15
ATOM     15  C   UNL     1      35.391 -18.345 -22.426  0.00  0.00    +0.001 C 
ATOM     16  C   UNL     1      35.348 -16.952 -22.478  0.00  0.00    +0.037 C 
ATOM     17  C   UNL     1      35.032 -19.096 -23.546  0.00  0.00    +0.001 C 
ATOM     18  C   UNL     1      34.947 -16.309 -23.648  0.00  0.00    +0.172 C 
ATOM     19  C   UNL     1      34.630 -18.453 -24.716  0.00  0.00    +0.040 C 
ATOM     20  C   UNL     1      34.588 -17.060 -24.768  0.00  0.00    +0.168 C 
BRANCH  18  21
ATOM     21  O   UNL     1      34.909 -14.948 -23.687  0.00  0.00    -0.468 OA
ATOM     22  C   UNL     1      34.216 -14.289 -22.628  0.00  0.00    +0.253 C 
ENDBRANCH  18  21
BRANCH  20  23
ATOM     23  O   UNL     1      34.194 -16.444 -25.917  0.00  0.00    -0.503 OA
ATOM     24  H   UNL     1      34.207 -16.913 -26.728  0.00  0.00    +0.292 HD
ENDBRANCH  20  23
ENDBRANCH  14  15
ENDBRANCH   2  14
TORSDOF 10
ENDMDL
MODEL 6
REMARK VINA RESULT:      -8.4      3.954      5.815
REMARK  Name = 1548942
REMARK  10 active torsions:
REMARK  status: ('A' for Active; 'I' for Inactive)
REMARK    1  A    between atoms: N_2  and  C_14
REMARK    2  A    between atoms: C_3  and  C_5
REMARK    3  A    between atoms: C_5  and  C_6
REMARK    4  A    between atoms: C_6  and  C_7
REMARK    5  A    between atoms: C_7  and  C_8
REMARK    6  A    between atoms: C_8  and  C_9
REMARK    7  A    between atoms: C_10  and  C_11
REMARK    8  A    between atoms: C_14  and  C_15
REMARK    9  A    between atoms: C_18  and  O_21
REMARK   10  A    between atoms: C_20  and  O_23
REMARK                            x       y       z     vdW  Elec       q    Type
REMARK                         _______ _______ _______ _____ _____    ______ ____
ROOT
ATOM      1  O   UNL     1      34.962 -22.099 -19.750  0.00  0.00    -0.275 OA
ATOM      2  N   UNL     1      32.997 -22.366 -18.534  0.00  0.00    -0.300 N 
ATOM      3  C   UNL     1      33.801 -21.783 -19.499  0.00  0.00    +0.223 C 
ATOM      4  H   UNL     1      32.079 -22.029 -18.423  0.00  0.00    +0.150 HD
ENDROOT
BRANCH   3   5
ATOM      5  C   UNL     1      33.103 -20.668 -20.253  0.00  0.00    +0.085 C 
BRANCH   5   6
ATOM      6  C   UNL     1      34.044 -19.515 -20.599  0.00  0.00    +0.010 C 
BRANCH   6   7
ATOM      7  C   UNL     1      34.228 -19.347 -22.113  0.00  0.00    +0.005 C 
BRANCH   7   8
ATOM      8  C   UNL     1      34.961 -18.057 -22.496  0.00  0.00    +0.026 C 
BRANCH   8   9
ATOM      9  C   UNL     1      35.241 -17.164 -21.322  0.00  0.00    -0.031 C 
ATOM     10  C   UNL     1      34.638 -15.981 -21.125  0.00  0.00    -0.031 C 
BRANCH  10  11
ATOM     11  C   UNL     1      33.605 -15.404 -22.059  0.00  0.00    +0.022 C 
ATOM     12  C   UNL     1      34.271 -14.471 -23.071  0.00  0.00    +0.005 C 
ATOM     13  C   UNL     1      32.534 -14.657 -21.265  0.00  0.00    +0.005 C 
ENDBRANCH  10  11
ENDBRANCH   8   9
ENDBRANCH   7   8
ENDBRANCH   6   7
ENDBRANCH   5   6
ENDBRANCH   3   5
BRANCH   2  14
ATOM     14  C   UNL     1      33.442 -23.445 -17.683  0.00  0.00    +0.116 C 
BRANCH  14  15
ATOM     15  C   UNL     1      32.747 -23.434 -16.352  0.00  0.00    +0.001 C 
ATOM     16  C   UNL     1      33.437 -23.815 -15.201  0.00  0.00    +0.037 C 
ATOM     17  C   UNL     1      31.411 -23.042 -16.267  0.00  0.00    +0.001 C 
ATOM     18  C   UNL     1      32.790 -23.803 -13.965  0.00  0.00    +0.172 C 
ATOM     19  C   UNL     1      30.765 -23.032 -15.031  0.00  0.00    +0.040 C 
ATOM     20  C   UNL     1      31.455 -23.412 -13.880  0.00  0.00    +0.168 C 
BRANCH  18  21
ATOM     21  O   UNL     1      33.474 -24.177 -12.848  0.00  0.00    -0.468 OA
ATOM     22  C   UNL     1      34.897 -24.087 -12.898  0.00  0.00    +0.253 C 
ENDBRANCH  18  21
BRANCH  20  23
ATOM     23  O   UNL     1      30.812 -23.397 -12.679  0.00  0.00    -0.503 OA
ATOM     24  H   UNL     1      30.710 -22.591 -12.212  0.00  0.00    +0.292 HD
ENDBRANCH  20  23
ENDBRANCH  14  15
ENDBRANCH   2  14
TORSDOF 10
ENDMDL
MODEL 7
REMARK VINA RESULT:      -8.4      4.142      6.671
REMARK  Name = 1548942
REMARK  10 active torsions:
REMARK  status: ('A' for Active; 'I' for Inactive)
REMARK    1  A    between atoms: N_2  and  C_14
REMARK    2  A    between atoms: C_3  and  C_5
REMARK    3  A    between atoms: C_5  and  C_6
REMARK    4  A    between atoms: C_6  and  C_7
REMARK    5  A    between atoms: C_7  and  C_8
REMARK    6  A    between atoms: C_8  and  C_9
REMARK    7  A    between atoms: C_10  and  C_11
REMARK    8  A    between atoms: C_14  and  C_15
REMARK    9  A    between atoms: C_18  and  O_21
REMARK   10  A    between atoms: C_20  and  O_23
REMARK                            x       y       z     vdW  Elec       q    Type
REMARK                         _______ _______ _______ _____ _____    ______ ____
ROOT
ATOM      1  O   UNL     1      32.606 -10.695 -22.936  0.00  0.00    -0.275 OA
ATOM      2  N   UNL     1      31.911 -12.862 -22.459  0.00  0.00    -0.300 N 
ATOM      3  C   UNL     1      31.877 -11.483 -22.339  0.00  0.00    +0.223 C 
ATOM      4  H   UNL     1      31.275 -13.395 -21.929  0.00  0.00    +0.150 HD
ENDROOT
BRANCH   3   5
ATOM      5  C   UNL     1      30.821 -11.002 -21.362  0.00  0.00    +0.085 C 
BRANCH   5   6
ATOM      6  C   UNL     1      31.239 -11.195 -19.905  0.00  0.00    +0.010 C 
BRANCH   6   7
ATOM      7  C   UNL     1      32.199 -10.099 -19.425  0.00  0.00    +0.005 C 
BRANCH   7   8
ATOM      8  C   UNL     1      31.781  -8.691 -19.865  0.00  0.00    +0.026 C 
BRANCH   8   9
ATOM      9  C   UNL     1      32.854  -7.967 -20.626  0.00  0.00    -0.031 C 
ATOM     10  C   UNL     1      32.632  -7.291 -21.765  0.00  0.00    -0.031 C 
BRANCH  10  11
ATOM     11  C   UNL     1      31.279  -7.175 -22.418  0.00  0.00    +0.022 C 
ATOM     12  C   UNL     1      31.372  -7.561 -23.895  0.00  0.00    +0.005 C 
ATOM     13  C   UNL     1      30.741  -5.752 -22.268  0.00  0.00    +0.005 C 
ENDBRANCH  10  11
ENDBRANCH   8   9
ENDBRANCH   7   8
ENDBRANCH   6   7
ENDBRANCH   5   6
ENDBRANCH   3   5
BRANCH   2  14
ATOM     14  C   UNL     1      32.836 -13.556 -23.325  0.00  0.00    +0.116 C 
BRANCH  14  15
ATOM     15  C   UNL     1      33.567 -14.652 -22.604  0.00  0.00    +0.001 C 
ATOM     16  C   UNL     1      34.193 -15.668 -23.326  0.00  0.00    +0.037 C 
ATOM     17  C   UNL     1      33.620 -14.653 -21.209  0.00  0.00    +0.001 C 
ATOM     18  C   UNL     1      34.872 -16.684 -22.655  0.00  0.00    +0.172 C 
ATOM     19  C   UNL     1      34.298 -15.671 -20.539  0.00  0.00    +0.040 C 
ATOM     20  C   UNL     1      34.925 -16.686 -21.262  0.00  0.00    +0.168 C 
BRANCH  18  21
ATOM     21  O   UNL     1      35.479 -17.671 -23.372  0.00  0.00    -0.468 OA
ATOM     22  C   UNL     1      34.670 -18.777 -23.767  0.00  0.00    +0.253 C 
ENDBRANCH  18  21
BRANCH  20  23
ATOM     23  O   UNL     1      35.585 -17.674 -20.595  0.00  0.00    -0.503 OA
ATOM     24  H   UNL     1      36.505 -17.791 -20.722  0.00  0.00    +0.292 HD
ENDBRANCH  20  23
ENDBRANCH  14  15
ENDBRANCH   2  14
TORSDOF 10
ENDMDL
MODEL 8
REMARK VINA RESULT:      -8.3      4.516      6.678
REMARK  Name = 1548942
REMARK  10 active torsions:
REMARK  status: ('A' for Active; 'I' for Inactive)
REMARK    1  A    between atoms: N_2  and  C_14
REMARK    2  A    between atoms: C_3  and  C_5
REMARK    3  A    between atoms: C_5  and  C_6
REMARK    4  A    between atoms: C_6  and  C_7
REMARK    5  A    between atoms: C_7  and  C_8
REMARK    6  A    between atoms: C_8  and  C_9
REMARK    7  A    between atoms: C_10  and  C_11
REMARK    8  A    between atoms: C_14  and  C_15
REMARK    9  A    between atoms: C_18  and  O_21
REMARK   10  A    between atoms: C_20  and  O_23
REMARK                            x       y       z     vdW  Elec       q    Type
REMARK                         _______ _______ _______ _____ _____    ______ ____
ROOT
ATOM      1  O   UNL     1      33.939 -11.704 -26.230  0.00  0.00    -0.275 OA
ATOM      2  N   UNL     1      34.017 -12.316 -23.988  0.00  0.00    -0.300 N 
ATOM      3  C   UNL     1      34.259 -11.480 -25.066  0.00  0.00    +0.223 C 
ATOM      4  H   UNL     1      34.321 -12.030 -23.096  0.00  0.00    +0.150 HD
ENDROOT
BRANCH   3   5
ATOM      5  C   UNL     1      34.990 -10.210 -24.674  0.00  0.00    +0.085 C 
BRANCH   5   6
ATOM      6  C   UNL     1      34.166  -9.323 -23.742  0.00  0.00    +0.010 C 
BRANCH   6   7
ATOM      7  C   UNL     1      34.723  -7.896 -23.654  0.00  0.00    +0.005 C 
BRANCH   7   8
ATOM      8  C   UNL     1      33.716  -6.824 -24.086  0.00  0.00    +0.026 C 
BRANCH   8   9
ATOM      9  C   UNL     1      32.296  -7.311 -24.084  0.00  0.00    -0.031 C 
ATOM     10  C   UNL     1      31.388  -6.955 -23.161  0.00  0.00    -0.031 C 
BRANCH  10  11
ATOM     11  C   UNL     1      31.683  -6.022 -22.015  0.00  0.00    +0.022 C 
ATOM     12  C   UNL     1      32.090  -6.820 -20.776  0.00  0.00    +0.005 C 
ATOM     13  C   UNL     1      30.462  -5.151 -21.716  0.00  0.00    +0.005 C 
ENDBRANCH  10  11
ENDBRANCH   8   9
ENDBRANCH   7   8
ENDBRANCH   6   7
ENDBRANCH   5   6
ENDBRANCH   3   5
BRANCH   2  14
ATOM     14  C   UNL     1      33.340 -13.586 -24.111  0.00  0.00    +0.116 C 
BRANCH  14  15
ATOM     15  C   UNL     1      33.906 -14.617 -23.178  0.00  0.00    +0.001 C 
ATOM     16  C   UNL     1      34.510 -15.767 -23.688  0.00  0.00    +0.037 C 
ATOM     17  C   UNL     1      33.829 -14.424 -21.798  0.00  0.00    +0.001 C 
ATOM     18  C   UNL     1      35.036 -16.722 -22.820  0.00  0.00    +0.172 C 
ATOM     19  C   UNL     1      34.355 -15.382 -20.930  0.00  0.00    +0.040 C 
ATOM     20  C   UNL     1      34.958 -16.530 -21.441  0.00  0.00    +0.168 C 
BRANCH  18  21
ATOM     21  O   UNL     1      35.622 -17.841 -23.331  0.00  0.00    -0.468 OA
ATOM     22  C   UNL     1      34.757 -18.836 -23.875  0.00  0.00    +0.253 C 
ENDBRANCH  18  21
BRANCH  20  23
ATOM     23  O   UNL     1      35.468 -17.457 -20.582  0.00  0.00    -0.503 OA
ATOM     24  H   UNL     1      35.084 -17.573 -19.735  0.00  0.00    +0.292 HD
ENDBRANCH  20  23
ENDBRANCH  14  15
ENDBRANCH   2  14
TORSDOF 10
ENDMDL
MODEL 9
REMARK VINA RESULT:      -8.3      3.698      5.851
REMARK  Name = 1548942
REMARK  10 active torsions:
REMARK  status: ('A' for Active; 'I' for Inactive)
REMARK    1  A    between atoms: N_2  and  C_14
REMARK    2  A    between atoms: C_3  and  C_5
REMARK    3  A    between atoms: C_5  and  C_6
REMARK    4  A    between atoms: C_6  and  C_7
REMARK    5  A    between atoms: C_7  and  C_8
REMARK    6  A    between atoms: C_8  and  C_9
REMARK    7  A    between atoms: C_10  and  C_11
REMARK    8  A    between atoms: C_14  and  C_15
REMARK    9  A    between atoms: C_18  and  O_21
REMARK   10  A    between atoms: C_20  and  O_23
REMARK                            x       y       z     vdW  Elec       q    Type
REMARK                         _______ _______ _______ _____ _____    ______ ____
ROOT
ATOM      1  O   UNL     1      35.063 -21.430 -19.777  0.00  0.00    -0.275 OA
ATOM      2  N   UNL     1      32.998 -22.057 -18.909  0.00  0.00    -0.300 N 
ATOM      3  C   UNL     1      33.850 -21.266 -19.661  0.00  0.00    +0.223 C 
ATOM      4  H   UNL     1      32.041 -21.829 -18.892  0.00  0.00    +0.150 HD
ENDROOT
BRANCH   3   5
ATOM      5  C   UNL     1      33.135 -20.124 -20.357  0.00  0.00    +0.085 C 
BRANCH   5   6
ATOM      6  C   UNL     1      33.929 -19.568 -21.538  0.00  0.00    +0.010 C 
BRANCH   6   7
ATOM      7  C   UNL     1      34.723 -18.310 -21.165  0.00  0.00    +0.005 C 
BRANCH   7   8
ATOM      8  C   UNL     1      33.922 -17.014 -21.334  0.00  0.00    +0.026 C 
BRANCH   8   9
ATOM      9  C   UNL     1      34.756 -15.862 -21.817  0.00  0.00    -0.031 C 
ATOM     10  C   UNL     1      34.762 -15.428 -23.087  0.00  0.00    -0.031 C 
BRANCH  10  11
ATOM     11  C   UNL     1      33.932 -16.042 -24.185  0.00  0.00    +0.022 C 
ATOM     12  C   UNL     1      34.772 -17.036 -24.988  0.00  0.00    +0.005 C 
ATOM     13  C   UNL     1      33.373 -14.951 -25.097  0.00  0.00    +0.005 C 
ENDBRANCH  10  11
ENDBRANCH   8   9
ENDBRANCH   7   8
ENDBRANCH   6   7
ENDBRANCH   5   6
ENDBRANCH   3   5
BRANCH   2  14
ATOM     14  C   UNL     1      33.447 -23.202 -18.151  0.00  0.00    +0.116 C 
BRANCH  14  15
ATOM     15  C   UNL     1      32.835 -23.244 -16.781  0.00  0.00    +0.001 C 
ATOM     16  C   UNL     1      31.479 -22.959 -16.612  0.00  0.00    +0.037 C 
ATOM     17  C   UNL     1      33.622 -23.568 -15.675  0.00  0.00    +0.001 C 
ATOM     18  C   UNL     1      30.911 -22.999 -15.340  0.00  0.00    +0.172 C 
ATOM     19  C   UNL     1      33.053 -23.606 -14.402  0.00  0.00    +0.040 C 
ATOM     20  C   UNL     1      31.698 -23.322 -14.234  0.00  0.00    +0.168 C 
BRANCH  18  21
ATOM     21  O   UNL     1      29.586 -22.719 -15.188  0.00  0.00    -0.468 OA
ATOM     22  C   UNL     1      28.661 -23.619 -15.795  0.00  0.00    +0.253 C 
ENDBRANCH  18  21
BRANCH  20  23
ATOM     23  O   UNL     1      31.155 -23.364 -12.986  0.00  0.00    -0.503 OA
ATOM     24  H   UNL     1      31.249 -24.133 -12.459  0.00  0.00    +0.292 HD
ENDBRANCH  20  23
ENDBRANCH  14  15
ENDBRANCH   2  14
TORSDOF 10
ENDMDL
