MODEL 1
REMARK VINA RESULT:      -6.7      0.000      0.000
REMARK  Name = 124992
REMARK  11 active torsions:
REMARK  status: ('A' for Active; 'I' for Inactive)
REMARK    1  A    between atoms: C_1  and  N_3
REMARK    2  A    between atoms: C_1  and  C_13
REMARK    3  A    between atoms: C_4  and  C_6
REMARK    4  A    between atoms: C_6  and  P_7
REMARK    5  A    between atoms: P_7  and  O_9
REMARK    6  A    between atoms: P_7  and  O_11
REMARK    7  A    between atoms: C_13  and  C_14
REMARK    8  A    between atoms: C_14  and  CA_15
REMARK    9  A    between atoms: CA_15  and  N_16
REMARK   10  A    between atoms: CA_15  and  C_21
REMARK   11  A    between atoms: C_21  and  O_22
REMARK                            x       y       z     vdW  Elec       q    Type
REMARK                         _______ _______ _______ _____ _____    ______ ____
ROOT
ATOM      1  C   UNL     1      36.397 -25.003 -12.368  0.00  0.00    +0.089 C 
ENDROOT
BRANCH   1   3
ATOM      2  O   UNL     1      36.026 -22.921 -14.349  0.00  0.00    -0.274 OA
ATOM      3  N   UNL     1      35.319 -24.880 -13.311  0.00  0.00    -0.304 N 
ATOM      4  C   UNL     1      35.222 -23.842 -14.230  0.00  0.00    +0.235 C 
ATOM      5  H   UNL     1      34.614 -25.567 -13.306  0.00  0.00    +0.149 HD
BRANCH   4   6
ATOM      6  C   UNL     1      33.995 -23.962 -15.097  0.00  0.00    +0.200 C 
BRANCH   6   7
ATOM      7  P   UNL     1      32.443 -23.954 -14.177  0.00  0.00    +0.346 P 
ATOM      8  O   UNL     1      31.305 -23.351 -14.925  0.00  0.00    -0.258 OA
BRANCH   7   9
ATOM      9  O   UNL     1      32.854 -23.221 -12.803  0.00  0.00    -0.323 OA
ATOM     10  H   UNL     1      33.695 -23.583 -12.482  0.00  0.00    +0.220 HD
ENDBRANCH   7   9
BRANCH   7  11
ATOM     11  O   UNL     1      32.277 -25.500 -13.757  0.00  0.00    -0.323 OA
ATOM     12  H   UNL     1      33.138 -25.858 -13.492  0.00  0.00    +0.220 HD
ENDBRANCH   7  11
ENDBRANCH   6   7
ENDBRANCH   4   6
ENDBRANCH   1   3
BRANCH   1  13
ATOM     13  C   UNL     1      37.269 -26.229 -12.629  0.00  0.00    +0.020 C 
BRANCH  13  14
ATOM     14  C   UNL     1      37.810 -26.264 -14.068  0.00  0.00    -0.009 C 
BRANCH  14  15
ATOM     15  CA  UNL     1      38.941 -25.264 -14.349  0.00  0.00    +0.036 C 
BRANCH  15  16
ATOM     16  N   UNL     1      38.583 -24.334 -15.419  0.00  0.00    +0.389 N 
ATOM     17  H1  UNL     1      37.599 -24.454 -15.659  0.00  0.00    -0.088 HD
ATOM     18  H2  UNL     1      39.159 -24.521 -16.239  0.00  0.00    -0.088 HD
ATOM     19  H3  UNL     1      38.742 -23.376 -15.104  0.00  0.00    -0.088 HD
ENDBRANCH  15  16
BRANCH  15  21
ATOM     20  OXT UNL     1      41.017 -26.494 -13.968  0.00  0.00    -0.253 OA
ATOM     21  C   UNL     1      40.232 -25.962 -14.742  0.00  0.00    +0.293 C 
BRANCH  21  22
ATOM     22  O   UNL     1      40.433 -25.937 -16.086  0.00  0.00    -0.482 OA
ATOM     23  H   UNL     1      40.510 -25.118 -16.533  0.00  0.00    +0.295 HD
ENDBRANCH  21  22
ENDBRANCH  15  21
ENDBRANCH  14  15
ENDBRANCH  13  14
ENDBRANCH   1  13
TORSDOF 11
ENDMDL
MODEL 2
REMARK VINA RESULT:      -6.7      3.355      5.655
REMARK  Name = 124992
REMARK  11 active torsions:
REMARK  status: ('A' for Active; 'I' for Inactive)
REMARK    1  A    between atoms: C_1  and  N_3
REMARK    2  A    between atoms: C_1  and  C_13
REMARK    3  A    between atoms: C_4  and  C_6
REMARK    4  A    between atoms: C_6  and  P_7
REMARK    5  A    between atoms: P_7  and  O_9
REMARK    6  A    between atoms: P_7  and  O_11
REMARK    7  A    between atoms: C_13  and  C_14
REMARK    8  A    between atoms: C_14  and  CA_15
REMARK    9  A    between atoms: CA_15  and  N_16
REMARK   10  A    between atoms: CA_15  and  C_21
REMARK   11  A    between atoms: C_21  and  O_22
REMARK                            x       y       z     vdW  Elec       q    Type
REMARK                         _______ _______ _______ _____ _____    ______ ____
ROOT
ATOM      1  C   UNL     1      35.286 -24.980 -15.172  0.00  0.00    +0.089 C 
ENDROOT
BRANCH   1   3
ATOM      2  O   UNL     1      36.797 -27.248 -16.157  0.00  0.00    -0.274 OA
ATOM      3  N   UNL     1      36.560 -25.449 -14.700  0.00  0.00    -0.304 N 
ATOM      4  C   UNL     1      37.215 -26.552 -15.235  0.00  0.00    +0.235 C 
ATOM      5  H   UNL     1      36.992 -24.964 -13.960  0.00  0.00    +0.149 HD
BRANCH   4   6
ATOM      6  C   UNL     1      38.533 -26.819 -14.554  0.00  0.00    +0.200 C 
BRANCH   6   7
ATOM      7  P   UNL     1      39.588 -25.363 -14.403  0.00  0.00    +0.346 P 
ATOM      8  O   UNL     1      41.044 -25.668 -14.467  0.00  0.00    -0.258 OA
BRANCH   7   9
ATOM      9  O   UNL     1      39.065 -24.690 -13.037  0.00  0.00    -0.323 OA
ATOM     10  H   UNL     1      38.988 -25.371 -12.350  0.00  0.00    +0.220 HD
ENDBRANCH   7   9
BRANCH   7  11
ATOM     11  O   UNL     1      39.015 -24.395 -15.556  0.00  0.00    -0.323 OA
ATOM     12  H   UNL     1      38.727 -24.928 -16.313  0.00  0.00    +0.220 HD
ENDBRANCH   7  11
ENDBRANCH   6   7
ENDBRANCH   4   6
ENDBRANCH   1   3
BRANCH   1  13
ATOM     13  C   UNL     1      34.829 -23.708 -14.462  0.00  0.00    +0.020 C 
BRANCH  13  14
ATOM     14  C   UNL     1      34.357 -23.981 -13.024  0.00  0.00    -0.009 C 
BRANCH  14  15
ATOM     15  CA  UNL     1      35.368 -23.588 -11.937  0.00  0.00    +0.036 C 
BRANCH  15  16
ATOM     16  N   UNL     1      36.603 -23.062 -12.515  0.00  0.00    +0.389 N 
ATOM     17  H1  UNL     1      36.852 -23.608 -13.339  0.00  0.00    -0.088 HD
ATOM     18  H2  UNL     1      37.354 -23.121 -11.827  0.00  0.00    -0.088 HD
ATOM     19  H3  UNL     1      36.464 -22.087 -12.784  0.00  0.00    -0.088 HD
ENDBRANCH  15  16
BRANCH  15  21
ATOM     20  OXT UNL     1      35.300 -24.955  -9.914  0.00  0.00    -0.253 OA
ATOM     21  C   UNL     1      35.728 -24.764 -11.045  0.00  0.00    +0.293 C 
BRANCH  21  22
ATOM     22  O   UNL     1      36.601 -25.611 -11.651  0.00  0.00    -0.482 OA
ATOM     23  H   UNL     1      36.704 -26.486 -11.332  0.00  0.00    +0.295 HD
ENDBRANCH  21  22
ENDBRANCH  15  21
ENDBRANCH  14  15
ENDBRANCH  13  14
ENDBRANCH   1  13
TORSDOF 11
ENDMDL
MODEL 3
REMARK VINA RESULT:      -6.6      3.146      3.765
REMARK  Name = 124992
REMARK  11 active torsions:
REMARK  status: ('A' for Active; 'I' for Inactive)
REMARK    1  A    between atoms: C_1  and  N_3
REMARK    2  A    between atoms: C_1  and  C_13
REMARK    3  A    between atoms: C_4  and  C_6
REMARK    4  A    between atoms: C_6  and  P_7
REMARK    5  A    between atoms: P_7  and  O_9
REMARK    6  A    between atoms: P_7  and  O_11
REMARK    7  A    between atoms: C_13  and  C_14
REMARK    8  A    between atoms: C_14  and  CA_15
REMARK    9  A    between atoms: CA_15  and  N_16
REMARK   10  A    between atoms: CA_15  and  C_21
REMARK   11  A    between atoms: C_21  and  O_22
REMARK                            x       y       z     vdW  Elec       q    Type
REMARK                         _______ _______ _______ _____ _____    ______ ____
ROOT
ATOM      1  C   UNL     1      35.968 -22.595 -15.239  0.00  0.00    +0.089 C 
ENDROOT
BRANCH   1   3
ATOM      2  O   UNL     1      34.134 -23.699 -17.192  0.00  0.00    -0.274 OA
ATOM      3  N   UNL     1      34.556 -22.816 -15.081  0.00  0.00    -0.304 N 
ATOM      4  C   UNL     1      33.750 -23.353 -16.077  0.00  0.00    +0.235 C 
ATOM      5  H   UNL     1      34.139 -22.574 -14.223  0.00  0.00    +0.149 HD
BRANCH   4   6
ATOM      6  C   UNL     1      32.312 -23.478 -15.643  0.00  0.00    +0.200 C 
BRANCH   6   7
ATOM      7  P   UNL     1      32.094 -24.334 -14.070  0.00  0.00    +0.346 P 
ATOM      8  O   UNL     1      30.838 -25.131 -13.990  0.00  0.00    -0.258 OA
BRANCH   7   9
ATOM      9  O   UNL     1      32.246 -23.143 -12.998  0.00  0.00    -0.323 OA
ATOM     10  H   UNL     1      31.963 -22.307 -13.400  0.00  0.00    +0.220 HD
ENDBRANCH   7   9
BRANCH   7  11
ATOM     11  O   UNL     1      33.469 -25.161 -13.928  0.00  0.00    -0.323 OA
ATOM     12  H   UNL     1      33.269 -26.090 -13.732  0.00  0.00    +0.220 HD
ENDBRANCH   7  11
ENDBRANCH   6   7
ENDBRANCH   4   6
ENDBRANCH   1   3
BRANCH   1  13
ATOM     13  C   UNL     1      36.807 -23.750 -14.699  0.00  0.00    +0.020 C 
BRANCH  13  14
ATOM     14  C   UNL     1      37.131 -23.588 -13.205  0.00  0.00    -0.009 C 
BRANCH  14  15
ATOM     15  CA  UNL     1      36.776 -24.806 -12.340  0.00  0.00    +0.036 C 
BRANCH  15  16
ATOM     16  N   UNL     1      36.457 -25.974 -13.160  0.00  0.00    +0.389 N 
ATOM     17  H1  UNL     1      36.831 -26.813 -12.718  0.00  0.00    -0.088 HD
ATOM     18  H2  UNL     1      36.871 -25.863 -14.086  0.00  0.00    -0.088 HD
ATOM     19  H3  UNL     1      35.444 -26.060 -13.250  0.00  0.00    -0.088 HD
ENDBRANCH  15  16
BRANCH  15  21
ATOM     20  OXT UNL     1      35.338 -25.133 -10.393  0.00  0.00    -0.253 OA
ATOM     21  C   UNL     1      35.593 -24.531 -11.428  0.00  0.00    +0.293 C 
BRANCH  21  22
ATOM     22  O   UNL     1      34.821 -23.514 -11.893  0.00  0.00    -0.482 OA
ATOM     23  H   UNL     1      34.877 -22.665 -11.500  0.00  0.00    +0.295 HD
ENDBRANCH  21  22
ENDBRANCH  15  21
ENDBRANCH  14  15
ENDBRANCH  13  14
ENDBRANCH   1  13
TORSDOF 11
ENDMDL
MODEL 4
REMARK VINA RESULT:      -6.5      3.778      7.800
REMARK  Name = 124992
REMARK  11 active torsions:
REMARK  status: ('A' for Active; 'I' for Inactive)
REMARK    1  A    between atoms: C_1  and  N_3
REMARK    2  A    between atoms: C_1  and  C_13
REMARK    3  A    between atoms: C_4  and  C_6
REMARK    4  A    between atoms: C_6  and  P_7
REMARK    5  A    between atoms: P_7  and  O_9
REMARK    6  A    between atoms: P_7  and  O_11
REMARK    7  A    between atoms: C_13  and  C_14
REMARK    8  A    between atoms: C_14  and  CA_15
REMARK    9  A    between atoms: CA_15  and  N_16
REMARK   10  A    between atoms: CA_15  and  C_21
REMARK   11  A    between atoms: C_21  and  O_22
REMARK                            x       y       z     vdW  Elec       q    Type
REMARK                         _______ _______ _______ _____ _____    ______ ____
ROOT
ATOM      1  C   UNL     1      33.165 -23.317 -15.655  0.00  0.00    +0.089 C 
ENDROOT
BRANCH   1   3
ATOM      2  O   UNL     1      35.681 -24.744 -15.482  0.00  0.00    -0.274 OA
ATOM      3  N   UNL     1      34.177 -23.177 -14.645  0.00  0.00    -0.304 N 
ATOM      4  C   UNL     1      35.360 -23.907 -14.641  0.00  0.00    +0.235 C 
ATOM      5  H   UNL     1      34.026 -22.531 -13.917  0.00  0.00    +0.149 HD
BRANCH   4   6
ATOM      6  C   UNL     1      36.242 -23.559 -13.469  0.00  0.00    +0.200 C 
BRANCH   6   7
ATOM      7  P   UNL     1      36.110 -24.711 -12.087  0.00  0.00    +0.346 P 
ATOM      8  O   UNL     1      36.850 -24.275 -10.870  0.00  0.00    -0.258 OA
BRANCH   7   9
ATOM      9  O   UNL     1      36.585 -26.103 -12.743  0.00  0.00    -0.323 OA
ATOM     10  H   UNL     1      35.891 -26.770 -12.625  0.00  0.00    +0.220 HD
ENDBRANCH   7   9
BRANCH   7  11
ATOM     11  O   UNL     1      34.517 -24.883 -11.924  0.00  0.00    -0.323 OA
ATOM     12  H   UNL     1      34.327 -25.398 -11.125  0.00  0.00    +0.220 HD
ENDBRANCH   7  11
ENDBRANCH   6   7
ENDBRANCH   4   6
ENDBRANCH   1   3
BRANCH   1  13
ATOM     13  C   UNL     1      31.755 -23.114 -15.107  0.00  0.00    +0.020 C 
BRANCH  13  14
ATOM     14  C   UNL     1      30.690 -23.132 -16.215  0.00  0.00    -0.009 C 
BRANCH  14  15
ATOM     15  CA  UNL     1      29.243 -23.224 -15.707  0.00  0.00    +0.036 C 
BRANCH  15  16
ATOM     16  N   UNL     1      28.930 -24.566 -15.217  0.00  0.00    +0.389 N 
ATOM     17  H1  UNL     1      28.044 -24.875 -15.615  0.00  0.00    -0.088 HD
ATOM     18  H2  UNL     1      28.859 -24.548 -14.199  0.00  0.00    -0.088 HD
ATOM     19  H3  UNL     1      29.671 -25.211 -15.494  0.00  0.00    -0.088 HD
ENDBRANCH  15  16
BRANCH  15  21
ATOM     20  OXT UNL     1      27.841 -21.742 -17.049  0.00  0.00    -0.253 OA
ATOM     21  C   UNL     1      28.237 -22.870 -16.789  0.00  0.00    +0.293 C 
BRANCH  21  22
ATOM     22  O   UNL     1      27.809 -23.971 -17.462  0.00  0.00    -0.482 OA
ATOM     23  H   UNL     1      27.804 -23.975 -18.399  0.00  0.00    +0.295 HD
ENDBRANCH  21  22
ENDBRANCH  15  21
ENDBRANCH  14  15
ENDBRANCH  13  14
ENDBRANCH   1  13
TORSDOF 11
ENDMDL
MODEL 5
REMARK VINA RESULT:      -6.4      2.526      3.372
REMARK  Name = 124992
REMARK  11 active torsions:
REMARK  status: ('A' for Active; 'I' for Inactive)
REMARK    1  A    between atoms: C_1  and  N_3
REMARK    2  A    between atoms: C_1  and  C_13
REMARK    3  A    between atoms: C_4  and  C_6
REMARK    4  A    between atoms: C_6  and  P_7
REMARK    5  A    between atoms: P_7  and  O_9
REMARK    6  A    between atoms: P_7  and  O_11
REMARK    7  A    between atoms: C_13  and  C_14
REMARK    8  A    between atoms: C_14  and  CA_15
REMARK    9  A    between atoms: CA_15  and  N_16
REMARK   10  A    between atoms: CA_15  and  C_21
REMARK   11  A    between atoms: C_21  and  O_22
REMARK                            x       y       z     vdW  Elec       q    Type
REMARK                         _______ _______ _______ _____ _____    ______ ____
ROOT
ATOM      1  C   UNL     1      36.350 -22.873 -15.503  0.00  0.00    +0.089 C 
ENDROOT
BRANCH   1   3
ATOM      2  O   UNL     1      34.845 -25.136 -14.496  0.00  0.00    -0.274 OA
ATOM      3  N   UNL     1      35.831 -23.052 -14.175  0.00  0.00    -0.304 N 
ATOM      4  C   UNL     1      35.117 -24.176 -13.778  0.00  0.00    +0.235 C 
ATOM      5  H   UNL     1      35.990 -22.342 -13.512  0.00  0.00    +0.149 HD
BRANCH   4   6
ATOM      6  C   UNL     1      34.696 -24.104 -12.333  0.00  0.00    +0.200 C 
BRANCH   6   7
ATOM      7  P   UNL     1      36.053 -24.312 -11.163  0.00  0.00    +0.346 P 
ATOM      8  O   UNL     1      37.033 -23.190 -11.176  0.00  0.00    -0.258 OA
BRANCH   7   9
ATOM      9  O   UNL     1      36.633 -25.762 -11.552  0.00  0.00    -0.323 OA
ATOM     10  H   UNL     1      37.243 -26.064 -10.861  0.00  0.00    +0.220 HD
ENDBRANCH   7   9
BRANCH   7  11
ATOM     11  O   UNL     1      35.282 -24.563  -9.772  0.00  0.00    -0.323 OA
ATOM     12  H   UNL     1      35.207 -23.726  -9.287  0.00  0.00    +0.220 HD
ENDBRANCH   7  11
ENDBRANCH   6   7
ENDBRANCH   4   6
ENDBRANCH   1   3
BRANCH   1  13
ATOM     13  C   UNL     1      37.815 -23.283 -15.622  0.00  0.00    +0.020 C 
BRANCH  13  14
ATOM     14  C   UNL     1      38.261 -24.195 -14.466  0.00  0.00    -0.009 C 
BRANCH  14  15
ATOM     15  CA  UNL     1      38.529 -25.652 -14.872  0.00  0.00    +0.036 C 
BRANCH  15  16
ATOM     16  N   UNL     1      37.848 -26.591 -13.981  0.00  0.00    +0.389 N 
ATOM     17  H1  UNL     1      37.287 -27.238 -14.535  0.00  0.00    -0.088 HD
ATOM     18  H2  UNL     1      37.243 -26.077 -13.342  0.00  0.00    -0.088 HD
ATOM     19  H3  UNL     1      38.541 -27.115 -13.446  0.00  0.00    -0.088 HD
ENDBRANCH  15  16
BRANCH  15  21
ATOM     20  OXT UNL     1      40.680 -26.224 -13.867  0.00  0.00    -0.253 OA
ATOM     21  C   UNL     1      40.011 -25.981 -14.863  0.00  0.00    +0.293 C 
BRANCH  21  22
ATOM     22  O   UNL     1      40.538 -25.980 -16.116  0.00  0.00    -0.482 OA
ATOM     23  H   UNL     1      41.173 -26.625 -16.359  0.00  0.00    +0.295 HD
ENDBRANCH  21  22
ENDBRANCH  15  21
ENDBRANCH  14  15
ENDBRANCH  13  14
ENDBRANCH   1  13
TORSDOF 11
ENDMDL
MODEL 6
REMARK VINA RESULT:      -6.3      3.451      7.318
REMARK  Name = 124992
REMARK  11 active torsions:
REMARK  status: ('A' for Active; 'I' for Inactive)
REMARK    1  A    between atoms: C_1  and  N_3
REMARK    2  A    between atoms: C_1  and  C_13
REMARK    3  A    between atoms: C_4  and  C_6
REMARK    4  A    between atoms: C_6  and  P_7
REMARK    5  A    between atoms: P_7  and  O_9
REMARK    6  A    between atoms: P_7  and  O_11
REMARK    7  A    between atoms: C_13  and  C_14
REMARK    8  A    between atoms: C_14  and  CA_15
REMARK    9  A    between atoms: CA_15  and  N_16
REMARK   10  A    between atoms: CA_15  and  C_21
REMARK   11  A    between atoms: C_21  and  O_22
REMARK                            x       y       z     vdW  Elec       q    Type
REMARK                         _______ _______ _______ _____ _____    ______ ____
ROOT
ATOM      1  C   UNL     1      32.981 -24.553 -14.165  0.00  0.00    +0.089 C 
ENDROOT
BRANCH   1   3
ATOM      2  O   UNL     1      34.975 -24.251 -16.245  0.00  0.00    -0.274 OA
ATOM      3  N   UNL     1      34.407 -24.678 -14.029  0.00  0.00    -0.304 N 
ATOM      4  C   UNL     1      35.292 -24.516 -15.088  0.00  0.00    +0.235 C 
ATOM      5  H   UNL     1      34.775 -24.889 -13.141  0.00  0.00    +0.149 HD
BRANCH   4   6
ATOM      6  C   UNL     1      36.727 -24.699 -14.665  0.00  0.00    +0.200 C 
BRANCH   6   7
ATOM      7  P   UNL     1      37.196 -26.419 -14.388  0.00  0.00    +0.346 P 
ATOM      8  O   UNL     1      38.613 -26.718 -14.736  0.00  0.00    -0.258 OA
BRANCH   7   9
ATOM      9  O   UNL     1      36.078 -27.225 -15.220  0.00  0.00    -0.323 OA
ATOM     10  H   UNL     1      35.426 -27.601 -14.607  0.00  0.00    +0.220 HD
ENDBRANCH   7   9
BRANCH   7  11
ATOM     11  O   UNL     1      36.779 -26.652 -12.850  0.00  0.00    -0.323 OA
ATOM     12  H   UNL     1      35.903 -27.068 -12.812  0.00  0.00    +0.220 HD
ENDBRANCH   7  11
ENDBRANCH   6   7
ENDBRANCH   4   6
ENDBRANCH   1   3
BRANCH   1  13
ATOM     13  C   UNL     1      32.528 -23.100 -14.278  0.00  0.00    +0.020 C 
BRANCH  13  14
ATOM     14  C   UNL     1      31.041 -22.980 -14.654  0.00  0.00    -0.009 C 
BRANCH  14  15
ATOM     15  CA  UNL     1      30.710 -23.408 -16.091  0.00  0.00    +0.036 C 
BRANCH  15  16
ATOM     16  N   UNL     1      31.533 -22.695 -17.067  0.00  0.00    +0.389 N 
ATOM     17  H1  UNL     1      31.278 -21.707 -17.069  0.00  0.00    -0.088 HD
ATOM     18  H2  UNL     1      31.378 -23.088 -17.995  0.00  0.00    -0.088 HD
ATOM     19  H3  UNL     1      32.517 -22.791 -16.818  0.00  0.00    -0.088 HD
ENDBRANCH  15  16
BRANCH  15  21
ATOM     20  OXT UNL     1      28.824 -22.232 -17.101  0.00  0.00    -0.253 OA
ATOM     21  C   UNL     1      29.251 -23.165 -16.435  0.00  0.00    +0.293 C 
BRANCH  21  22
ATOM     22  O   UNL     1      28.441 -24.122 -15.911  0.00  0.00    -0.482 OA
ATOM     23  H   UNL     1      28.469 -24.310 -14.993  0.00  0.00    +0.295 HD
ENDBRANCH  21  22
ENDBRANCH  15  21
ENDBRANCH  14  15
ENDBRANCH  13  14
ENDBRANCH   1  13
TORSDOF 11
ENDMDL
MODEL 7
REMARK VINA RESULT:      -6.3      2.456      3.423
REMARK  Name = 124992
REMARK  11 active torsions:
REMARK  status: ('A' for Active; 'I' for Inactive)
REMARK    1  A    between atoms: C_1  and  N_3
REMARK    2  A    between atoms: C_1  and  C_13
REMARK    3  A    between atoms: C_4  and  C_6
REMARK    4  A    between atoms: C_6  and  P_7
REMARK    5  A    between atoms: P_7  and  O_9
REMARK    6  A    between atoms: P_7  and  O_11
REMARK    7  A    between atoms: C_13  and  C_14
REMARK    8  A    between atoms: C_14  and  CA_15
REMARK    9  A    between atoms: CA_15  and  N_16
REMARK   10  A    between atoms: CA_15  and  C_21
REMARK   11  A    between atoms: C_21  and  O_22
REMARK                            x       y       z     vdW  Elec       q    Type
REMARK                         _______ _______ _______ _____ _____    ______ ____
ROOT
ATOM      1  C   UNL     1      34.579 -23.009 -16.308  0.00  0.00    +0.089 C 
ENDROOT
BRANCH   1   3
ATOM      2  O   UNL     1      31.900 -22.685 -17.362  0.00  0.00    -0.274 OA
ATOM      3  N   UNL     1      33.358 -23.527 -15.755  0.00  0.00    -0.304 N 
ATOM      4  C   UNL     1      32.110 -23.321 -16.332  0.00  0.00    +0.235 C 
ATOM      5  H   UNL     1      33.407 -24.055 -14.926  0.00  0.00    +0.149 HD
BRANCH   4   6
ATOM      6  C   UNL     1      31.003 -23.977 -15.547  0.00  0.00    +0.200 C 
BRANCH   6   7
ATOM      7  P   UNL     1      31.437 -24.344 -13.836  0.00  0.00    +0.346 P 
ATOM      8  O   UNL     1      31.932 -23.163 -13.075  0.00  0.00    -0.258 OA
BRANCH   7   9
ATOM      9  O   UNL     1      32.471 -25.569 -13.991  0.00  0.00    -0.323 OA
ATOM     10  H   UNL     1      33.229 -25.430 -13.402  0.00  0.00    +0.220 HD
ENDBRANCH   7   9
BRANCH   7  11
ATOM     11  O   UNL     1      30.096 -25.037 -13.275  0.00  0.00    -0.323 OA
ATOM     12  H   UNL     1      30.332 -25.790 -12.711  0.00  0.00    +0.220 HD
ENDBRANCH   7  11
ENDBRANCH   6   7
ENDBRANCH   4   6
ENDBRANCH   1   3
BRANCH   1  13
ATOM     13  C   UNL     1      35.713 -22.963 -15.286  0.00  0.00    +0.020 C 
BRANCH  13  14
ATOM     14  C   UNL     1      36.665 -24.163 -15.416  0.00  0.00    -0.009 C 
BRANCH  14  15
ATOM     15  CA  UNL     1      36.065 -25.504 -14.967  0.00  0.00    +0.036 C 
BRANCH  15  16
ATOM     16  N   UNL     1      35.711 -25.486 -13.548  0.00  0.00    +0.389 N 
ATOM     17  H1  UNL     1      34.779 -25.086 -13.436  0.00  0.00    -0.088 HD
ATOM     18  H2  UNL     1      36.388 -24.921 -13.035  0.00  0.00    -0.088 HD
ATOM     19  H3  UNL     1      35.718 -26.438 -13.183  0.00  0.00    -0.088 HD
ENDBRANCH  15  16
BRANCH  15  21
ATOM     20  OXT UNL     1      37.930 -26.994 -14.451  0.00  0.00    -0.253 OA
ATOM     21  C   UNL     1      37.021 -26.661 -15.200  0.00  0.00    +0.293 C 
BRANCH  21  22
ATOM     22  O   UNL     1      36.756 -27.311 -16.364  0.00  0.00    -0.482 OA
ATOM     23  H   UNL     1      37.391 -27.894 -16.731  0.00  0.00    +0.295 HD
ENDBRANCH  21  22
ENDBRANCH  15  21
ENDBRANCH  14  15
ENDBRANCH  13  14
ENDBRANCH   1  13
TORSDOF 11
ENDMDL
MODEL 8
REMARK VINA RESULT:      -6.3      3.770      8.026
REMARK  Name = 124992
REMARK  11 active torsions:
REMARK  status: ('A' for Active; 'I' for Inactive)
REMARK    1  A    between atoms: C_1  and  N_3
REMARK    2  A    between atoms: C_1  and  C_13
REMARK    3  A    between atoms: C_4  and  C_6
REMARK    4  A    between atoms: C_6  and  P_7
REMARK    5  A    between atoms: P_7  and  O_9
REMARK    6  A    between atoms: P_7  and  O_11
REMARK    7  A    between atoms: C_13  and  C_14
REMARK    8  A    between atoms: C_14  and  CA_15
REMARK    9  A    between atoms: CA_15  and  N_16
REMARK   10  A    between atoms: CA_15  and  C_21
REMARK   11  A    between atoms: C_21  and  O_22
REMARK                            x       y       z     vdW  Elec       q    Type
REMARK                         _______ _______ _______ _____ _____    ______ ____
ROOT
ATOM      1  C   UNL     1      33.136 -23.449 -15.660  0.00  0.00    +0.089 C 
ENDROOT
BRANCH   1   3
ATOM      2  O   UNL     1      35.967 -23.891 -16.094  0.00  0.00    -0.274 OA
ATOM      3  N   UNL     1      34.065 -24.086 -14.767  0.00  0.00    -0.304 N 
ATOM      4  C   UNL     1      35.413 -24.256 -15.059  0.00  0.00    +0.235 C 
ATOM      5  H   UNL     1      33.729 -24.419 -13.903  0.00  0.00    +0.149 HD
BRANCH   4   6
ATOM      6  C   UNL     1      36.155 -24.950 -13.946  0.00  0.00    +0.200 C 
BRANCH   6   7
ATOM      7  P   UNL     1      37.815 -25.491 -14.399  0.00  0.00    +0.346 P 
ATOM      8  O   UNL     1      38.536 -26.199 -13.304  0.00  0.00    -0.258 OA
BRANCH   7   9
ATOM      9  O   UNL     1      38.495 -24.131 -14.930  0.00  0.00    -0.323 OA
ATOM     10  H   UNL     1      38.447 -23.454 -14.237  0.00  0.00    +0.220 HD
ENDBRANCH   7   9
BRANCH   7  11
ATOM     11  O   UNL     1      37.553 -26.342 -15.741  0.00  0.00    -0.323 OA
ATOM     12  H   UNL     1      38.401 -26.615 -16.123  0.00  0.00    +0.220 HD
ENDBRANCH   7  11
ENDBRANCH   6   7
ENDBRANCH   4   6
ENDBRANCH   1   3
BRANCH   1  13
ATOM     13  C   UNL     1      31.741 -23.311 -15.056  0.00  0.00    +0.020 C 
BRANCH  13  14
ATOM     14  C   UNL     1      30.685 -22.933 -16.108  0.00  0.00    -0.009 C 
BRANCH  14  15
ATOM     15  CA  UNL     1      29.251 -23.349 -15.749  0.00  0.00    +0.036 C 
BRANCH  15  16
ATOM     16  N   UNL     1      29.140 -24.796 -15.569  0.00  0.00    +0.389 N 
ATOM     17  H1  UNL     1      28.781 -25.219 -16.426  0.00  0.00    -0.088 HD
ATOM     18  H2  UNL     1      28.503 -24.996 -14.798  0.00  0.00    -0.088 HD
ATOM     19  H3  UNL     1      30.060 -25.185 -15.359  0.00  0.00    -0.088 HD
ENDBRANCH  15  16
BRANCH  15  21
ATOM     20  OXT UNL     1      27.910 -21.777 -17.051  0.00  0.00    -0.253 OA
ATOM     21  C   UNL     1      28.253 -22.928 -16.814  0.00  0.00    +0.293 C 
BRANCH  21  22
ATOM     22  O   UNL     1      27.765 -23.994 -17.501  0.00  0.00    -0.482 OA
ATOM     23  H   UNL     1      26.851 -24.197 -17.464  0.00  0.00    +0.295 HD
ENDBRANCH  21  22
ENDBRANCH  15  21
ENDBRANCH  14  15
ENDBRANCH  13  14
ENDBRANCH   1  13
TORSDOF 11
ENDMDL
MODEL 9
REMARK VINA RESULT:      -6.2      3.316      5.466
REMARK  Name = 124992
REMARK  11 active torsions:
REMARK  status: ('A' for Active; 'I' for Inactive)
REMARK    1  A    between atoms: C_1  and  N_3
REMARK    2  A    between atoms: C_1  and  C_13
REMARK    3  A    between atoms: C_4  and  C_6
REMARK    4  A    between atoms: C_6  and  P_7
REMARK    5  A    between atoms: P_7  and  O_9
REMARK    6  A    between atoms: P_7  and  O_11
REMARK    7  A    between atoms: C_13  and  C_14
REMARK    8  A    between atoms: C_14  and  CA_15
REMARK    9  A    between atoms: CA_15  and  N_16
REMARK   10  A    between atoms: CA_15  and  C_21
REMARK   11  A    between atoms: C_21  and  O_22
REMARK                            x       y       z     vdW  Elec       q    Type
REMARK                         _______ _______ _______ _____ _____    ______ ____
ROOT
ATOM      1  C   UNL     1      35.089 -24.625 -12.344  0.00  0.00    +0.089 C 
ENDROOT
BRANCH   1   3
ATOM      2  O   UNL     1      37.293 -26.483 -12.048  0.00  0.00    -0.274 OA
ATOM      3  N   UNL     1      36.472 -24.391 -12.653  0.00  0.00    -0.304 N 
ATOM      4  C   UNL     1      37.467 -25.346 -12.479  0.00  0.00    +0.235 C 
ATOM      5  H   UNL     1      36.729 -23.509 -13.007  0.00  0.00    +0.149 HD
BRANCH   4   6
ATOM      6  C   UNL     1      38.826 -24.835 -12.885  0.00  0.00    +0.200 C 
BRANCH   6   7
ATOM      7  P   UNL     1      39.551 -25.715 -14.283  0.00  0.00    +0.346 P 
ATOM      8  O   UNL     1      40.860 -26.356 -13.974  0.00  0.00    -0.258 OA
BRANCH   7   9
ATOM      9  O   UNL     1      39.568 -24.591 -15.435  0.00  0.00    -0.323 OA
ATOM     10  H   UNL     1      39.336 -23.730 -15.052  0.00  0.00    +0.220 HD
ENDBRANCH   7   9
BRANCH   7  11
ATOM     11  O   UNL     1      38.363 -26.708 -14.727  0.00  0.00    -0.323 OA
ATOM     12  H   UNL     1      37.713 -26.776 -14.010  0.00  0.00    +0.220 HD
ENDBRANCH   7  11
ENDBRANCH   6   7
ENDBRANCH   4   6
ENDBRANCH   1   3
BRANCH   1  13
ATOM     13  C   UNL     1      34.143 -23.888 -13.288  0.00  0.00    +0.020 C 
BRANCH  13  14
ATOM     14  C   UNL     1      34.381 -24.261 -14.761  0.00  0.00    -0.009 C 
BRANCH  14  15
ATOM     15  CA  UNL     1      34.718 -23.073 -15.673  0.00  0.00    +0.036 C 
BRANCH  15  16
ATOM     16  N   UNL     1      34.043 -23.178 -16.965  0.00  0.00    +0.389 N 
ATOM     17  H1  UNL     1      34.122 -24.134 -17.314  0.00  0.00    -0.088 HD
ATOM     18  H2  UNL     1      34.477 -22.537 -17.630  0.00  0.00    -0.088 HD
ATOM     19  H3  UNL     1      33.057 -22.938 -16.856  0.00  0.00    -0.088 HD
ENDBRANCH  15  16
BRANCH  15  21
ATOM     20  OXT UNL     1      36.806 -21.926 -16.209  0.00  0.00    -0.253 OA
ATOM     21  C   UNL     1      36.211 -22.957 -15.927  0.00  0.00    +0.293 C 
BRANCH  21  22
ATOM     22  O   UNL     1      36.840 -24.156 -15.806  0.00  0.00    -0.482 OA
ATOM     23  H   UNL     1      36.854 -24.754 -16.528  0.00  0.00    +0.295 HD
ENDBRANCH  21  22
ENDBRANCH  15  21
ENDBRANCH  14  15
ENDBRANCH  13  14
ENDBRANCH   1  13
TORSDOF 11
ENDMDL
