MODEL 1
REMARK VINA RESULT:      -9.6      0.000      0.000
REMARK  Name = 2950
REMARK  2 active torsions:
REMARK  status: ('A' for Active; 'I' for Inactive)
REMARK    1  A    between atoms: C_9  and  O_17
REMARK    2  A    between atoms: C_10  and  O_19
REMARK                            x       y       z     vdW  Elec       q    Type
REMARK                         _______ _______ _______ _____ _____    ______ ____
ROOT
ATOM      1  O   UNL     1      34.104 -17.371 -25.667  0.00  0.00    -0.286 OA
ATOM      2  O   UNL     1      34.643 -14.737 -21.048  0.00  0.00    -0.287 OA
ATOM      3  C   UNL     1      33.955 -15.318 -24.537  0.00  0.00    +0.076 C 
ATOM      4  C   UNL     1      34.647 -17.480 -23.385  0.00  0.00    +0.076 C 
ATOM      5  C   UNL     1      34.096 -14.630 -23.330  0.00  0.00    +0.045 C 
ATOM      6  C   UNL     1      34.788 -16.792 -22.179  0.00  0.00    +0.045 C 
ATOM      7  C   UNL     1      34.225 -16.768 -24.608  0.00  0.00    +0.202 C 
ATOM      8  C   UNL     1      34.518 -15.341 -22.107  0.00  0.00    +0.196 C 
ATOM      9  C   UNL     1      33.555 -14.632 -25.690  0.00  0.00    +0.137 C 
ATOM     10  C   UNL     1      34.908 -18.855 -23.439  0.00  0.00    +0.137 C 
ATOM     11  C   UNL     1      33.836 -13.256 -23.276  0.00  0.00    +0.003 C 
ATOM     12  C   UNL     1      35.189 -17.479 -21.025  0.00  0.00    +0.003 C 
ATOM     13  C   UNL     1      33.297 -13.262 -25.631  0.00  0.00    +0.037 C 
ATOM     14  C   UNL     1      35.307 -19.536 -22.289  0.00  0.00    +0.037 C 
ATOM     15  C   UNL     1      33.438 -12.575 -24.427  0.00  0.00    +0.003 C 
ATOM     16  C   UNL     1      35.448 -18.849 -21.084  0.00  0.00    +0.003 C 
ENDROOT
BRANCH   9  17
ATOM     17  O   UNL     1      33.396 -15.239 -26.900  0.00  0.00    -0.505 OA
ATOM     18  H   UNL     1      32.547 -15.285 -27.294  0.00  0.00    +0.292 HD
ENDBRANCH   9  17
BRANCH  10  19
ATOM     19  O   UNL     1      34.792 -19.588 -24.584  0.00  0.00    -0.505 OA
ATOM     20  H   UNL     1      35.435 -19.506 -25.259  0.00  0.00    +0.292 HD
ENDBRANCH  10  19
TORSDOF 2
ENDMDL
MODEL 2
REMARK VINA RESULT:      -9.6      0.009      4.688
REMARK  Name = 2950
REMARK  2 active torsions:
REMARK  status: ('A' for Active; 'I' for Inactive)
REMARK    1  A    between atoms: C_9  and  O_17
REMARK    2  A    between atoms: C_10  and  O_19
REMARK                            x       y       z     vdW  Elec       q    Type
REMARK                         _______ _______ _______ _____ _____    ______ ____
ROOT
ATOM      1  O   UNL     1      34.105 -17.373 -25.665  0.00  0.00    -0.286 OA
ATOM      2  O   UNL     1      34.632 -14.744 -21.042  0.00  0.00    -0.287 OA
ATOM      3  C   UNL     1      34.644 -17.484 -23.382  0.00  0.00    +0.076 C 
ATOM      4  C   UNL     1      33.959 -15.319 -24.535  0.00  0.00    +0.076 C 
ATOM      5  C   UNL     1      34.782 -16.797 -22.174  0.00  0.00    +0.045 C 
ATOM      6  C   UNL     1      34.097 -14.633 -23.327  0.00  0.00    +0.045 C 
ATOM      7  C   UNL     1      34.228 -16.770 -24.606  0.00  0.00    +0.202 C 
ATOM      8  C   UNL     1      34.513 -15.346 -22.102  0.00  0.00    +0.196 C 
ATOM      9  C   UNL     1      34.901 -18.858 -23.437  0.00  0.00    +0.137 C 
ATOM     10  C   UNL     1      33.562 -14.631 -25.688  0.00  0.00    +0.137 C 
ATOM     11  C   UNL     1      35.177 -17.484 -21.021  0.00  0.00    +0.003 C 
ATOM     12  C   UNL     1      33.839 -13.257 -23.272  0.00  0.00    +0.003 C 
ATOM     13  C   UNL     1      35.296 -19.540 -22.285  0.00  0.00    +0.037 C 
ATOM     14  C   UNL     1      33.306 -13.261 -25.630  0.00  0.00    +0.037 C 
ATOM     15  C   UNL     1      35.432 -18.855 -21.079  0.00  0.00    +0.003 C 
ATOM     16  C   UNL     1      33.444 -12.575 -24.424  0.00  0.00    +0.003 C 
ENDROOT
BRANCH   9  17
ATOM     17  O   UNL     1      34.788 -19.591 -24.580  0.00  0.00    -0.505 OA
ATOM     18  H   UNL     1      34.137 -19.370 -25.217  0.00  0.00    +0.292 HD
ENDBRANCH   9  17
BRANCH  10  19
ATOM     19  O   UNL     1      33.407 -15.239 -26.899  0.00  0.00    -0.505 OA
ATOM     20  H   UNL     1      33.158 -16.141 -26.941  0.00  0.00    +0.292 HD
ENDBRANCH  10  19
TORSDOF 2
ENDMDL
MODEL 3
REMARK VINA RESULT:      -9.6      1.077      5.611
REMARK  Name = 2950
REMARK  2 active torsions:
REMARK  status: ('A' for Active; 'I' for Inactive)
REMARK    1  A    between atoms: C_9  and  O_17
REMARK    2  A    between atoms: C_10  and  O_19
REMARK                            x       y       z     vdW  Elec       q    Type
REMARK                         _______ _______ _______ _____ _____    ______ ____
ROOT
ATOM      1  O   UNL     1      34.363 -14.328 -21.770  0.00  0.00    -0.286 OA
ATOM      2  O   UNL     1      34.129 -17.820 -25.809  0.00  0.00    -0.287 OA
ATOM      3  C   UNL     1      34.652 -16.548 -22.478  0.00  0.00    +0.076 C 
ATOM      4  C   UNL     1      33.897 -14.687 -24.044  0.00  0.00    +0.076 C 
ATOM      5  C   UNL     1      34.591 -17.461 -23.534  0.00  0.00    +0.045 C 
ATOM      6  C   UNL     1      33.836 -15.599 -25.098  0.00  0.00    +0.045 C 
ATOM      7  C   UNL     1      34.307 -15.128 -22.695  0.00  0.00    +0.202 C 
ATOM      8  C   UNL     1      34.181 -17.020 -24.883  0.00  0.00    +0.196 C 
ATOM      9  C   UNL     1      35.043 -16.978 -21.205  0.00  0.00    +0.137 C 
ATOM     10  C   UNL     1      33.569 -13.344 -24.263  0.00  0.00    +0.137 C 
ATOM     11  C   UNL     1      34.920 -18.803 -23.316  0.00  0.00    +0.003 C 
ATOM     12  C   UNL     1      33.445 -15.169 -26.373  0.00  0.00    +0.003 C 
ATOM     13  C   UNL     1      35.370 -18.317 -20.992  0.00  0.00    +0.037 C 
ATOM     14  C   UNL     1      33.180 -12.918 -25.533  0.00  0.00    +0.037 C 
ATOM     15  C   UNL     1      35.310 -19.228 -22.045  0.00  0.00    +0.003 C 
ATOM     16  C   UNL     1      33.119 -13.829 -26.586  0.00  0.00    +0.003 C 
ENDROOT
BRANCH   9  17
ATOM     17  O   UNL     1      35.124 -16.143 -20.130  0.00  0.00    -0.505 OA
ATOM     18  H   UNL     1      35.957 -15.818 -19.851  0.00  0.00    +0.292 HD
ENDBRANCH   9  17
BRANCH  10  19
ATOM     19  O   UNL     1      33.608 -12.400 -23.279  0.00  0.00    -0.505 OA
ATOM     20  H   UNL     1      34.347 -12.351 -22.706  0.00  0.00    +0.292 HD
ENDBRANCH  10  19
TORSDOF 2
ENDMDL
MODEL 4
REMARK VINA RESULT:      -9.6      1.076      3.155
REMARK  Name = 2950
REMARK  2 active torsions:
REMARK  status: ('A' for Active; 'I' for Inactive)
REMARK    1  A    between atoms: C_9  and  O_17
REMARK    2  A    between atoms: C_10  and  O_19
REMARK                            x       y       z     vdW  Elec       q    Type
REMARK                         _______ _______ _______ _____ _____    ______ ____
ROOT
ATOM      1  O   UNL     1      34.360 -14.329 -21.768  0.00  0.00    -0.286 OA
ATOM      2  O   UNL     1      34.125 -17.821 -25.806  0.00  0.00    -0.287 OA
ATOM      3  C   UNL     1      33.897 -14.688 -24.042  0.00  0.00    +0.076 C 
ATOM      4  C   UNL     1      34.653 -16.549 -22.477  0.00  0.00    +0.076 C 
ATOM      5  C   UNL     1      33.836 -15.601 -25.098  0.00  0.00    +0.045 C 
ATOM      6  C   UNL     1      34.592 -17.461 -23.532  0.00  0.00    +0.045 C 
ATOM      7  C   UNL     1      34.309 -15.129 -22.693  0.00  0.00    +0.202 C 
ATOM      8  C   UNL     1      34.181 -17.021 -24.881  0.00  0.00    +0.196 C 
ATOM      9  C   UNL     1      33.569 -13.345 -24.260  0.00  0.00    +0.137 C 
ATOM     10  C   UNL     1      35.042 -16.980 -21.203  0.00  0.00    +0.137 C 
ATOM     11  C   UNL     1      33.446 -15.170 -26.371  0.00  0.00    +0.003 C 
ATOM     12  C   UNL     1      34.921 -18.805 -23.314  0.00  0.00    +0.003 C 
ATOM     13  C   UNL     1      33.180 -12.920 -25.531  0.00  0.00    +0.037 C 
ATOM     14  C   UNL     1      35.369 -18.319 -20.989  0.00  0.00    +0.037 C 
ATOM     15  C   UNL     1      33.118 -13.831 -26.584  0.00  0.00    +0.003 C 
ATOM     16  C   UNL     1      35.308 -19.230 -22.043  0.00  0.00    +0.003 C 
ENDROOT
BRANCH   9  17
ATOM     17  O   UNL     1      33.607 -12.401 -23.278  0.00  0.00    -0.505 OA
ATOM     18  H   UNL     1      32.943 -11.741 -23.235  0.00  0.00    +0.292 HD
ENDBRANCH   9  17
BRANCH  10  19
ATOM     19  O   UNL     1      35.123 -16.144 -20.129  0.00  0.00    -0.505 OA
ATOM     20  H   UNL     1      34.416 -16.099 -19.516  0.00  0.00    +0.292 HD
ENDBRANCH  10  19
TORSDOF 2
ENDMDL
MODEL 5
REMARK VINA RESULT:      -9.0      8.466     11.526
REMARK  Name = 2950
REMARK  2 active torsions:
REMARK  status: ('A' for Active; 'I' for Inactive)
REMARK    1  A    between atoms: C_9  and  O_17
REMARK    2  A    between atoms: C_10  and  O_19
REMARK                            x       y       z     vdW  Elec       q    Type
REMARK                         _______ _______ _______ _____ _____    ______ ____
ROOT
ATOM      1  O   UNL     1      35.500 -23.739 -13.997  0.00  0.00    -0.286 OA
ATOM      2  O   UNL     1      32.390 -22.703 -18.218  0.00  0.00    -0.287 OA
ATOM      3  C   UNL     1      33.350 -23.841 -14.937  0.00  0.00    +0.076 C 
ATOM      4  C   UNL     1      35.352 -22.869 -16.173  0.00  0.00    +0.076 C 
ATOM      5  C   UNL     1      32.537 -23.570 -16.040  0.00  0.00    +0.045 C 
ATOM      6  C   UNL     1      34.540 -22.598 -17.275  0.00  0.00    +0.045 C 
ATOM      7  C   UNL     1      34.787 -23.500 -14.963  0.00  0.00    +0.202 C 
ATOM      8  C   UNL     1      33.103 -22.939 -17.250  0.00  0.00    +0.196 C 
ATOM      9  C   UNL     1      32.802 -24.439 -13.796  0.00  0.00    +0.137 C 
ATOM     10  C   UNL     1      36.713 -22.542 -16.212  0.00  0.00    +0.137 C 
ATOM     11  C   UNL     1      31.177 -23.897 -16.002  0.00  0.00    +0.003 C 
ATOM     12  C   UNL     1      35.088 -21.999 -18.417  0.00  0.00    +0.003 C 
ATOM     13  C   UNL     1      31.446 -24.764 -13.763  0.00  0.00    +0.037 C 
ATOM     14  C   UNL     1      37.256 -21.946 -17.350  0.00  0.00    +0.037 C 
ATOM     15  C   UNL     1      30.635 -24.494 -14.863  0.00  0.00    +0.003 C 
ATOM     16  C   UNL     1      36.445 -21.675 -18.451  0.00  0.00    +0.003 C 
ENDROOT
BRANCH   9  17
ATOM     17  O   UNL     1      33.535 -24.731 -12.684  0.00  0.00    -0.505 OA
ATOM     18  H   UNL     1      33.992 -25.547 -12.624  0.00  0.00    +0.292 HD
ENDBRANCH   9  17
BRANCH  10  19
ATOM     19  O   UNL     1      37.564 -22.779 -15.172  0.00  0.00    -0.505 OA
ATOM     20  H   UNL     1      37.471 -23.558 -14.660  0.00  0.00    +0.292 HD
ENDBRANCH  10  19
TORSDOF 2
ENDMDL
MODEL 6
REMARK VINA RESULT:      -9.0      8.468     11.208
REMARK  Name = 2950
REMARK  2 active torsions:
REMARK  status: ('A' for Active; 'I' for Inactive)
REMARK    1  A    between atoms: C_9  and  O_17
REMARK    2  A    between atoms: C_10  and  O_19
REMARK                            x       y       z     vdW  Elec       q    Type
REMARK                         _______ _______ _______ _____ _____    ______ ____
ROOT
ATOM      1  O   UNL     1      35.498 -23.732 -13.991  0.00  0.00    -0.286 OA
ATOM      2  O   UNL     1      32.399 -22.700 -18.220  0.00  0.00    -0.287 OA
ATOM      3  C   UNL     1      35.357 -22.867 -16.169  0.00  0.00    +0.076 C 
ATOM      4  C   UNL     1      33.352 -23.839 -14.937  0.00  0.00    +0.076 C 
ATOM      5  C   UNL     1      34.547 -22.597 -17.275  0.00  0.00    +0.045 C 
ATOM      6  C   UNL     1      32.542 -23.569 -16.042  0.00  0.00    +0.045 C 
ATOM      7  C   UNL     1      34.789 -23.498 -14.960  0.00  0.00    +0.202 C 
ATOM      8  C   UNL     1      33.110 -22.938 -17.251  0.00  0.00    +0.196 C 
ATOM      9  C   UNL     1      36.717 -22.539 -16.204  0.00  0.00    +0.137 C 
ATOM     10  C   UNL     1      32.800 -24.435 -13.797  0.00  0.00    +0.137 C 
ATOM     11  C   UNL     1      35.097 -22.000 -18.414  0.00  0.00    +0.003 C 
ATOM     12  C   UNL     1      31.181 -23.897 -16.008  0.00  0.00    +0.003 C 
ATOM     13  C   UNL     1      37.262 -21.944 -17.342  0.00  0.00    +0.037 C 
ATOM     14  C   UNL     1      31.444 -24.760 -13.766  0.00  0.00    +0.037 C 
ATOM     15  C   UNL     1      36.454 -21.674 -18.444  0.00  0.00    +0.003 C 
ATOM     16  C   UNL     1      30.636 -24.491 -14.869  0.00  0.00    +0.003 C 
ENDROOT
BRANCH   9  17
ATOM     17  O   UNL     1      37.565 -22.774 -15.163  0.00  0.00    -0.505 OA
ATOM     18  H   UNL     1      38.305 -22.216 -15.026  0.00  0.00    +0.292 HD
ENDBRANCH   9  17
BRANCH  10  19
ATOM     19  O   UNL     1      33.532 -24.725 -12.683  0.00  0.00    -0.505 OA
ATOM     20  H   UNL     1      33.516 -24.144 -11.948  0.00  0.00    +0.292 HD
ENDBRANCH  10  19
TORSDOF 2
ENDMDL
MODEL 7
REMARK VINA RESULT:      -8.9      6.897     10.361
REMARK  Name = 2950
REMARK  2 active torsions:
REMARK  status: ('A' for Active; 'I' for Inactive)
REMARK    1  A    between atoms: C_9  and  O_17
REMARK    2  A    between atoms: C_10  and  O_19
REMARK                            x       y       z     vdW  Elec       q    Type
REMARK                         _______ _______ _______ _____ _____    ______ ____
ROOT
ATOM      1  O   UNL     1      32.161 -22.860 -17.862  0.00  0.00    -0.286 OA
ATOM      2  O   UNL     1      37.128 -22.547 -15.916  0.00  0.00    -0.287 OA
ATOM      3  C   UNL     1      33.606 -23.294 -16.063  0.00  0.00    +0.076 C 
ATOM      4  C   UNL     1      34.384 -22.198 -18.225  0.00  0.00    +0.076 C 
ATOM      5  C   UNL     1      34.904 -23.213 -15.554  0.00  0.00    +0.045 C 
ATOM      6  C   UNL     1      35.682 -22.117 -17.717  0.00  0.00    +0.045 C 
ATOM      7  C   UNL     1      33.299 -22.790 -17.417  0.00  0.00    +0.202 C 
ATOM      8  C   UNL     1      35.990 -22.621 -16.362  0.00  0.00    +0.196 C 
ATOM      9  C   UNL     1      32.586 -23.858 -15.287  0.00  0.00    +0.137 C 
ATOM     10  C   UNL     1      34.106 -21.714 -19.510  0.00  0.00    +0.137 C 
ATOM     11  C   UNL     1      35.182 -23.695 -14.270  0.00  0.00    +0.003 C 
ATOM     12  C   UNL     1      36.702 -21.553 -18.493  0.00  0.00    +0.003 C 
ATOM     13  C   UNL     1      32.868 -24.337 -14.007  0.00  0.00    +0.037 C 
ATOM     14  C   UNL     1      35.125 -21.154 -20.280  0.00  0.00    +0.037 C 
ATOM     15  C   UNL     1      34.163 -24.255 -13.500  0.00  0.00    +0.003 C 
ATOM     16  C   UNL     1      36.420 -21.072 -19.772  0.00  0.00    +0.003 C 
ENDROOT
BRANCH   9  17
ATOM     17  O   UNL     1      31.298 -23.970 -15.719  0.00  0.00    -0.505 OA
ATOM     18  H   UNL     1      30.886 -23.251 -16.156  0.00  0.00    +0.292 HD
ENDBRANCH   9  17
BRANCH  10  19
ATOM     19  O   UNL     1      32.862 -21.761 -20.067  0.00  0.00    -0.505 OA
ATOM     20  H   UNL     1      32.750 -22.095 -20.935  0.00  0.00    +0.292 HD
ENDBRANCH  10  19
TORSDOF 2
ENDMDL
MODEL 8
REMARK VINA RESULT:      -8.9      8.115     10.882
REMARK  Name = 2950
REMARK  2 active torsions:
REMARK  status: ('A' for Active; 'I' for Inactive)
REMARK    1  A    between atoms: C_9  and  O_17
REMARK    2  A    between atoms: C_10  and  O_19
REMARK                            x       y       z     vdW  Elec       q    Type
REMARK                         _______ _______ _______ _____ _____    ______ ____
ROOT
ATOM      1  O   UNL     1      32.876 -23.812 -15.587  0.00  0.00    -0.286 OA
ATOM      2  O   UNL     1      37.991 -22.281 -15.816  0.00  0.00    -0.287 OA
ATOM      3  C   UNL     1      34.590 -22.842 -16.866  0.00  0.00    +0.076 C 
ATOM      4  C   UNL     1      34.938 -23.648 -14.476  0.00  0.00    +0.076 C 
ATOM      5  C   UNL     1      35.927 -22.441 -16.925  0.00  0.00    +0.045 C 
ATOM      6  C   UNL     1      36.274 -23.248 -14.536  0.00  0.00    +0.045 C 
ATOM      7  C   UNL     1      34.047 -23.459 -15.639  0.00  0.00    +0.202 C 
ATOM      8  C   UNL     1      36.818 -22.630 -15.763  0.00  0.00    +0.196 C 
ATOM      9  C   UNL     1      33.756 -22.657 -17.974  0.00  0.00    +0.137 C 
ATOM     10  C   UNL     1      34.436 -24.234 -13.307  0.00  0.00    +0.137 C 
ATOM     11  C   UNL     1      36.429 -21.856 -18.093  0.00  0.00    +0.003 C 
ATOM     12  C   UNL     1      37.109 -23.433 -13.426  0.00  0.00    +0.003 C 
ATOM     13  C   UNL     1      34.260 -22.074 -19.137  0.00  0.00    +0.037 C 
ATOM     14  C   UNL     1      35.270 -24.417 -12.204  0.00  0.00    +0.037 C 
ATOM     15  C   UNL     1      35.594 -21.675 -19.197  0.00  0.00    +0.003 C 
ATOM     16  C   UNL     1      36.604 -24.017 -12.264  0.00  0.00    +0.003 C 
ENDROOT
BRANCH   9  17
ATOM     17  O   UNL     1      32.443 -23.022 -17.986  0.00  0.00    -0.505 OA
ATOM     18  H   UNL     1      31.991 -23.175 -17.180  0.00  0.00    +0.292 HD
ENDBRANCH   9  17
BRANCH  10  19
ATOM     19  O   UNL     1      33.143 -24.649 -13.181  0.00  0.00    -0.505 OA
ATOM     20  H   UNL     1      32.575 -24.644 -13.926  0.00  0.00    +0.292 HD
ENDBRANCH  10  19
TORSDOF 2
ENDMDL
MODEL 9
REMARK VINA RESULT:      -8.9      8.126     11.605
REMARK  Name = 2950
REMARK  2 active torsions:
REMARK  status: ('A' for Active; 'I' for Inactive)
REMARK    1  A    between atoms: C_9  and  O_17
REMARK    2  A    between atoms: C_10  and  O_19
REMARK                            x       y       z     vdW  Elec       q    Type
REMARK                         _______ _______ _______ _____ _____    ______ ____
ROOT
ATOM      1  O   UNL     1      32.911 -23.830 -15.578  0.00  0.00    -0.286 OA
ATOM      2  O   UNL     1      38.013 -22.253 -15.800  0.00  0.00    -0.287 OA
ATOM      3  C   UNL     1      34.971 -23.650 -14.465  0.00  0.00    +0.076 C 
ATOM      4  C   UNL     1      34.620 -22.849 -16.856  0.00  0.00    +0.076 C 
ATOM      5  C   UNL     1      36.305 -23.238 -14.523  0.00  0.00    +0.045 C 
ATOM      6  C   UNL     1      35.952 -22.437 -16.914  0.00  0.00    +0.045 C 
ATOM      7  C   UNL     1      34.080 -23.471 -15.630  0.00  0.00    +0.202 C 
ATOM      8  C   UNL     1      36.844 -22.616 -15.749  0.00  0.00    +0.196 C 
ATOM      9  C   UNL     1      34.472 -24.237 -13.297  0.00  0.00    +0.137 C 
ATOM     10  C   UNL     1      33.786 -22.672 -17.967  0.00  0.00    +0.137 C 
ATOM     11  C   UNL     1      37.138 -23.414 -13.413  0.00  0.00    +0.003 C 
ATOM     12  C   UNL     1      36.452 -21.849 -18.083  0.00  0.00    +0.003 C 
ATOM     13  C   UNL     1      35.307 -24.411 -12.192  0.00  0.00    +0.037 C 
ATOM     14  C   UNL     1      34.286 -22.086 -19.129  0.00  0.00    +0.037 C 
ATOM     15  C   UNL     1      36.636 -23.999 -12.250  0.00  0.00    +0.003 C 
ATOM     16  C   UNL     1      35.617 -21.675 -19.187  0.00  0.00    +0.003 C 
ENDROOT
BRANCH   9  17
ATOM     17  O   UNL     1      33.183 -24.663 -13.170  0.00  0.00    -0.505 OA
ATOM     18  H   UNL     1      32.783 -25.157 -13.858  0.00  0.00    +0.292 HD
ENDBRANCH   9  17
BRANCH  10  19
ATOM     19  O   UNL     1      32.475 -23.050 -17.979  0.00  0.00    -0.505 OA
ATOM     20  H   UNL     1      31.930 -22.827 -18.707  0.00  0.00    +0.292 HD
ENDBRANCH  10  19
TORSDOF 2
ENDMDL
