MODEL 1
REMARK VINA RESULT:      -6.1      0.000      0.000
REMARK  Name = 1054
REMARK  5 active torsions:
REMARK  status: ('A' for Active; 'I' for Inactive)
REMARK    1  A    between atoms: C_2  and  C_10
REMARK    2  A    between atoms: C_3  and  C_13
REMARK    3  A    between atoms: C_4  and  O_8
REMARK    4  A    between atoms: C_10  and  O_11
REMARK    5  A    between atoms: C_13  and  O_14
REMARK                            x       y       z     vdW  Elec       q    Type
REMARK                         _______ _______ _______ _____ _____    ______ ____
ROOT
ATOM      1  N   UNL     1      35.020 -16.107 -22.548  0.00  0.00    -0.245 NA
ATOM      2  C   UNL     1      33.603 -15.154 -24.761  0.00  0.00    +0.042 C 
ATOM      3  C   UNL     1      33.809 -14.333 -23.657  0.00  0.00    +0.027 C 
ATOM      4  C   UNL     1      34.105 -16.451 -24.759  0.00  0.00    +0.145 C 
ATOM      5  C   UNL     1      34.799 -16.876 -23.639  0.00  0.00    +0.093 C 
ATOM      6  C   UNL     1      34.517 -14.853 -22.586  0.00  0.00    +0.097 C 
ATOM      7  C   UNL     1      35.360 -18.259 -23.585  0.00  0.00    +0.055 C 
ENDROOT
BRANCH   4   8
ATOM      8  O   UNL     1      33.918 -17.275 -25.823  0.00  0.00    -0.505 OA
ATOM      9  H   UNL     1      34.614 -17.417 -26.434  0.00  0.00    +0.292 HD
ENDBRANCH   4   8
BRANCH   2  10
ATOM     10  C   UNL     1      32.847 -14.647 -25.947  0.00  0.00    +0.166 C 
BRANCH  10  11
ATOM     11  O   UNL     1      33.648 -14.793 -27.111  0.00  0.00    -0.377 OA
ATOM     12  H   UNL     1      34.325 -15.470 -26.955  0.00  0.00    +0.211 HD
ENDBRANCH  10  11
ENDBRANCH   2  10
BRANCH   3  13
ATOM     13  C   UNL     1      33.294 -12.937 -23.605  0.00  0.00    +0.165 C 
BRANCH  13  14
ATOM     14  O   UNL     1      34.313 -12.039 -24.030  0.00  0.00    -0.377 OA
ATOM     15  H   UNL     1      34.128 -11.746 -24.937  0.00  0.00    +0.211 HD
ENDBRANCH  13  14
ENDBRANCH   3  13
TORSDOF 5
ENDMDL
MODEL 2
REMARK VINA RESULT:      -6.1      2.082      3.619
REMARK  Name = 1054
REMARK  5 active torsions:
REMARK  status: ('A' for Active; 'I' for Inactive)
REMARK    1  A    between atoms: C_2  and  C_10
REMARK    2  A    between atoms: C_3  and  C_13
REMARK    3  A    between atoms: C_4  and  O_8
REMARK    4  A    between atoms: C_10  and  O_11
REMARK    5  A    between atoms: C_13  and  O_14
REMARK                            x       y       z     vdW  Elec       q    Type
REMARK                         _______ _______ _______ _____ _____    ______ ____
ROOT
ATOM      1  N   UNL     1      33.282 -14.631 -23.826  0.00  0.00    -0.245 NA
ATOM      2  C   UNL     1      34.793 -16.963 -23.523  0.00  0.00    +0.042 C 
ATOM      3  C   UNL     1      34.443 -16.208 -22.409  0.00  0.00    +0.027 C 
ATOM      4  C   UNL     1      34.389 -16.553 -24.789  0.00  0.00    +0.145 C 
ATOM      5  C   UNL     1      33.641 -15.391 -24.886  0.00  0.00    +0.093 C 
ATOM      6  C   UNL     1      33.694 -15.061 -22.612  0.00  0.00    +0.097 C 
ATOM      7  C   UNL     1      33.180 -14.906 -26.222  0.00  0.00    +0.055 C 
ENDROOT
BRANCH   4   8
ATOM      8  O   UNL     1      34.717 -17.271 -25.895  0.00  0.00    -0.505 OA
ATOM      9  H   UNL     1      34.175 -17.984 -26.169  0.00  0.00    +0.292 HD
ENDBRANCH   4   8
BRANCH   2  10
ATOM     10  C   UNL     1      35.601 -18.211 -23.364  0.00  0.00    +0.166 C 
BRANCH  10  11
ATOM     11  O   UNL     1      34.822 -19.328 -23.771  0.00  0.00    -0.377 OA
ATOM     12  H   UNL     1      33.967 -19.309 -23.315  0.00  0.00    +0.211 HD
ENDBRANCH  10  11
ENDBRANCH   2  10
BRANCH   3  13
ATOM     13  C   UNL     1      34.850 -16.599 -21.031  0.00  0.00    +0.165 C 
BRANCH  13  14
ATOM     14  O   UNL     1      34.882 -15.444 -20.199  0.00  0.00    -0.377 OA
ATOM     15  H   UNL     1      34.148 -15.483 -19.565  0.00  0.00    +0.211 HD
ENDBRANCH  13  14
ENDBRANCH   3  13
TORSDOF 5
ENDMDL
MODEL 3
REMARK VINA RESULT:      -6.0     12.887     14.725
REMARK  Name = 1054
REMARK  5 active torsions:
REMARK  status: ('A' for Active; 'I' for Inactive)
REMARK    1  A    between atoms: C_2  and  C_10
REMARK    2  A    between atoms: C_3  and  C_13
REMARK    3  A    between atoms: C_4  and  O_8
REMARK    4  A    between atoms: C_10  and  O_11
REMARK    5  A    between atoms: C_13  and  O_14
REMARK                            x       y       z     vdW  Elec       q    Type
REMARK                         _______ _______ _______ _____ _____    ______ ____
ROOT
ATOM      1  N   UNL     1      38.680 -26.108 -12.898  0.00  0.00    -0.245 NA
ATOM      2  C   UNL     1      37.022 -24.190 -14.076  0.00  0.00    +0.042 C 
ATOM      3  C   UNL     1      36.608 -24.863 -12.931  0.00  0.00    +0.027 C 
ATOM      4  C   UNL     1      38.265 -24.476 -14.632  0.00  0.00    +0.145 C 
ATOM      5  C   UNL     1      39.049 -25.434 -14.011  0.00  0.00    +0.093 C 
ATOM      6  C   UNL     1      37.466 -25.804 -12.387  0.00  0.00    +0.097 C 
ATOM      7  C   UNL     1      40.392 -25.778 -14.566  0.00  0.00    +0.055 C 
ENDROOT
BRANCH   4   8
ATOM      8  O   UNL     1      38.695 -23.835 -15.751  0.00  0.00    -0.505 OA
ATOM      9  H   UNL     1      39.547 -24.016 -16.097  0.00  0.00    +0.292 HD
ENDBRANCH   4   8
BRANCH   2  10
ATOM     10  C   UNL     1      36.139 -23.163 -14.708  0.00  0.00    +0.166 C 
BRANCH  10  11
ATOM     11  O   UNL     1      35.857 -23.547 -16.046  0.00  0.00    -0.377 OA
ATOM     12  H   UNL     1      36.689 -23.698 -16.522  0.00  0.00    +0.211 HD
ENDBRANCH  10  11
ENDBRANCH   2  10
BRANCH   3  13
ATOM     13  C   UNL     1      35.288 -24.598 -12.294  0.00  0.00    +0.165 C 
BRANCH  13  14
ATOM     14  O   UNL     1      35.319 -25.036 -10.940  0.00  0.00    -0.377 OA
ATOM     15  H   UNL     1      34.596 -24.614 -10.448  0.00  0.00    +0.211 HD
ENDBRANCH  13  14
ENDBRANCH   3  13
TORSDOF 5
ENDMDL
MODEL 4
REMARK VINA RESULT:      -6.0     13.127     15.002
REMARK  Name = 1054
REMARK  5 active torsions:
REMARK  status: ('A' for Active; 'I' for Inactive)
REMARK    1  A    between atoms: C_2  and  C_10
REMARK    2  A    between atoms: C_3  and  C_13
REMARK    3  A    between atoms: C_4  and  O_8
REMARK    4  A    between atoms: C_10  and  O_11
REMARK    5  A    between atoms: C_13  and  O_14
REMARK                            x       y       z     vdW  Elec       q    Type
REMARK                         _______ _______ _______ _____ _____    ______ ____
ROOT
ATOM      1  N   UNL     1      35.658 -24.714 -15.471  0.00  0.00    -0.245 NA
ATOM      2  C   UNL     1      35.986 -24.456 -12.707  0.00  0.00    +0.042 C 
ATOM      3  C   UNL     1      36.991 -25.030 -13.479  0.00  0.00    +0.027 C 
ATOM      4  C   UNL     1      34.818 -24.011 -13.316  0.00  0.00    +0.145 C 
ATOM      5  C   UNL     1      34.703 -24.162 -14.688  0.00  0.00    +0.093 C 
ATOM      6  C   UNL     1      36.779 -25.135 -14.844  0.00  0.00    +0.097 C 
ATOM      7  C   UNL     1      33.469 -23.700 -15.392  0.00  0.00    +0.055 C 
ENDROOT
BRANCH   4   8
ATOM      8  O   UNL     1      33.820 -23.448 -12.586  0.00  0.00    -0.505 OA
ATOM      9  H   UNL     1      33.390 -23.944 -11.916  0.00  0.00    +0.292 HD
ENDBRANCH   4   8
BRANCH   2  10
ATOM     10  C   UNL     1      36.160 -24.316 -11.229  0.00  0.00    +0.166 C 
BRANCH  10  11
ATOM     11  O   UNL     1      35.240 -25.172 -10.566  0.00  0.00    -0.377 OA
ATOM     12  H   UNL     1      35.685 -25.613  -9.826  0.00  0.00    +0.211 HD
ENDBRANCH  10  11
ENDBRANCH   2  10
BRANCH   3  13
ATOM     13  C   UNL     1      38.262 -25.524 -12.881  0.00  0.00    +0.165 C 
BRANCH  13  14
ATOM     14  O   UNL     1      39.311 -24.608 -13.171  0.00  0.00    -0.377 OA
ATOM     15  H   UNL     1      40.109 -25.099 -13.424  0.00  0.00    +0.211 HD
ENDBRANCH  13  14
ENDBRANCH   3  13
TORSDOF 5
ENDMDL
MODEL 5
REMARK VINA RESULT:      -5.9      6.104      8.270
REMARK  Name = 1054
REMARK  5 active torsions:
REMARK  status: ('A' for Active; 'I' for Inactive)
REMARK    1  A    between atoms: C_2  and  C_10
REMARK    2  A    between atoms: C_3  and  C_13
REMARK    3  A    between atoms: C_4  and  O_8
REMARK    4  A    between atoms: C_10  and  O_11
REMARK    5  A    between atoms: C_13  and  O_14
REMARK                            x       y       z     vdW  Elec       q    Type
REMARK                         _______ _______ _______ _____ _____    ______ ____
ROOT
ATOM      1  N   UNL     1      36.106 -19.506 -20.795  0.00  0.00    -0.245 NA
ATOM      2  C   UNL     1      34.743 -21.434 -19.299  0.00  0.00    +0.042 C 
ATOM      3  C   UNL     1      36.082 -21.166 -19.038  0.00  0.00    +0.027 C 
ATOM      4  C   UNL     1      34.084 -20.738 -20.307  0.00  0.00    +0.145 C 
ATOM      5  C   UNL     1      34.803 -19.793 -21.020  0.00  0.00    +0.093 C 
ATOM      6  C   UNL     1      36.713 -20.203 -19.808  0.00  0.00    +0.097 C 
ATOM      7  C   UNL     1      34.145 -19.017 -22.113  0.00  0.00    +0.055 C 
ENDROOT
BRANCH   4   8
ATOM      8  O   UNL     1      32.776 -20.979 -20.584  0.00  0.00    -0.505 OA
ATOM      9  H   UNL     1      32.541 -21.479 -21.341  0.00  0.00    +0.292 HD
ENDBRANCH   4   8
BRANCH   2  10
ATOM     10  C   UNL     1      34.010 -22.463 -18.500  0.00  0.00    +0.166 C 
BRANCH  10  11
ATOM     11  O   UNL     1      33.853 -23.639 -19.282  0.00  0.00    -0.377 OA
ATOM     12  H   UNL     1      34.309 -23.527 -20.130  0.00  0.00    +0.211 HD
ENDBRANCH  10  11
ENDBRANCH   2  10
BRANCH   3  13
ATOM     13  C   UNL     1      36.837 -21.881 -17.972  0.00  0.00    +0.165 C 
BRANCH  13  14
ATOM     14  O   UNL     1      37.216 -20.957 -16.958  0.00  0.00    -0.377 OA
ATOM     15  H   UNL     1      38.097 -21.188 -16.622  0.00  0.00    +0.211 HD
ENDBRANCH  13  14
ENDBRANCH   3  13
TORSDOF 5
ENDMDL
MODEL 6
REMARK VINA RESULT:      -5.9     12.547     14.363
REMARK  Name = 1054
REMARK  5 active torsions:
REMARK  status: ('A' for Active; 'I' for Inactive)
REMARK    1  A    between atoms: C_2  and  C_10
REMARK    2  A    between atoms: C_3  and  C_13
REMARK    3  A    between atoms: C_4  and  O_8
REMARK    4  A    between atoms: C_10  and  O_11
REMARK    5  A    between atoms: C_13  and  O_14
REMARK                            x       y       z     vdW  Elec       q    Type
REMARK                         _______ _______ _______ _____ _____    ______ ____
ROOT
ATOM      1  N   UNL     1      37.097 -22.964 -15.824  0.00  0.00    -0.245 NA
ATOM      2  C   UNL     1      37.253 -25.474 -14.602  0.00  0.00    +0.042 C 
ATOM      3  C   UNL     1      38.414 -24.805 -14.977  0.00  0.00    +0.027 C 
ATOM      4  C   UNL     1      36.014 -24.888 -14.838  0.00  0.00    +0.145 C 
ATOM      5  C   UNL     1      35.990 -23.644 -15.446  0.00  0.00    +0.093 C 
ATOM      6  C   UNL     1      38.283 -23.565 -15.579  0.00  0.00    +0.097 C 
ATOM      7  C   UNL     1      34.686 -22.970 -15.722  0.00  0.00    +0.055 C 
ENDROOT
BRANCH   4   8
ATOM      8  O   UNL     1      34.864 -25.518 -14.483  0.00  0.00    -0.505 OA
ATOM      9  H   UNL     1      34.324 -25.914 -15.139  0.00  0.00    +0.292 HD
ENDBRANCH   4   8
BRANCH   2  10
ATOM     10  C   UNL     1      37.334 -26.815 -13.947  0.00  0.00    +0.166 C 
BRANCH  10  11
ATOM     11  O   UNL     1      36.870 -26.712 -12.609  0.00  0.00    -0.377 OA
ATOM     12  H   UNL     1      37.525 -26.235 -12.075  0.00  0.00    +0.211 HD
ENDBRANCH  10  11
ENDBRANCH   2  10
BRANCH   3  13
ATOM     13  C   UNL     1      39.767 -25.385 -14.750  0.00  0.00    +0.165 C 
BRANCH  13  14
ATOM     14  O   UNL     1      40.306 -25.833 -15.988  0.00  0.00    -0.377 OA
ATOM     15  H   UNL     1      39.636 -26.350 -16.464  0.00  0.00    +0.211 HD
ENDBRANCH  13  14
ENDBRANCH   3  13
TORSDOF 5
ENDMDL
MODEL 7
REMARK VINA RESULT:      -5.8     12.167     14.227
REMARK  Name = 1054
REMARK  5 active torsions:
REMARK  status: ('A' for Active; 'I' for Inactive)
REMARK    1  A    between atoms: C_2  and  C_10
REMARK    2  A    between atoms: C_3  and  C_13
REMARK    3  A    between atoms: C_4  and  O_8
REMARK    4  A    between atoms: C_10  and  O_11
REMARK    5  A    between atoms: C_13  and  O_14
REMARK                            x       y       z     vdW  Elec       q    Type
REMARK                         _______ _______ _______ _____ _____    ______ ____
ROOT
ATOM      1  N   UNL     1      35.746 -22.743 -14.911  0.00  0.00    -0.245 NA
ATOM      2  C   UNL     1      37.718 -24.520 -14.035  0.00  0.00    +0.042 C 
ATOM      3  C   UNL     1      36.531 -24.387 -13.322  0.00  0.00    +0.027 C 
ATOM      4  C   UNL     1      37.920 -23.765 -15.185  0.00  0.00    +0.145 C 
ATOM      5  C   UNL     1      36.913 -22.899 -15.578  0.00  0.00    +0.093 C 
ATOM      6  C   UNL     1      35.586 -23.493 -13.797  0.00  0.00    +0.097 C 
ATOM      7  C   UNL     1      37.077 -22.066 -16.806  0.00  0.00    +0.055 C 
ENDROOT
BRANCH   4   8
ATOM      8  O   UNL     1      39.070 -23.874 -15.901  0.00  0.00    -0.505 OA
ATOM      9  H   UNL     1      39.052 -24.236 -16.765  0.00  0.00    +0.292 HD
ENDBRANCH   4   8
BRANCH   2  10
ATOM     10  C   UNL     1      38.774 -25.470 -13.569  0.00  0.00    +0.166 C 
BRANCH  10  11
ATOM     11  O   UNL     1      38.924 -26.510 -14.526  0.00  0.00    -0.377 OA
ATOM     12  H   UNL     1      39.063 -26.123 -15.405  0.00  0.00    +0.211 HD
ENDBRANCH  10  11
ENDBRANCH   2  10
BRANCH   3  13
ATOM     13  C   UNL     1      36.262 -25.169 -12.083  0.00  0.00    +0.165 C 
BRANCH  13  14
ATOM     14  O   UNL     1      34.896 -25.020 -11.715  0.00  0.00    -0.377 OA
ATOM     15  H   UNL     1      34.780 -24.188 -11.230  0.00  0.00    +0.211 HD
ENDBRANCH  13  14
ENDBRANCH   3  13
TORSDOF 5
ENDMDL
MODEL 8
REMARK VINA RESULT:      -5.8      2.293      3.382
REMARK  Name = 1054
REMARK  5 active torsions:
REMARK  status: ('A' for Active; 'I' for Inactive)
REMARK    1  A    between atoms: C_2  and  C_10
REMARK    2  A    between atoms: C_3  and  C_13
REMARK    3  A    between atoms: C_4  and  O_8
REMARK    4  A    between atoms: C_10  and  O_11
REMARK    5  A    between atoms: C_13  and  O_14
REMARK                            x       y       z     vdW  Elec       q    Type
REMARK                         _______ _______ _______ _____ _____    ______ ____
ROOT
ATOM      1  N   UNL     1      35.361 -17.938 -23.784  0.00  0.00    -0.245 NA
ATOM      2  C   UNL     1      34.218 -15.561 -22.858  0.00  0.00    +0.042 C 
ATOM      3  C   UNL     1      34.126 -15.902 -24.203  0.00  0.00    +0.027 C 
ATOM      4  C   UNL     1      34.881 -16.407 -21.975  0.00  0.00    +0.145 C 
ATOM      5  C   UNL     1      35.430 -17.573 -22.483  0.00  0.00    +0.093 C 
ATOM      6  C   UNL     1      34.710 -17.090 -24.612  0.00  0.00    +0.097 C 
ATOM      7  C   UNL     1      36.151 -18.518 -21.579  0.00  0.00    +0.055 C 
ENDROOT
BRANCH   4   8
ATOM      8  O   UNL     1      34.986 -16.099 -20.656  0.00  0.00    -0.505 OA
ATOM      9  H   UNL     1      35.112 -16.780 -20.024  0.00  0.00    +0.292 HD
ENDBRANCH   4   8
BRANCH   2  10
ATOM     10  C   UNL     1      33.607 -14.291 -22.359  0.00  0.00    +0.166 C 
BRANCH  10  11
ATOM     11  O   UNL     1      32.440 -14.595 -21.610  0.00  0.00    -0.377 OA
ATOM     12  H   UNL     1      31.653 -14.378 -22.133  0.00  0.00    +0.211 HD
ENDBRANCH  10  11
ENDBRANCH   2  10
BRANCH   3  13
ATOM     13  C   UNL     1      33.430 -15.034 -25.192  0.00  0.00    +0.165 C 
BRANCH  13  14
ATOM     14  O   UNL     1      33.567 -15.593 -26.494  0.00  0.00    -0.377 OA
ATOM     15  H   UNL     1      32.687 -15.745 -26.874  0.00  0.00    +0.211 HD
ENDBRANCH  13  14
ENDBRANCH   3  13
TORSDOF 5
ENDMDL
MODEL 9
REMARK VINA RESULT:      -5.8      1.658      2.340
REMARK  Name = 1054
REMARK  5 active torsions:
REMARK  status: ('A' for Active; 'I' for Inactive)
REMARK    1  A    between atoms: C_2  and  C_10
REMARK    2  A    between atoms: C_3  and  C_13
REMARK    3  A    between atoms: C_4  and  O_8
REMARK    4  A    between atoms: C_10  and  O_11
REMARK    5  A    between atoms: C_13  and  O_14
REMARK                            x       y       z     vdW  Elec       q    Type
REMARK                         _______ _______ _______ _____ _____    ______ ____
ROOT
ATOM      1  N   UNL     1      35.025 -16.856 -20.743  0.00  0.00    -0.245 NA
ATOM      2  C   UNL     1      34.704 -16.573 -23.506  0.00  0.00    +0.042 C 
ATOM      3  C   UNL     1      34.174 -15.622 -22.640  0.00  0.00    +0.027 C 
ATOM      4  C   UNL     1      35.394 -17.665 -22.991  0.00  0.00    +0.145 C 
ATOM      5  C   UNL     1      35.527 -17.760 -21.616  0.00  0.00    +0.093 C 
ATOM      6  C   UNL     1      34.360 -15.808 -21.280  0.00  0.00    +0.097 C 
ATOM      7  C   UNL     1      36.260 -18.912 -21.010  0.00  0.00    +0.055 C 
ENDROOT
BRANCH   4   8
ATOM      8  O   UNL     1      35.922 -18.610 -23.813  0.00  0.00    -0.505 OA
ATOM      9  H   UNL     1      35.949 -18.464 -24.739  0.00  0.00    +0.292 HD
ENDBRANCH   4   8
BRANCH   2  10
ATOM     10  C   UNL     1      34.535 -16.424 -24.984  0.00  0.00    +0.166 C 
BRANCH  10  11
ATOM     11  O   UNL     1      33.956 -17.610 -25.511  0.00  0.00    -0.377 OA
ATOM     12  H   UNL     1      34.610 -18.073 -26.057  0.00  0.00    +0.211 HD
ENDBRANCH  10  11
ENDBRANCH   2  10
BRANCH   3  13
ATOM     13  C   UNL     1      33.425 -14.434 -23.135  0.00  0.00    +0.165 C 
BRANCH  13  14
ATOM     14  O   UNL     1      34.314 -13.329 -23.254  0.00  0.00    -0.377 OA
ATOM     15  H   UNL     1      34.077 -12.806 -24.037  0.00  0.00    +0.211 HD
ENDBRANCH  13  14
ENDBRANCH   3  13
TORSDOF 5
ENDMDL
