MODEL 1
REMARK VINA RESULT:      -9.0      0.000      0.000
REMARK  Name = 5284587
REMARK  4 active torsions:
REMARK  status: ('A' for Active; 'I' for Inactive)
REMARK    1  A    between atoms: C_6  and  O_23
REMARK    2  A    between atoms: C_6  and  C_26
REMARK    3  A    between atoms: C_26  and  C_27
REMARK    4  A    between atoms: C_27  and  O_28
REMARK                            x       y       z     vdW  Elec       q    Type
REMARK                         _______ _______ _______ _____ _____    ______ ____
ROOT
ATOM      1  O   UNL     1      32.810 -23.766 -17.146  0.00  0.00    -0.296 OA
ATOM      2  O   UNL     1      33.398 -18.582 -21.142  0.00  0.00    -0.287 OA
ATOM      3  C   UNL     1      35.654 -23.820 -15.152  0.00  0.00    +0.036 C 
ATOM      4  C   UNL     1      36.549 -22.823 -15.932  0.00  0.00    +0.004 C 
ATOM      5  C   UNL     1      36.211 -22.753 -17.430  0.00  0.00    +0.008 C 
ATOM      6  C   UNL     1      36.317 -23.743 -13.744  0.00  0.00    +0.142 C 
ATOM      7  C   UNL     1      34.725 -22.297 -17.600  0.00  0.00    +0.065 C 
ATOM      8  C   UNL     1      37.960 -23.239 -15.533  0.00  0.00    +0.003 C 
ATOM      9  C   UNL     1      37.843 -23.561 -14.022  0.00  0.00    +0.032 C 
ATOM     10  C   UNL     1      34.207 -23.322 -15.261  0.00  0.00    +0.067 C 
ATOM     11  C   UNL     1      34.306 -22.134 -19.104  0.00  0.00    +0.040 C 
ATOM     12  C   UNL     1      37.165 -21.803 -18.170  0.00  0.00    +0.005 C 
ATOM     13  C   UNL     1      33.820 -23.201 -16.730  0.00  0.00    +0.151 C 
ATOM     14  C   UNL     1      35.723 -25.270 -15.708  0.00  0.00    +0.003 C 
ATOM     15  C   UNL     1      36.792 -21.664 -19.642  0.00  0.00    +0.022 C 
ATOM     16  C   UNL     1      35.353 -21.237 -19.781  0.00  0.00    -0.038 C 
ATOM     17  C   UNL     1      38.744 -24.735 -13.653  0.00  0.00    +0.003 C 
ATOM     18  C   UNL     1      34.255 -23.481 -19.860  0.00  0.00    +0.009 C 
ATOM     19  C   UNL     1      32.917 -21.517 -19.202  0.00  0.00    -0.019 C 
ATOM     20  C   UNL     1      35.055 -20.098 -20.426  0.00  0.00    +0.034 C 
ATOM     21  C   UNL     1      32.616 -20.382 -19.842  0.00  0.00    +0.038 C 
ATOM     22  C   UNL     1      33.667 -19.607 -20.525  0.00  0.00    +0.195 C 
ENDROOT
BRANCH   6  23
ATOM     23  O   UNL     1      35.846 -22.572 -13.062  0.00  0.00    -0.380 OA
ATOM     24  H   UNL     1      35.245 -22.080 -13.642  0.00  0.00    +0.211 HD
ENDBRANCH   6  23
BRANCH   6  26
ATOM     25  O   UNL     1      36.355 -25.979 -12.923  0.00  0.00    -0.291 OA
ATOM     26  C   UNL     1      35.919 -24.836 -12.797  0.00  0.00    +0.204 C 
BRANCH  26  27
ATOM     27  C   UNL     1      34.959 -24.450 -11.692  0.00  0.00    +0.204 C 
BRANCH  27  28
ATOM     28  O   UNL     1      35.280 -25.126 -10.494  0.00  0.00    -0.375 OA
ATOM     29  H   UNL     1      34.494 -25.169  -9.928  0.00  0.00    +0.211 HD
ENDBRANCH  27  28
ENDBRANCH  26  27
ENDBRANCH   6  26
TORSDOF 4
ENDMDL
MODEL 2
REMARK VINA RESULT:      -8.8      3.158      6.643
REMARK  Name = 5284587
REMARK  4 active torsions:
REMARK  status: ('A' for Active; 'I' for Inactive)
REMARK    1  A    between atoms: C_6  and  O_23
REMARK    2  A    between atoms: C_6  and  C_26
REMARK    3  A    between atoms: C_26  and  C_27
REMARK    4  A    between atoms: C_27  and  O_28
REMARK                            x       y       z     vdW  Elec       q    Type
REMARK                         _______ _______ _______ _____ _____    ______ ____
ROOT
ATOM      1  O   UNL     1      34.950 -24.584 -11.791  0.00  0.00    -0.296 OA
ATOM      2  O   UNL     1      40.645 -25.909 -14.791  0.00  0.00    -0.287 OA
ATOM      3  C   UNL     1      32.625 -23.948 -14.293  0.00  0.00    +0.036 C 
ATOM      4  C   UNL     1      33.575 -23.771 -15.505  0.00  0.00    +0.004 C 
ATOM      5  C   UNL     1      34.979 -23.286 -15.106  0.00  0.00    +0.008 C 
ATOM      6  C   UNL     1      31.303 -24.314 -15.031  0.00  0.00    +0.142 C 
ATOM      7  C   UNL     1      35.627 -24.329 -14.138  0.00  0.00    +0.065 C 
ATOM      8  C   UNL     1      32.761 -22.905 -16.460  0.00  0.00    +0.003 C 
ATOM      9  C   UNL     1      31.324 -23.472 -16.346  0.00  0.00    +0.032 C 
ATOM     10  C   UNL     1      33.232 -25.029 -13.388  0.00  0.00    +0.067 C 
ATOM     11  C   UNL     1      37.093 -23.949 -13.726  0.00  0.00    +0.040 C 
ATOM     12  C   UNL     1      35.861 -23.063 -16.343  0.00  0.00    +0.005 C 
ATOM     13  C   UNL     1      34.643 -24.619 -12.981  0.00  0.00    +0.151 C 
ATOM     14  C   UNL     1      32.444 -22.648 -13.461  0.00  0.00    +0.003 C 
ATOM     15  C   UNL     1      37.280 -22.657 -15.959  0.00  0.00    +0.022 C 
ATOM     16  C   UNL     1      37.878 -23.670 -15.016  0.00  0.00    -0.038 C 
ATOM     17  C   UNL     1      30.296 -22.350 -16.450  0.00  0.00    +0.003 C 
ATOM     18  C   UNL     1      37.156 -22.689 -12.833  0.00  0.00    +0.009 C 
ATOM     19  C   UNL     1      37.731 -25.085 -12.937  0.00  0.00    -0.019 C 
ATOM     20  C   UNL     1      39.012 -24.305 -15.353  0.00  0.00    +0.034 C 
ATOM     21  C   UNL     1      38.859 -25.722 -13.270  0.00  0.00    +0.038 C 
ATOM     22  C   UNL     1      39.594 -25.354 -14.492  0.00  0.00    +0.195 C 
ENDROOT
BRANCH   6  23
ATOM     23  O   UNL     1      31.329 -25.703 -15.390  0.00  0.00    -0.380 OA
ATOM     24  H   UNL     1      30.445 -25.979 -15.676  0.00  0.00    +0.211 HD
ENDBRANCH   6  23
BRANCH   6  26
ATOM     25  O   UNL     1      30.114 -23.853 -13.018  0.00  0.00    -0.291 OA
ATOM     26  C   UNL     1      30.065 -24.234 -14.186  0.00  0.00    +0.204 C 
BRANCH  26  27
ATOM     27  C   UNL     1      28.770 -24.646 -14.854  0.00  0.00    +0.204 C 
BRANCH  27  28
ATOM     28  O   UNL     1      28.281 -25.846 -14.292  0.00  0.00    -0.375 OA
ATOM     29  H   UNL     1      28.817 -26.083 -13.520  0.00  0.00    +0.211 HD
ENDBRANCH  27  28
ENDBRANCH  26  27
ENDBRANCH   6  26
TORSDOF 4
ENDMDL
MODEL 3
REMARK VINA RESULT:      -8.0     10.397     14.848
REMARK  Name = 5284587
REMARK  4 active torsions:
REMARK  status: ('A' for Active; 'I' for Inactive)
REMARK    1  A    between atoms: C_6  and  O_23
REMARK    2  A    between atoms: C_6  and  C_26
REMARK    3  A    between atoms: C_26  and  C_27
REMARK    4  A    between atoms: C_27  and  O_28
REMARK                            x       y       z     vdW  Elec       q    Type
REMARK                         _______ _______ _______ _____ _____    ______ ____
ROOT
ATOM      1  O   UNL     1      34.938  -9.661 -24.971  0.00  0.00    -0.296 OA
ATOM      2  O   UNL     1      30.670  -4.738 -24.109  0.00  0.00    -0.287 OA
ATOM      3  C   UNL     1      33.491 -12.495 -23.578  0.00  0.00    +0.036 C 
ATOM      4  C   UNL     1      32.346 -11.840 -22.764  0.00  0.00    +0.004 C 
ATOM      5  C   UNL     1      32.656 -10.396 -22.339  0.00  0.00    +0.008 C 
ATOM      6  C   UNL     1      32.927 -13.938 -23.735  0.00  0.00    +0.142 C 
ATOM      7  C   UNL     1      32.895  -9.525 -23.615  0.00  0.00    +0.065 C 
ATOM      8  C   UNL     1      32.068 -12.866 -21.670  0.00  0.00    +0.003 C 
ATOM      9  C   UNL     1      32.171 -14.228 -22.400  0.00  0.00    +0.032 C 
ATOM     10  C   UNL     1      33.665 -11.678 -24.865  0.00  0.00    +0.067 C 
ATOM     11  C   UNL     1      33.156  -8.014 -23.282  0.00  0.00    +0.040 C 
ATOM     12  C   UNL     1      31.523  -9.814 -21.481  0.00  0.00    +0.005 C 
ATOM     13  C   UNL     1      33.946 -10.223 -24.510  0.00  0.00    +0.151 C 
ATOM     14  C   UNL     1      34.847 -12.520 -22.818  0.00  0.00    +0.003 C 
ATOM     15  C   UNL     1      31.782  -8.356 -21.118  0.00  0.00    +0.022 C 
ATOM     16  C   UNL     1      32.021  -7.540 -22.363  0.00  0.00    -0.038 C 
ATOM     17  C   UNL     1      32.789 -15.281 -21.486  0.00  0.00    +0.003 C 
ATOM     18  C   UNL     1      34.501  -7.786 -22.556  0.00  0.00    +0.009 C 
ATOM     19  C   UNL     1      33.199  -7.190 -24.563  0.00  0.00    -0.019 C 
ATOM     20  C   UNL     1      31.226  -6.494 -22.637  0.00  0.00    +0.034 C 
ATOM     21  C   UNL     1      32.407  -6.148 -24.841  0.00  0.00    +0.038 C 
ATOM     22  C   UNL     1      31.380  -5.710 -23.879  0.00  0.00    +0.195 C 
ENDROOT
BRANCH   6  23
ATOM     23  O   UNL     1      31.969 -13.959 -24.803  0.00  0.00    -0.380 OA
ATOM     24  H   UNL     1      31.081 -14.093 -24.438  0.00  0.00    +0.211 HD
ENDBRANCH   6  23
BRANCH   6  26
ATOM     25  O   UNL     1      34.996 -15.113 -23.607  0.00  0.00    -0.291 OA
ATOM     26  C   UNL     1      33.926 -14.961 -24.193  0.00  0.00    +0.204 C 
BRANCH  26  27
ATOM     27  C   UNL     1      33.538 -15.782 -25.404  0.00  0.00    +0.204 C 
BRANCH  27  28
ATOM     28  O   UNL     1      33.768 -15.054 -26.593  0.00  0.00    -0.375 OA
ATOM     29  H   UNL     1      33.025 -15.187 -27.201  0.00  0.00    +0.211 HD
ENDBRANCH  27  28
ENDBRANCH  26  27
ENDBRANCH   6  26
TORSDOF 4
ENDMDL
MODEL 4
REMARK VINA RESULT:      -7.9      9.879     15.558
REMARK  Name = 5284587
REMARK  4 active torsions:
REMARK  status: ('A' for Active; 'I' for Inactive)
REMARK    1  A    between atoms: C_6  and  O_23
REMARK    2  A    between atoms: C_6  and  C_26
REMARK    3  A    between atoms: C_26  and  C_27
REMARK    4  A    between atoms: C_27  and  O_28
REMARK                            x       y       z     vdW  Elec       q    Type
REMARK                         _______ _______ _______ _____ _____    ______ ____
ROOT
ATOM      1  O   UNL     1      33.930 -11.862 -25.142  0.00  0.00    -0.296 OA
ATOM      2  O   UNL     1      34.901 -16.426 -20.514  0.00  0.00    -0.287 OA
ATOM      3  C   UNL     1      33.106  -8.920 -23.489  0.00  0.00    +0.036 C 
ATOM      4  C   UNL     1      32.808  -9.480 -22.075  0.00  0.00    +0.004 C 
ATOM      5  C   UNL     1      32.341 -10.945 -22.092  0.00  0.00    +0.008 C 
ATOM      6  C   UNL     1      33.423  -7.436 -23.137  0.00  0.00    +0.142 C 
ATOM      7  C   UNL     1      33.456 -11.832 -22.733  0.00  0.00    +0.065 C 
ATOM      8  C   UNL     1      31.871  -8.434 -21.479  0.00  0.00    +0.003 C 
ATOM      9  C   UNL     1      32.467  -7.086 -21.953  0.00  0.00    +0.032 C 
ATOM     10  C   UNL     1      34.255  -9.749 -24.079  0.00  0.00    +0.067 C 
ATOM     11  C   UNL     1      33.095 -13.360 -22.734  0.00  0.00    +0.040 C 
ATOM     12  C   UNL     1      31.995 -11.433 -20.677  0.00  0.00    +0.005 C 
ATOM     13  C   UNL     1      33.863 -11.222 -24.094  0.00  0.00    +0.151 C 
ATOM     14  C   UNL     1      31.888  -9.004 -24.452  0.00  0.00    +0.003 C 
ATOM     15  C   UNL     1      31.605 -12.907 -20.669  0.00  0.00    +0.022 C 
ATOM     16  C   UNL     1      32.690 -13.740 -21.303  0.00  0.00    -0.038 C 
ATOM     17  C   UNL     1      31.355  -6.085 -22.253  0.00  0.00    +0.003 C 
ATOM     18  C   UNL     1      31.919 -13.694 -23.680  0.00  0.00    +0.009 C 
ATOM     19  C   UNL     1      34.288 -14.185 -23.200  0.00  0.00    -0.019 C 
ATOM     20  C   UNL     1      33.277 -14.720 -20.596  0.00  0.00    +0.034 C 
ATOM     21  C   UNL     1      34.876 -15.160 -22.498  0.00  0.00    +0.038 C 
ATOM     22  C   UNL     1      34.389 -15.513 -21.153  0.00  0.00    +0.195 C 
ENDROOT
BRANCH   6  23
ATOM     23  O   UNL     1      34.773  -7.339 -22.662  0.00  0.00    -0.380 OA
ATOM     24  H   UNL     1      34.787  -7.456 -21.700  0.00  0.00    +0.211 HD
ENDBRANCH   6  23
BRANCH   6  26
ATOM     25  O   UNL     1      32.476  -5.769 -24.552  0.00  0.00    -0.291 OA
ATOM     26  C   UNL     1      33.436  -6.497 -24.307  0.00  0.00    +0.204 C 
BRANCH  26  27
ATOM     27  C   UNL     1      34.688  -6.504 -25.159  0.00  0.00    +0.204 C 
BRANCH  27  28
ATOM     28  O   UNL     1      34.538  -5.651 -26.274  0.00  0.00    -0.375 OA
ATOM     29  H   UNL     1      33.641  -5.741 -26.630  0.00  0.00    +0.211 HD
ENDBRANCH  27  28
ENDBRANCH  26  27
ENDBRANCH   6  26
TORSDOF 4
ENDMDL
MODEL 5
REMARK VINA RESULT:      -7.7      3.008      4.458
REMARK  Name = 5284587
REMARK  4 active torsions:
REMARK  status: ('A' for Active; 'I' for Inactive)
REMARK    1  A    between atoms: C_6  and  O_23
REMARK    2  A    between atoms: C_6  and  C_26
REMARK    3  A    between atoms: C_26  and  C_27
REMARK    4  A    between atoms: C_27  and  O_28
REMARK                            x       y       z     vdW  Elec       q    Type
REMARK                         _______ _______ _______ _____ _____    ______ ____
ROOT
ATOM      1  O   UNL     1      32.299 -25.585 -13.222  0.00  0.00    -0.296 OA
ATOM      2  O   UNL     1      27.557 -21.669 -15.539  0.00  0.00    -0.287 OA
ATOM      3  C   UNL     1      35.323 -24.173 -14.186  0.00  0.00    +0.036 C 
ATOM      4  C   UNL     1      34.821 -23.157 -15.243  0.00  0.00    +0.004 C 
ATOM      5  C   UNL     1      33.499 -23.578 -15.906  0.00  0.00    +0.008 C 
ATOM      6  C   UNL     1      36.691 -23.529 -13.813  0.00  0.00    +0.142 C 
ATOM      7  C   UNL     1      32.394 -23.713 -14.809  0.00  0.00    +0.065 C 
ATOM      8  C   UNL     1      36.040 -22.955 -16.136  0.00  0.00    +0.003 C 
ATOM      9  C   UNL     1      37.228 -22.914 -15.144  0.00  0.00    +0.032 C 
ATOM     10  C   UNL     1      34.267 -24.241 -13.075  0.00  0.00    +0.067 C 
ATOM     11  C   UNL     1      30.988 -24.079 -15.401  0.00  0.00    +0.040 C 
ATOM     12  C   UNL     1      33.078 -22.574 -16.990  0.00  0.00    +0.005 C 
ATOM     13  C   UNL     1      32.920 -24.626 -13.676  0.00  0.00    +0.151 C 
ATOM     14  C   UNL     1      35.531 -25.603 -14.761  0.00  0.00    +0.003 C 
ATOM     15  C   UNL     1      31.729 -22.939 -17.601  0.00  0.00    +0.022 C 
ATOM     16  C   UNL     1      30.684 -23.075 -16.524  0.00  0.00    -0.038 C 
ATOM     17  C   UNL     1      38.458 -23.581 -15.752  0.00  0.00    +0.003 C 
ATOM     18  C   UNL     1      30.942 -25.505 -15.995  0.00  0.00    +0.009 C 
ATOM     19  C   UNL     1      29.923 -24.016 -14.313  0.00  0.00    -0.019 C 
ATOM     20  C   UNL     1      29.586 -22.303 -16.558  0.00  0.00    +0.034 C 
ATOM     21  C   UNL     1      28.829 -23.247 -14.343  0.00  0.00    +0.038 C 
ATOM     22  C   UNL     1      28.572 -22.355 -15.487  0.00  0.00    +0.195 C 
ENDROOT
BRANCH   6  23
ATOM     23  O   UNL     1      36.474 -22.459 -12.883  0.00  0.00    -0.380 OA
ATOM     24  H   UNL     1      36.343 -22.825 -11.994  0.00  0.00    +0.211 HD
ENDBRANCH   6  23
BRANCH   6  26
ATOM     25  O   UNL     1      38.070 -25.455 -13.546  0.00  0.00    -0.291 OA
ATOM     26  C   UNL     1      37.623 -24.423 -13.048  0.00  0.00    +0.204 C 
BRANCH  26  27
ATOM     27  C   UNL     1      37.972 -23.982 -11.642  0.00  0.00    +0.204 C 
BRANCH  27  28
ATOM     28  O   UNL     1      39.068 -23.092 -11.657  0.00  0.00    -0.375 OA
ATOM     29  H   UNL     1      39.089 -22.592 -10.827  0.00  0.00    +0.211 HD
ENDBRANCH  27  28
ENDBRANCH  26  27
ENDBRANCH   6  26
TORSDOF 4
ENDMDL
MODEL 6
REMARK VINA RESULT:      -6.8      3.441      5.551
REMARK  Name = 5284587
REMARK  4 active torsions:
REMARK  status: ('A' for Active; 'I' for Inactive)
REMARK    1  A    between atoms: C_6  and  O_23
REMARK    2  A    between atoms: C_6  and  C_26
REMARK    3  A    between atoms: C_26  and  C_27
REMARK    4  A    between atoms: C_27  and  O_28
REMARK                            x       y       z     vdW  Elec       q    Type
REMARK                         _______ _______ _______ _____ _____    ______ ____
ROOT
ATOM      1  O   UNL     1      34.128 -23.899 -17.057  0.00  0.00    -0.296 OA
ATOM      2  O   UNL     1      28.278 -25.500 -14.527  0.00  0.00    -0.287 OA
ATOM      3  C   UNL     1      36.463 -24.311 -14.517  0.00  0.00    +0.036 C 
ATOM      4  C   UNL     1      35.515 -24.421 -13.296  0.00  0.00    +0.004 C 
ATOM      5  C   UNL     1      34.175 -23.696 -13.503  0.00  0.00    +0.008 C 
ATOM      6  C   UNL     1      37.728 -25.019 -13.950  0.00  0.00    +0.142 C 
ATOM      7  C   UNL     1      33.441 -24.316 -14.736  0.00  0.00    +0.065 C 
ATOM      8  C   UNL     1      36.398 -23.982 -12.133  0.00  0.00    +0.003 C 
ATOM      9  C   UNL     1      37.771 -24.629 -12.439  0.00  0.00    +0.032 C 
ATOM     10  C   UNL     1      35.765 -24.989 -15.703  0.00  0.00    +0.067 C 
ATOM     11  C   UNL     1      32.028 -23.680 -14.987  0.00  0.00    +0.040 C 
ATOM     12  C   UNL     1      33.300 -23.778 -12.244  0.00  0.00    +0.005 C 
ATOM     13  C   UNL     1      34.410 -24.333 -15.941  0.00  0.00    +0.151 C 
ATOM     14  C   UNL     1      36.790 -22.842 -14.909  0.00  0.00    +0.003 C 
ATOM     15  C   UNL     1      31.937 -23.131 -12.461  0.00  0.00    +0.022 C 
ATOM     16  C   UNL     1      31.254 -23.735 -13.662  0.00  0.00    -0.038 C 
ATOM     17  C   UNL     1      38.906 -23.705 -12.009  0.00  0.00    +0.003 C 
ATOM     18  C   UNL     1      32.109 -22.206 -15.445  0.00  0.00    +0.009 C 
ATOM     19  C   UNL     1      31.292 -24.444 -16.080  0.00  0.00    -0.019 C 
ATOM     20  C   UNL     1      30.056 -24.325 -13.521  0.00  0.00    +0.034 C 
ATOM     21  C   UNL     1      30.099 -25.035 -15.943  0.00  0.00    +0.038 C 
ATOM     22  C   UNL     1      29.385 -24.990 -14.655  0.00  0.00    +0.195 C 
ENDROOT
BRANCH   6  23
ATOM     23  O   UNL     1      37.555 -26.441 -14.038  0.00  0.00    -0.380 OA
ATOM     24  H   UNL     1      36.945 -26.648 -14.763  0.00  0.00    +0.211 HD
ENDBRANCH   6  23
BRANCH   6  26
ATOM     25  O   UNL     1      39.151 -23.787 -15.411  0.00  0.00    -0.291 OA
ATOM     26  C   UNL     1      38.982 -24.808 -14.747  0.00  0.00    +0.204 C 
BRANCH  26  27
ATOM     27  C   UNL     1      40.011 -25.917 -14.685  0.00  0.00    +0.204 C 
BRANCH  27  28
ATOM     28  O   UNL     1      40.623 -26.099 -15.945  0.00  0.00    -0.375 OA
ATOM     29  H   UNL     1      40.841 -27.036 -16.065  0.00  0.00    +0.211 HD
ENDBRANCH  27  28
ENDBRANCH  26  27
ENDBRANCH   6  26
TORSDOF 4
ENDMDL
MODEL 7
REMARK VINA RESULT:      -6.7      6.234     10.449
REMARK  Name = 5284587
REMARK  4 active torsions:
REMARK  status: ('A' for Active; 'I' for Inactive)
REMARK    1  A    between atoms: C_6  and  O_23
REMARK    2  A    between atoms: C_6  and  C_26
REMARK    3  A    between atoms: C_26  and  C_27
REMARK    4  A    between atoms: C_27  and  O_28
REMARK                            x       y       z     vdW  Elec       q    Type
REMARK                         _______ _______ _______ _____ _____    ______ ____
ROOT
ATOM      1  O   UNL     1      33.688 -14.054 -21.084  0.00  0.00    -0.296 OA
ATOM      2  O   UNL     1      34.694  -9.456 -25.670  0.00  0.00    -0.287 OA
ATOM      3  C   UNL     1      34.690 -17.080 -22.464  0.00  0.00    +0.036 C 
ATOM      4  C   UNL     1      34.791 -16.675 -23.957  0.00  0.00    +0.004 C 
ATOM      5  C   UNL     1      33.865 -15.506 -24.329  0.00  0.00    +0.008 C 
ATOM      6  C   UNL     1      35.627 -18.324 -22.452  0.00  0.00    +0.142 C 
ATOM      7  C   UNL     1      34.242 -14.257 -23.468  0.00  0.00    +0.065 C 
ATOM      8  C   UNL     1      34.605 -18.000 -24.689  0.00  0.00    +0.003 C 
ATOM      9  C   UNL     1      35.406 -19.014 -23.836  0.00  0.00    +0.032 C 
ATOM     10  C   UNL     1      35.135 -15.873 -21.629  0.00  0.00    +0.067 C 
ATOM     11  C   UNL     1      33.389 -12.989 -23.825  0.00  0.00    +0.040 C 
ATOM     12  C   UNL     1      33.952 -15.185 -25.829  0.00  0.00    +0.005 C 
ATOM     13  C   UNL     1      34.271 -14.666 -21.976  0.00  0.00    +0.151 C 
ATOM     14  C   UNL     1      33.250 -17.478 -22.033  0.00  0.00    +0.003 C 
ATOM     15  C   UNL     1      33.097 -13.977 -26.197  0.00  0.00    +0.022 C 
ATOM     16  C   UNL     1      33.471 -12.790 -25.346  0.00  0.00    -0.038 C 
ATOM     17  C   UNL     1      34.703 -20.368 -23.814  0.00  0.00    +0.003 C 
ATOM     18  C   UNL     1      31.902 -13.139 -23.431  0.00  0.00    +0.009 C 
ATOM     19  C   UNL     1      33.922 -11.768 -23.087  0.00  0.00    -0.019 C 
ATOM     20  C   UNL     1      33.895 -11.658 -25.929  0.00  0.00    +0.034 C 
ATOM     21  C   UNL     1      34.348 -10.639 -23.665  0.00  0.00    +0.038 C 
ATOM     22  C   UNL     1      34.336 -10.497 -25.131  0.00  0.00    +0.195 C 
ENDROOT
BRANCH   6  23
ATOM     23  O   UNL     1      36.992 -17.889 -22.385  0.00  0.00    -0.380 OA
ATOM     24  H   UNL     1      37.572 -18.588 -22.725  0.00  0.00    +0.211 HD
ENDBRANCH   6  23
BRANCH   6  26
ATOM     25  O   UNL     1      34.420 -19.559 -20.810  0.00  0.00    -0.291 OA
ATOM     26  C   UNL     1      35.515 -19.189 -21.231  0.00  0.00    +0.204 C 
BRANCH  26  27
ATOM     27  C   UNL     1      36.816 -19.570 -20.557  0.00  0.00    +0.204 C 
BRANCH  27  28
ATOM     28  O   UNL     1      36.573 -20.375 -19.423  0.00  0.00    -0.375 OA
ATOM     29  H   UNL     1      35.617 -20.446 -19.276  0.00  0.00    +0.211 HD
ENDBRANCH  27  28
ENDBRANCH  26  27
ENDBRANCH   6  26
TORSDOF 4
ENDMDL
