MODEL 1
REMARK VINA RESULT:      -1.1      0.000      0.000
REMARK  Name = 44259
REMARK  2 active torsions:
REMARK  status: ('A' for Active; 'I' for Inactive)
REMARK    1  A    between atoms: C_7  and  O_37
REMARK    2  A    between atoms: C_9  and  N_33
REMARK                            x       y       z     vdW  Elec       q    Type
REMARK                         _______ _______ _______ _____ _____    ______ ____
ROOT
ATOM      1  O   UNL     1      34.758  -7.688 -22.577  0.00  0.00    -0.319 OA
ATOM      2  O   UNL     1      33.967 -14.547 -25.149  0.00  0.00    -0.270 OA
ATOM      3  N   UNL     1      32.921  -8.923 -21.762  0.00  0.00    -0.305 N 
ATOM      4  N   UNL     1      34.429  -9.148 -24.347  0.00  0.00    -0.304 N 
ATOM      5  N   UNL     1      32.671 -14.802 -23.217  0.00  0.00    -0.297 N 
ATOM      6  C   UNL     1      33.538  -7.597 -21.837  0.00  0.00    +0.188 C 
ATOM      7  C   UNL     1      32.642  -6.471 -22.429  0.00  0.00    +0.141 C 
ATOM      8  C   UNL     1      34.644  -7.774 -23.979  0.00  0.00    +0.204 C 
ATOM      9  C   UNL     1      32.371  -6.588 -23.932  0.00  0.00    -0.025 C 
ATOM     10  C   UNL     1      33.707  -6.761 -24.643  0.00  0.00    +0.035 C 
ATOM     11  C   UNL     1      33.145 -10.091 -22.466  0.00  0.00    +0.077 A 
ATOM     12  C   UNL     1      33.869 -10.202 -23.689  0.00  0.00    +0.078 A 
ATOM     13  C   UNL     1      32.571 -11.340 -22.014  0.00  0.00    +0.016 A 
ATOM     14  C   UNL     1      33.943 -11.536 -24.260  0.00  0.00    +0.023 A 
ATOM     15  C   UNL     1      32.021  -9.382 -20.775  0.00  0.00    +0.062 A 
ATOM     16  C   UNL     1      34.079  -7.158 -20.454  0.00  0.00    +0.056 C 
ATOM     17  C   UNL     1      34.936  -9.755 -25.497  0.00  0.00    +0.062 A 
ATOM     18  C   UNL     1      31.843 -10.796 -20.880  0.00  0.00    +0.017 A 
ATOM     19  C   UNL     1      32.688 -12.619 -22.551  0.00  0.00    +0.003 A 
ATOM     20  C   UNL     1      33.417 -12.707 -23.725  0.00  0.00    +0.053 A 
ATOM     21  C   UNL     1      34.679 -11.158 -25.473  0.00  0.00    +0.017 A 
ATOM     22  C   UNL     1      32.156 -13.958 -22.160  0.00  0.00    +0.117 C 
ATOM     23  C   UNL     1      31.331  -8.685 -19.757  0.00  0.00    +0.017 C 
ATOM     24  C   UNL     1      33.418 -14.102 -24.161  0.00  0.00    +0.246 C 
ATOM     25  C   UNL     1      31.003 -11.450 -19.940  0.00  0.00    +0.001 C 
ATOM     26  C   UNL     1      35.623  -9.162 -26.578  0.00  0.00    +0.017 C 
ATOM     27  C   UNL     1      35.141 -11.921 -26.576  0.00  0.00    +0.001 C 
ATOM     28  C   UNL     1      30.508  -9.366 -18.855  0.00  0.00    +0.001 C 
ATOM     29  C   UNL     1      30.348 -10.736 -18.940  0.00  0.00    +0.000 C 
ATOM     30  C   UNL     1      36.058  -9.957 -27.639  0.00  0.00    +0.001 C 
ATOM     31  C   UNL     1      35.821 -11.320 -27.639  0.00  0.00    +0.000 C 
ATOM     32  H   UNL     1      32.509 -15.772 -23.265  0.00  0.00    +0.150 HD
ENDROOT
BRANCH   9  33
ATOM     33  N   UNL     1      31.413  -7.637 -24.277  0.00  0.00    +0.385 N 
ATOM     34  C   UNL     1      30.246  -7.074 -24.937  0.00  0.00    -0.105 C 
ATOM     35  H   UNL     1      31.117  -8.115 -23.425  0.00  0.00    -0.084 HD
ATOM     36  H   UNL     1      31.863  -8.294 -24.914  0.00  0.00    -0.084 HD
ENDBRANCH   9  33
BRANCH   7  37
ATOM     37  O   UNL     1      31.411  -6.292 -21.744  0.00  0.00    -0.351 OA
ATOM     38  C   UNL     1      30.848  -5.013 -22.007  0.00  0.00    +0.174 C 
ENDBRANCH   7  37
TORSDOF 2
ENDMDL
MODEL 2
REMARK VINA RESULT:       0.8      2.150      5.846
REMARK  Name = 44259
REMARK  2 active torsions:
REMARK  status: ('A' for Active; 'I' for Inactive)
REMARK    1  A    between atoms: C_7  and  O_37
REMARK    2  A    between atoms: C_9  and  N_33
REMARK                            x       y       z     vdW  Elec       q    Type
REMARK                         _______ _______ _______ _____ _____    ______ ____
ROOT
ATOM      1  O   UNL     1      30.094  -6.365 -23.789  0.00  0.00    -0.319 OA
ATOM      2  O   UNL     1      34.819 -11.999 -24.263  0.00  0.00    -0.270 OA
ATOM      3  N   UNL     1      32.263  -5.870 -24.574  0.00  0.00    -0.305 N 
ATOM      4  N   UNL     1      31.292  -8.076 -22.786  0.00  0.00    -0.304 N 
ATOM      5  N   UNL     1      35.925 -10.557 -25.737  0.00  0.00    -0.297 N 
ATOM      6  C   UNL     1      30.999  -5.303 -24.097  0.00  0.00    +0.188 C 
ATOM      7  C   UNL     1      31.112  -4.335 -22.885  0.00  0.00    +0.141 C 
ATOM      8  C   UNL     1      30.307  -7.049 -22.577  0.00  0.00    +0.204 C 
ATOM      9  C   UNL     1      31.477  -5.007 -21.557  0.00  0.00    -0.025 C 
ATOM     10  C   UNL     1      30.522  -6.174 -21.338  0.00  0.00    +0.035 C 
ATOM     11  C   UNL     1      32.788  -7.146 -24.511  0.00  0.00    +0.077 A 
ATOM     12  C   UNL     1      32.323  -8.199 -23.669  0.00  0.00    +0.078 A 
ATOM     13  C   UNL     1      33.953  -7.499 -25.294  0.00  0.00    +0.016 A 
ATOM     14  C   UNL     1      33.060  -9.448 -23.754  0.00  0.00    +0.023 A 
ATOM     15  C   UNL     1      33.211  -5.238 -25.409  0.00  0.00    +0.062 A 
ATOM     16  C   UNL     1      30.235  -4.605 -25.250  0.00  0.00    +0.056 C 
ATOM     17  C   UNL     1      31.287  -9.326 -22.164  0.00  0.00    +0.062 A 
ATOM     18  C   UNL     1      34.176  -6.185 -25.873  0.00  0.00    +0.017 A 
ATOM     19  C   UNL     1      34.621  -8.716 -25.396  0.00  0.00    +0.003 A 
ATOM     20  C   UNL     1      34.136  -9.731 -24.589  0.00  0.00    +0.053 A 
ATOM     21  C   UNL     1      32.303 -10.160 -22.718  0.00  0.00    +0.017 A 
ATOM     22  C   UNL     1      35.806  -9.182 -26.175  0.00  0.00    +0.117 C 
ATOM     23  C   UNL     1      33.322  -3.895 -25.831  0.00  0.00    +0.017 C 
ATOM     24  C   UNL     1      34.961 -10.918 -24.800  0.00  0.00    +0.246 C 
ATOM     25  C   UNL     1      35.191  -5.744 -26.764  0.00  0.00    +0.001 C 
ATOM     26  C   UNL     1      30.439  -9.798 -21.139  0.00  0.00    +0.017 C 
ATOM     27  C   UNL     1      32.421 -11.473 -22.193  0.00  0.00    +0.001 C 
ATOM     28  C   UNL     1      34.340  -3.500 -26.705  0.00  0.00    +0.001 C 
ATOM     29  C   UNL     1      35.263  -4.415 -27.173  0.00  0.00    +0.000 C 
ATOM     30  C   UNL     1      30.596 -11.097 -20.658  0.00  0.00    +0.001 C 
ATOM     31  C   UNL     1      31.574 -11.927 -21.178  0.00  0.00    +0.000 C 
ATOM     32  H   UNL     1      36.619 -11.174 -26.067  0.00  0.00    +0.150 HD
ENDROOT
BRANCH   9  33
ATOM     33  N   UNL     1      32.880  -5.407 -21.467  0.00  0.00    +0.385 N 
ATOM     34  C   UNL     1      33.062  -6.420 -20.439  0.00  0.00    -0.105 C 
ATOM     35  H   UNL     1      33.447  -4.591 -21.236  0.00  0.00    -0.084 HD
ATOM     36  H   UNL     1      33.167  -5.797 -22.364  0.00  0.00    -0.084 HD
ENDBRANCH   9  33
BRANCH   7  37
ATOM     37  O   UNL     1      31.978  -3.232 -23.103  0.00  0.00    -0.351 OA
ATOM     38  C   UNL     1      31.282  -1.995 -23.018  0.00  0.00    +0.174 C 
ENDBRANCH   7  37
TORSDOF 2
ENDMDL
