MODEL 1
REMARK VINA RESULT:      -9.5      0.000      0.000
REMARK  Name = 10958449
REMARK  10 active torsions:
REMARK  status: ('A' for Active; 'I' for Inactive)
REMARK    1  A    between atoms: C_1  and  N_3
REMARK    2  A    between atoms: C_1  and  C_14
REMARK    3  A    between atoms: C_1  and  C_21
REMARK    4  A    between atoms: C_4  and  O_6
REMARK    5  A    between atoms: O_6  and  C_7
REMARK    6  A    between atoms: C_7  and  C_8
REMARK    7  A    between atoms: C_14  and  C_15
REMARK    8  A    between atoms: C_21  and  O_22
REMARK    9  A    between atoms: C_21  and  C_25
REMARK   10  A    between atoms: C_25  and  O_26
REMARK                            x       y       z     vdW  Elec       q    Type
REMARK                         _______ _______ _______ _____ _____    ______ ____
ROOT
ATOM      1  C   UNL     1      34.760 -18.005 -22.093  0.00  0.00    +0.117 C 
ENDROOT
BRANCH   1   3
ATOM      2  O   UNL     1      35.058 -16.039 -19.976  0.00  0.00    -0.226 OA
ATOM      3  N   UNL     1      34.153 -16.689 -22.009  0.00  0.00    -0.269 N 
ATOM      4  C   UNL     1      34.357 -15.825 -20.958  0.00  0.00    +0.402 C 
ATOM      5  H   UNL     1      33.564 -16.398 -22.743  0.00  0.00    +0.153 HD
BRANCH   4   6
ATOM      6  O   UNL     1      33.652 -14.674 -21.172  0.00  0.00    -0.430 OA
BRANCH   6   7
ATOM      7  C   UNL     1      32.958 -14.592 -22.422  0.00  0.00    +0.237 C 
BRANCH   7   8
ATOM      8  C   UNL     1      32.983 -13.170 -22.904  0.00  0.00    +0.021 C 
ATOM      9  C   UNL     1      33.798 -12.820 -23.974  0.00  0.00    -0.001 C 
ATOM     10  C   UNL     1      32.190 -12.217 -22.274  0.00  0.00    -0.001 C 
ATOM     11  C   UNL     1      33.821 -11.498 -24.420  0.00  0.00    -0.000 C 
ATOM     12  C   UNL     1      32.213 -10.896 -22.720  0.00  0.00    -0.000 C 
ATOM     13  C   UNL     1      33.028 -10.536 -23.793  0.00  0.00    -0.000 C 
ENDBRANCH   7   8
ENDBRANCH   6   7
ENDBRANCH   4   6
ENDBRANCH   1   3
BRANCH   1  14
ATOM     14  C   UNL     1      33.738 -19.050 -21.600  0.00  0.00    +0.049 C 
BRANCH  14  15
ATOM     15  C   UNL     1      34.296 -20.093 -20.664  0.00  0.00    -0.020 C 
ATOM     16  C   UNL     1      33.427 -20.946 -19.999  0.00  0.00    -0.004 C 
ATOM     17  C   UNL     1      35.667 -20.181 -20.481  0.00  0.00    -0.004 C 
ATOM     18  C   UNL     1      33.942 -21.909 -19.131  0.00  0.00    -0.000 C 
ATOM     19  C   UNL     1      36.183 -21.145 -19.615  0.00  0.00    -0.000 C 
ATOM     20  C   UNL     1      35.320 -22.009 -18.940  0.00  0.00    -0.000 C 
ENDBRANCH  14  15
ENDBRANCH   1  14
BRANCH   1  21
ATOM     21  C   UNL     1      35.278 -18.209 -23.531  0.00  0.00    +0.228 C 
BRANCH  21  22
ATOM     22  O   UNL     1      34.768 -19.423 -24.063  0.00  0.00    -0.373 OA
ATOM     23  H   UNL     1      33.810 -19.463 -23.917  0.00  0.00    +0.211 HD
ENDBRANCH  21  22
BRANCH  21  25
ATOM     24  O   UNL     1      34.047 -17.155 -25.346  0.00  0.00    -0.248 OA
ATOM     25  C   UNL     1      34.900 -17.079 -24.473  0.00  0.00    +0.343 C 
BRANCH  25  26
ATOM     26  O   UNL     1      35.648 -15.964 -24.270  0.00  0.00    -0.478 OA
ATOM     27  H   UNL     1      35.786 -15.644 -23.401  0.00  0.00    +0.295 HD
ENDBRANCH  25  26
ENDBRANCH  21  25
ENDBRANCH   1  21
TORSDOF 10
ENDMDL
MODEL 2
REMARK VINA RESULT:      -9.4      1.304      2.014
REMARK  Name = 10958449
REMARK  10 active torsions:
REMARK  status: ('A' for Active; 'I' for Inactive)
REMARK    1  A    between atoms: C_1  and  N_3
REMARK    2  A    between atoms: C_1  and  C_14
REMARK    3  A    between atoms: C_1  and  C_21
REMARK    4  A    between atoms: C_4  and  O_6
REMARK    5  A    between atoms: O_6  and  C_7
REMARK    6  A    between atoms: C_7  and  C_8
REMARK    7  A    between atoms: C_14  and  C_15
REMARK    8  A    between atoms: C_21  and  O_22
REMARK    9  A    between atoms: C_21  and  C_25
REMARK   10  A    between atoms: C_25  and  O_26
REMARK                            x       y       z     vdW  Elec       q    Type
REMARK                         _______ _______ _______ _____ _____    ______ ____
ROOT
ATOM      1  C   UNL     1      34.626 -17.687 -21.549  0.00  0.00    +0.117 C 
ENDROOT
BRANCH   1   3
ATOM      2  O   UNL     1      34.944 -15.167 -20.139  0.00  0.00    -0.226 OA
ATOM      3  N   UNL     1      33.614 -16.679 -21.288  0.00  0.00    -0.269 N 
ATOM      4  C   UNL     1      33.864 -15.511 -20.607  0.00  0.00    +0.402 C 
ATOM      5  H   UNL     1      32.699 -16.840 -21.616  0.00  0.00    +0.153 HD
BRANCH   4   6
ATOM      6  O   UNL     1      32.715 -14.776 -20.526  0.00  0.00    -0.430 OA
BRANCH   6   7
ATOM      7  C   UNL     1      32.373 -14.023 -21.695  0.00  0.00    +0.237 C 
BRANCH   7   8
ATOM      8  C   UNL     1      32.051 -12.613 -21.293  0.00  0.00    +0.021 C 
ATOM      9  C   UNL     1      31.891 -11.638 -22.271  0.00  0.00    -0.001 C 
ATOM     10  C   UNL     1      31.917 -12.295 -19.946  0.00  0.00    -0.001 C 
ATOM     11  C   UNL     1      31.593 -10.327 -21.897  0.00  0.00    -0.000 C 
ATOM     12  C   UNL     1      31.620 -10.985 -19.572  0.00  0.00    -0.000 C 
ATOM     13  C   UNL     1      31.458 -10.001 -20.547  0.00  0.00    -0.000 C 
ENDBRANCH   7   8
ENDBRANCH   6   7
ENDBRANCH   4   6
ENDBRANCH   1   3
BRANCH   1  14
ATOM     14  C   UNL     1      33.926 -19.047 -21.744  0.00  0.00    +0.049 C 
BRANCH  14  15
ATOM     15  C   UNL     1      34.285 -20.099 -20.725  0.00  0.00    -0.020 C 
ATOM     16  C   UNL     1      35.621 -20.354 -20.450  0.00  0.00    -0.004 C 
ATOM     17  C   UNL     1      33.275 -20.796 -20.080  0.00  0.00    -0.004 C 
ATOM     18  C   UNL     1      35.953 -21.328 -19.508  0.00  0.00    -0.000 C 
ATOM     19  C   UNL     1      33.606 -21.769 -19.138  0.00  0.00    -0.000 C 
ATOM     20  C   UNL     1      34.946 -22.035 -18.852  0.00  0.00    -0.000 C 
ENDBRANCH  14  15
ENDBRANCH   1  14
BRANCH   1  21
ATOM     21  C   UNL     1      35.492 -17.209 -22.731  0.00  0.00    +0.228 C 
BRANCH  21  22
ATOM     22  O   UNL     1      36.480 -18.184 -23.035  0.00  0.00    -0.373 OA
ATOM     23  H   UNL     1      37.334 -17.904 -22.670  0.00  0.00    +0.211 HD
ENDBRANCH  21  22
BRANCH  21  25
ATOM     24  O   UNL     1      33.975 -15.955 -24.162  0.00  0.00    -0.248 OA
ATOM     25  C   UNL     1      34.691 -16.932 -23.991  0.00  0.00    +0.343 C 
BRANCH  25  26
ATOM     26  O   UNL     1      34.821 -17.919 -24.914  0.00  0.00    -0.478 OA
ATOM     27  H   UNL     1      35.289 -17.759 -25.710  0.00  0.00    +0.295 HD
ENDBRANCH  25  26
ENDBRANCH  21  25
ENDBRANCH   1  21
TORSDOF 10
ENDMDL
MODEL 3
REMARK VINA RESULT:      -9.1      1.228      7.478
REMARK  Name = 10958449
REMARK  10 active torsions:
REMARK  status: ('A' for Active; 'I' for Inactive)
REMARK    1  A    between atoms: C_1  and  N_3
REMARK    2  A    between atoms: C_1  and  C_14
REMARK    3  A    between atoms: C_1  and  C_21
REMARK    4  A    between atoms: C_4  and  O_6
REMARK    5  A    between atoms: O_6  and  C_7
REMARK    6  A    between atoms: C_7  and  C_8
REMARK    7  A    between atoms: C_14  and  C_15
REMARK    8  A    between atoms: C_21  and  O_22
REMARK    9  A    between atoms: C_21  and  C_25
REMARK   10  A    between atoms: C_25  and  O_26
REMARK                            x       y       z     vdW  Elec       q    Type
REMARK                         _______ _______ _______ _____ _____    ______ ____
ROOT
ATOM      1  C   UNL     1      33.443 -14.900 -23.939  0.00  0.00    +0.117 C 
ENDROOT
BRANCH   1   3
ATOM      2  O   UNL     1      32.986 -15.760 -21.203  0.00  0.00    -0.226 OA
ATOM      3  N   UNL     1      34.288 -15.752 -23.121  0.00  0.00    -0.269 N 
ATOM      4  C   UNL     1      33.983 -16.104 -21.827  0.00  0.00    +0.402 C 
ATOM      5  H   UNL     1      35.124 -16.095 -23.513  0.00  0.00    +0.153 HD
BRANCH   4   6
ATOM      6  O   UNL     1      34.971 -16.908 -21.331  0.00  0.00    -0.430 OA
BRANCH   6   7
ATOM      7  C   UNL     1      35.200 -18.127 -22.046  0.00  0.00    +0.237 C 
BRANCH   7   8
ATOM      8  C   UNL     1      34.805 -19.287 -21.178  0.00  0.00    +0.021 C 
ATOM      9  C   UNL     1      33.460 -19.528 -20.922  0.00  0.00    -0.001 C 
ATOM     10  C   UNL     1      35.788 -20.107 -20.636  0.00  0.00    -0.001 C 
ATOM     11  C   UNL     1      33.094 -20.605 -20.114  0.00  0.00    -0.000 C 
ATOM     12  C   UNL     1      35.421 -21.183 -19.828  0.00  0.00    -0.000 C 
ATOM     13  C   UNL     1      34.075 -21.433 -19.567  0.00  0.00    -0.000 C 
ENDBRANCH   7   8
ENDBRANCH   6   7
ENDBRANCH   4   6
ENDBRANCH   1   3
BRANCH   1  14
ATOM     14  C   UNL     1      34.066 -13.490 -23.989  0.00  0.00    +0.049 C 
BRANCH  14  15
ATOM     15  C   UNL     1      33.213 -12.396 -23.398  0.00  0.00    -0.020 C 
ATOM     16  C   UNL     1      32.221 -12.724 -22.485  0.00  0.00    -0.004 C 
ATOM     17  C   UNL     1      33.433 -11.081 -23.776  0.00  0.00    -0.004 C 
ATOM     18  C   UNL     1      31.431 -11.712 -21.940  0.00  0.00    -0.000 C 
ATOM     19  C   UNL     1      32.644 -10.069 -23.230  0.00  0.00    -0.000 C 
ATOM     20  C   UNL     1      31.643 -10.385 -22.311  0.00  0.00    -0.000 C 
ENDBRANCH  14  15
ENDBRANCH   1  14
BRANCH   1  21
ATOM     21  C   UNL     1      33.240 -15.587 -25.305  0.00  0.00    +0.228 C 
BRANCH  21  22
ATOM     22  O   UNL     1      33.493 -14.663 -26.354  0.00  0.00    -0.373 OA
ATOM     23  H   UNL     1      34.319 -14.903 -26.804  0.00  0.00    +0.211 HD
ENDBRANCH  21  22
BRANCH  21  25
ATOM     24  O   UNL     1      33.772 -17.960 -25.390  0.00  0.00    -0.248 OA
ATOM     25  C   UNL     1      34.134 -16.797 -25.508  0.00  0.00    +0.343 C 
BRANCH  25  26
ATOM     26  O   UNL     1      35.415 -16.452 -25.801  0.00  0.00    -0.478 OA
ATOM     27  H   UNL     1      35.586 -15.738 -26.382  0.00  0.00    +0.295 HD
ENDBRANCH  25  26
ENDBRANCH  21  25
ENDBRANCH   1  21
TORSDOF 10
ENDMDL
MODEL 4
REMARK VINA RESULT:      -9.0      6.357      9.670
REMARK  Name = 10958449
REMARK  10 active torsions:
REMARK  status: ('A' for Active; 'I' for Inactive)
REMARK    1  A    between atoms: C_1  and  N_3
REMARK    2  A    between atoms: C_1  and  C_14
REMARK    3  A    between atoms: C_1  and  C_21
REMARK    4  A    between atoms: C_4  and  O_6
REMARK    5  A    between atoms: O_6  and  C_7
REMARK    6  A    between atoms: C_7  and  C_8
REMARK    7  A    between atoms: C_14  and  C_15
REMARK    8  A    between atoms: C_21  and  O_22
REMARK    9  A    between atoms: C_21  and  C_25
REMARK   10  A    between atoms: C_25  and  O_26
REMARK                            x       y       z     vdW  Elec       q    Type
REMARK                         _______ _______ _______ _____ _____    ______ ____
ROOT
ATOM      1  C   UNL     1      34.411 -23.966 -14.245  0.00  0.00    +0.117 C 
ENDROOT
BRANCH   1   3
ATOM      2  O   UNL     1      35.651 -22.135 -16.129  0.00  0.00    -0.226 OA
ATOM      3  N   UNL     1      34.277 -23.951 -15.690  0.00  0.00    -0.269 N 
ATOM      4  C   UNL     1      34.908 -23.036 -16.501  0.00  0.00    +0.402 C 
ATOM      5  H   UNL     1      33.703 -24.630 -16.113  0.00  0.00    +0.153 HD
BRANCH   4   6
ATOM      6  O   UNL     1      34.582 -23.285 -17.805  0.00  0.00    -0.430 OA
BRANCH   6   7
ATOM      7  C   UNL     1      33.417 -22.612 -18.295  0.00  0.00    +0.237 C 
BRANCH   7   8
ATOM      8  C   UNL     1      33.836 -21.567 -19.289  0.00  0.00    +0.021 C 
ATOM      9  C   UNL     1      35.178 -21.442 -19.632  0.00  0.00    -0.001 C 
ATOM     10  C   UNL     1      32.878 -20.733 -19.855  0.00  0.00    -0.001 C 
ATOM     11  C   UNL     1      35.566 -20.469 -20.554  0.00  0.00    -0.000 C 
ATOM     12  C   UNL     1      33.267 -19.761 -20.776  0.00  0.00    -0.000 C 
ATOM     13  C   UNL     1      34.610 -19.629 -21.126  0.00  0.00    -0.000 C 
ENDBRANCH   7   8
ENDBRANCH   6   7
ENDBRANCH   4   6
ENDBRANCH   1   3
BRANCH   1  14
ATOM     14  C   UNL     1      33.177 -24.668 -13.643  0.00  0.00    +0.049 C 
BRANCH  14  15
ATOM     15  C   UNL     1      31.854 -24.240 -14.226  0.00  0.00    -0.020 C 
ATOM     16  C   UNL     1      30.901 -25.201 -14.532  0.00  0.00    -0.004 C 
ATOM     17  C   UNL     1      31.611 -22.893 -14.449  0.00  0.00    -0.004 C 
ATOM     18  C   UNL     1      29.678 -24.805 -15.073  0.00  0.00    -0.000 C 
ATOM     19  C   UNL     1      30.388 -22.497 -14.989  0.00  0.00    -0.000 C 
ATOM     20  C   UNL     1      29.421 -23.453 -15.301  0.00  0.00    -0.000 C 
ENDBRANCH  14  15
ENDBRANCH   1  14
BRANCH   1  21
ATOM     21  C   UNL     1      35.773 -24.595 -13.891  0.00  0.00    +0.228 C 
BRANCH  21  22
ATOM     22  O   UNL     1      35.633 -25.457 -12.770  0.00  0.00    -0.373 OA
ATOM     23  H   UNL     1      35.182 -24.984 -12.053  0.00  0.00    +0.211 HD
ENDBRANCH  21  22
BRANCH  21  25
ATOM     24  O   UNL     1      35.973 -26.476 -15.422  0.00  0.00    -0.248 OA
ATOM     25  C   UNL     1      36.383 -25.391 -15.032  0.00  0.00    +0.343 C 
BRANCH  25  26
ATOM     26  O   UNL     1      37.476 -24.784 -15.560  0.00  0.00    -0.478 OA
ATOM     27  H   UNL     1      37.571 -23.854 -15.500  0.00  0.00    +0.295 HD
ENDBRANCH  25  26
ENDBRANCH  21  25
ENDBRANCH   1  21
TORSDOF 10
ENDMDL
MODEL 5
REMARK VINA RESULT:      -9.0      5.678      9.160
REMARK  Name = 10958449
REMARK  10 active torsions:
REMARK  status: ('A' for Active; 'I' for Inactive)
REMARK    1  A    between atoms: C_1  and  N_3
REMARK    2  A    between atoms: C_1  and  C_14
REMARK    3  A    between atoms: C_1  and  C_21
REMARK    4  A    between atoms: C_4  and  O_6
REMARK    5  A    between atoms: O_6  and  C_7
REMARK    6  A    between atoms: C_7  and  C_8
REMARK    7  A    between atoms: C_14  and  C_15
REMARK    8  A    between atoms: C_21  and  O_22
REMARK    9  A    between atoms: C_21  and  C_25
REMARK   10  A    between atoms: C_25  and  O_26
REMARK                            x       y       z     vdW  Elec       q    Type
REMARK                         _______ _______ _______ _____ _____    ______ ____
ROOT
ATOM      1  C   UNL     1      35.912 -23.517 -15.322  0.00  0.00    +0.117 C 
ENDROOT
BRANCH   1   3
ATOM      2  O   UNL     1      37.642 -21.381 -16.265  0.00  0.00    -0.226 OA
ATOM      3  N   UNL     1      35.948 -22.918 -16.645  0.00  0.00    -0.269 N 
ATOM      4  C   UNL     1      36.808 -21.904 -16.996  0.00  0.00    +0.402 C 
ATOM      5  H   UNL     1      35.321 -23.254 -17.326  0.00  0.00    +0.153 HD
BRANCH   4   6
ATOM      6  O   UNL     1      36.596 -21.560 -18.301  0.00  0.00    -0.430 OA
BRANCH   6   7
ATOM      7  C   UNL     1      35.420 -22.108 -18.907  0.00  0.00    +0.237 C 
BRANCH   7   8
ATOM      8  C   UNL     1      34.783 -21.062 -19.775  0.00  0.00    +0.021 C 
ATOM      9  C   UNL     1      33.397 -20.946 -19.808  0.00  0.00    -0.001 C 
ATOM     10  C   UNL     1      35.584 -20.219 -20.538  0.00  0.00    -0.001 C 
ATOM     11  C   UNL     1      32.806 -19.974 -20.616  0.00  0.00    -0.000 C 
ATOM     12  C   UNL     1      34.992 -19.248 -21.345  0.00  0.00    -0.000 C 
ATOM     13  C   UNL     1      33.604 -19.125 -21.385  0.00  0.00    -0.000 C 
ENDBRANCH   7   8
ENDBRANCH   6   7
ENDBRANCH   4   6
ENDBRANCH   1   3
BRANCH   1  14
ATOM     14  C   UNL     1      34.735 -24.512 -15.264  0.00  0.00    +0.049 C 
BRANCH  14  15
ATOM     15  C   UNL     1      33.372 -23.878 -15.150  0.00  0.00    -0.020 C 
ATOM     16  C   UNL     1      32.809 -23.694 -13.895  0.00  0.00    -0.004 C 
ATOM     17  C   UNL     1      32.701 -23.491 -16.300  0.00  0.00    -0.004 C 
ATOM     18  C   UNL     1      31.547 -23.110 -13.789  0.00  0.00    -0.000 C 
ATOM     19  C   UNL     1      31.440 -22.906 -16.194  0.00  0.00    -0.000 C 
ATOM     20  C   UNL     1      30.862 -22.715 -14.939  0.00  0.00    -0.000 C 
ENDBRANCH  14  15
ENDBRANCH   1  14
BRANCH   1  21
ATOM     21  C   UNL     1      37.303 -24.112 -15.023  0.00  0.00    +0.228 C 
BRANCH  21  22
ATOM     22  O   UNL     1      37.913 -23.405 -13.953  0.00  0.00    -0.373 OA
ATOM     23  H   UNL     1      37.728 -23.861 -13.117  0.00  0.00    +0.211 HD
ENDBRANCH  21  22
BRANCH  21  25
ATOM     24  O   UNL     1      37.093 -26.020 -13.527  0.00  0.00    -0.248 OA
ATOM     25  C   UNL     1      37.260 -25.586 -14.659  0.00  0.00    +0.343 C 
BRANCH  25  26
ATOM     26  O   UNL     1      37.471 -26.391 -15.732  0.00  0.00    -0.478 OA
ATOM     27  H   UNL     1      38.097 -26.148 -16.385  0.00  0.00    +0.295 HD
ENDBRANCH  25  26
ENDBRANCH  21  25
ENDBRANCH   1  21
TORSDOF 10
ENDMDL
MODEL 6
REMARK VINA RESULT:      -8.9      1.506      7.823
REMARK  Name = 10958449
REMARK  10 active torsions:
REMARK  status: ('A' for Active; 'I' for Inactive)
REMARK    1  A    between atoms: C_1  and  N_3
REMARK    2  A    between atoms: C_1  and  C_14
REMARK    3  A    between atoms: C_1  and  C_21
REMARK    4  A    between atoms: C_4  and  O_6
REMARK    5  A    between atoms: O_6  and  C_7
REMARK    6  A    between atoms: C_7  and  C_8
REMARK    7  A    between atoms: C_14  and  C_15
REMARK    8  A    between atoms: C_21  and  O_22
REMARK    9  A    between atoms: C_21  and  C_25
REMARK   10  A    between atoms: C_25  and  O_26
REMARK                            x       y       z     vdW  Elec       q    Type
REMARK                         _______ _______ _______ _____ _____    ______ ____
ROOT
ATOM      1  C   UNL     1      34.323 -15.038 -22.927  0.00  0.00    +0.117 C 
ENDROOT
BRANCH   1   3
ATOM      2  O   UNL     1      35.110 -16.991 -24.928  0.00  0.00    -0.226 OA
ATOM      3  N   UNL     1      34.561 -16.458 -22.740  0.00  0.00    -0.269 N 
ATOM      4  C   UNL     1      34.932 -17.306 -23.757  0.00  0.00    +0.402 C 
ATOM      5  H   UNL     1      34.449 -16.835 -21.837  0.00  0.00    +0.153 HD
BRANCH   4   6
ATOM      6  O   UNL     1      35.077 -18.572 -23.263  0.00  0.00    -0.430 OA
BRANCH   6   7
ATOM      7  C   UNL     1      35.746 -18.676 -22.001  0.00  0.00    +0.237 C 
BRANCH   7   8
ATOM      8  C   UNL     1      34.983 -19.621 -21.118  0.00  0.00    +0.021 C 
ATOM      9  C   UNL     1      33.599 -19.524 -21.040  0.00  0.00    -0.001 C 
ATOM     10  C   UNL     1      35.670 -20.583 -20.386  0.00  0.00    -0.001 C 
ATOM     11  C   UNL     1      32.891 -20.403 -20.218  0.00  0.00    -0.000 C 
ATOM     12  C   UNL     1      34.962 -21.461 -19.565  0.00  0.00    -0.000 C 
ATOM     13  C   UNL     1      33.574 -21.371 -19.481  0.00  0.00    -0.000 C 
ENDBRANCH   7   8
ENDBRANCH   6   7
ENDBRANCH   4   6
ENDBRANCH   1   3
BRANCH   1  14
ATOM     14  C   UNL     1      33.110 -14.862 -23.865  0.00  0.00    +0.049 C 
BRANCH  14  15
ATOM     15  C   UNL     1      33.325 -13.905 -25.010  0.00  0.00    -0.020 C 
ATOM     16  C   UNL     1      33.109 -14.340 -26.310  0.00  0.00    -0.004 C 
ATOM     17  C   UNL     1      33.737 -12.608 -24.747  0.00  0.00    -0.004 C 
ATOM     18  C   UNL     1      33.310 -13.455 -27.370  0.00  0.00    -0.000 C 
ATOM     19  C   UNL     1      33.936 -11.723 -25.806  0.00  0.00    -0.000 C 
ATOM     20  C   UNL     1      33.723 -12.147 -27.118  0.00  0.00    -0.000 C 
ENDBRANCH  14  15
ENDBRANCH   1  14
BRANCH   1  21
ATOM     21  C   UNL     1      34.191 -14.381 -21.539  0.00  0.00    +0.228 C 
BRANCH  21  22
ATOM     22  O   UNL     1      33.050 -13.536 -21.508  0.00  0.00    -0.373 OA
ATOM     23  H   UNL     1      33.231 -12.769 -20.942  0.00  0.00    +0.211 HD
ENDBRANCH  21  22
BRANCH  21  25
ATOM     24  O   UNL     1      35.017 -15.948 -19.870  0.00  0.00    -0.248 OA
ATOM     25  C   UNL     1      34.071 -15.386 -20.407  0.00  0.00    +0.343 C 
BRANCH  25  26
ATOM     26  O   UNL     1      32.780 -15.634 -20.069  0.00  0.00    -0.478 OA
ATOM     27  H   UNL     1      32.095 -15.086 -20.399  0.00  0.00    +0.295 HD
ENDBRANCH  25  26
ENDBRANCH  21  25
ENDBRANCH   1  21
TORSDOF 10
ENDMDL
MODEL 7
REMARK VINA RESULT:      -8.8      2.463      8.231
REMARK  Name = 10958449
REMARK  10 active torsions:
REMARK  status: ('A' for Active; 'I' for Inactive)
REMARK    1  A    between atoms: C_1  and  N_3
REMARK    2  A    between atoms: C_1  and  C_14
REMARK    3  A    between atoms: C_1  and  C_21
REMARK    4  A    between atoms: C_4  and  O_6
REMARK    5  A    between atoms: O_6  and  C_7
REMARK    6  A    between atoms: C_7  and  C_8
REMARK    7  A    between atoms: C_14  and  C_15
REMARK    8  A    between atoms: C_21  and  O_22
REMARK    9  A    between atoms: C_21  and  C_25
REMARK   10  A    between atoms: C_25  and  O_26
REMARK                            x       y       z     vdW  Elec       q    Type
REMARK                         _______ _______ _______ _____ _____    ______ ____
ROOT
ATOM      1  C   UNL     1      33.606 -12.093 -25.070  0.00  0.00    +0.117 C 
ENDROOT
BRANCH   1   3
ATOM      2  O   UNL     1      32.149 -13.175 -22.802  0.00  0.00    -0.226 OA
ATOM      3  N   UNL     1      33.998 -13.187 -24.200  0.00  0.00    -0.269 N 
ATOM      4  C   UNL     1      33.235 -13.629 -23.144  0.00  0.00    +0.402 C 
ATOM      5  H   UNL     1      34.858 -13.637 -24.373  0.00  0.00    +0.153 HD
BRANCH   4   6
ATOM      6  O   UNL     1      33.874 -14.665 -22.524  0.00  0.00    -0.430 OA
BRANCH   6   7
ATOM      7  C   UNL     1      34.832 -15.372 -23.318  0.00  0.00    +0.237 C 
BRANCH   7   8
ATOM      8  C   UNL     1      34.834 -16.818 -22.914  0.00  0.00    +0.021 C 
ATOM      9  C   UNL     1      34.892 -17.806 -23.890  0.00  0.00    -0.001 C 
ATOM     10  C   UNL     1      34.775 -17.155 -21.566  0.00  0.00    -0.001 C 
ATOM     11  C   UNL     1      34.893 -19.149 -23.512  0.00  0.00    -0.000 C 
ATOM     12  C   UNL     1      34.775 -18.498 -21.189  0.00  0.00    -0.000 C 
ATOM     13  C   UNL     1      34.834 -19.495 -22.162  0.00  0.00    -0.000 C 
ENDBRANCH   7   8
ENDBRANCH   6   7
ENDBRANCH   4   6
ENDBRANCH   1   3
BRANCH   1  14
ATOM     14  C   UNL     1      34.637 -10.956 -24.927  0.00  0.00    +0.049 C 
BRANCH  14  15
ATOM     15  C   UNL     1      34.182  -9.784 -24.094  0.00  0.00    -0.020 C 
ATOM     16  C   UNL     1      32.997  -9.877 -23.378  0.00  0.00    -0.004 C 
ATOM     17  C   UNL     1      34.953  -8.632 -24.058  0.00  0.00    -0.004 C 
ATOM     18  C   UNL     1      32.575  -8.793 -22.609  0.00  0.00    -0.000 C 
ATOM     19  C   UNL     1      34.531  -7.549 -23.288  0.00  0.00    -0.000 C 
ATOM     20  C   UNL     1      33.342  -7.629 -22.563  0.00  0.00    -0.000 C 
ENDBRANCH  14  15
ENDBRANCH   1  14
BRANCH   1  21
ATOM     21  C   UNL     1      33.423 -12.650 -26.496  0.00  0.00    +0.228 C 
BRANCH  21  22
ATOM     22  O   UNL     1      34.560 -12.340 -27.288  0.00  0.00    -0.373 OA
ATOM     23  H   UNL     1      34.711 -11.382 -27.276  0.00  0.00    +0.211 HD
ENDBRANCH  21  22
BRANCH  21  25
ATOM     24  O   UNL     1      34.095 -14.978 -26.722  0.00  0.00    -0.248 OA
ATOM     25  C   UNL     1      33.211 -14.153 -26.532  0.00  0.00    +0.343 C 
BRANCH  25  26
ATOM     26  O   UNL     1      31.907 -14.497 -26.369  0.00  0.00    -0.478 OA
ATOM     27  H   UNL     1      31.682 -15.272 -25.894  0.00  0.00    +0.295 HD
ENDBRANCH  25  26
ENDBRANCH  21  25
ENDBRANCH   1  21
TORSDOF 10
ENDMDL
MODEL 8
REMARK VINA RESULT:      -8.8      1.483      2.162
REMARK  Name = 10958449
REMARK  10 active torsions:
REMARK  status: ('A' for Active; 'I' for Inactive)
REMARK    1  A    between atoms: C_1  and  N_3
REMARK    2  A    between atoms: C_1  and  C_14
REMARK    3  A    between atoms: C_1  and  C_21
REMARK    4  A    between atoms: C_4  and  O_6
REMARK    5  A    between atoms: O_6  and  C_7
REMARK    6  A    between atoms: C_7  and  C_8
REMARK    7  A    between atoms: C_14  and  C_15
REMARK    8  A    between atoms: C_21  and  O_22
REMARK    9  A    between atoms: C_21  and  C_25
REMARK   10  A    between atoms: C_25  and  O_26
REMARK                            x       y       z     vdW  Elec       q    Type
REMARK                         _______ _______ _______ _____ _____    ______ ____
ROOT
ATOM      1  C   UNL     1      34.820 -16.742 -22.584  0.00  0.00    +0.117 C 
ENDROOT
BRANCH   1   3
ATOM      2  O   UNL     1      34.919 -15.786 -19.843  0.00  0.00    -0.226 OA
ATOM      3  N   UNL     1      33.894 -15.841 -21.922  0.00  0.00    -0.269 N 
ATOM      4  C   UNL     1      34.027 -15.445 -20.611  0.00  0.00    +0.402 C 
ATOM      5  H   UNL     1      33.129 -15.495 -22.438  0.00  0.00    +0.153 HD
BRANCH   4   6
ATOM      6  O   UNL     1      33.002 -14.601 -20.286  0.00  0.00    -0.430 OA
BRANCH   6   7
ATOM      7  C   UNL     1      32.246 -14.085 -21.387  0.00  0.00    +0.237 C 
BRANCH   7   8
ATOM      8  C   UNL     1      32.002 -12.620 -21.170  0.00  0.00    +0.021 C 
ATOM      9  C   UNL     1      31.865 -12.128 -19.877  0.00  0.00    -0.001 C 
ATOM     10  C   UNL     1      31.914 -11.768 -22.266  0.00  0.00    -0.001 C 
ATOM     11  C   UNL     1      31.637 -10.766 -19.677  0.00  0.00    -0.000 C 
ATOM     12  C   UNL     1      31.686 -10.407 -22.065  0.00  0.00    -0.000 C 
ATOM     13  C   UNL     1      31.547  -9.905 -20.772  0.00  0.00    -0.000 C 
ENDBRANCH   7   8
ENDBRANCH   6   7
ENDBRANCH   4   6
ENDBRANCH   1   3
BRANCH   1  14
ATOM     14  C   UNL     1      34.227 -18.165 -22.555  0.00  0.00    +0.049 C 
BRANCH  14  15
ATOM     15  C   UNL     1      34.858 -19.097 -21.551  0.00  0.00    -0.020 C 
ATOM     16  C   UNL     1      34.071 -20.044 -20.912  0.00  0.00    -0.004 C 
ATOM     17  C   UNL     1      36.214 -18.992 -21.282  0.00  0.00    -0.004 C 
ATOM     18  C   UNL     1      34.655 -20.905 -19.983  0.00  0.00    -0.000 C 
ATOM     19  C   UNL     1      36.798 -19.853 -20.353  0.00  0.00    -0.000 C 
ATOM     20  C   UNL     1      36.018 -20.810 -19.703  0.00  0.00    -0.000 C 
ENDBRANCH  14  15
ENDBRANCH   1  14
BRANCH   1  21
ATOM     21  C   UNL     1      35.127 -16.177 -23.985  0.00  0.00    +0.228 C 
BRANCH  21  22
ATOM     22  O   UNL     1      35.184 -17.234 -24.933  0.00  0.00    -0.373 OA
ATOM     23  H   UNL     1      35.497 -16.890 -25.783  0.00  0.00    +0.211 HD
ENDBRANCH  21  22
BRANCH  21  25
ATOM     24  O   UNL     1      33.181 -15.410 -25.229  0.00  0.00    -0.248 OA
ATOM     25  C   UNL     1      34.103 -15.163 -24.463  0.00  0.00    +0.343 C 
BRANCH  25  26
ATOM     26  O   UNL     1      34.341 -13.918 -23.976  0.00  0.00    -0.478 OA
ATOM     27  H   UNL     1      35.019 -13.783 -23.345  0.00  0.00    +0.295 HD
ENDBRANCH  25  26
ENDBRANCH  21  25
ENDBRANCH   1  21
TORSDOF 10
ENDMDL
MODEL 9
REMARK VINA RESULT:      -8.8      1.981      8.065
REMARK  Name = 10958449
REMARK  10 active torsions:
REMARK  status: ('A' for Active; 'I' for Inactive)
REMARK    1  A    between atoms: C_1  and  N_3
REMARK    2  A    between atoms: C_1  and  C_14
REMARK    3  A    between atoms: C_1  and  C_21
REMARK    4  A    between atoms: C_4  and  O_6
REMARK    5  A    between atoms: O_6  and  C_7
REMARK    6  A    between atoms: C_7  and  C_8
REMARK    7  A    between atoms: C_14  and  C_15
REMARK    8  A    between atoms: C_21  and  O_22
REMARK    9  A    between atoms: C_21  and  C_25
REMARK   10  A    between atoms: C_25  and  O_26
REMARK                            x       y       z     vdW  Elec       q    Type
REMARK                         _______ _______ _______ _____ _____    ______ ____
ROOT
ATOM      1  C   UNL     1      34.772 -17.462 -21.752  0.00  0.00    +0.117 C 
ENDROOT
BRANCH   1   3
ATOM      2  O   UNL     1      33.468 -20.002 -21.221  0.00  0.00    -0.226 OA
ATOM      3  N   UNL     1      35.243 -18.545 -20.907  0.00  0.00    -0.269 N 
ATOM      4  C   UNL     1      34.548 -19.716 -20.718  0.00  0.00    +0.402 C 
ATOM      5  H   UNL     1      36.106 -18.435 -20.444  0.00  0.00    +0.153 HD
BRANCH   4   6
ATOM      6  O   UNL     1      35.251 -20.529 -19.873  0.00  0.00    -0.430 OA
BRANCH   6   7
ATOM      7  C   UNL     1      34.527 -21.640 -19.331  0.00  0.00    +0.237 C 
BRANCH   7   8
ATOM      8  C   UNL     1      35.207 -22.102 -18.075  0.00  0.00    +0.021 C 
ATOM      9  C   UNL     1      34.504 -22.873 -17.156  0.00  0.00    -0.001 C 
ATOM     10  C   UNL     1      36.533 -21.754 -17.842  0.00  0.00    -0.001 C 
ATOM     11  C   UNL     1      35.137 -23.301 -15.988  0.00  0.00    -0.000 C 
ATOM     12  C   UNL     1      37.164 -22.182 -16.675  0.00  0.00    -0.000 C 
ATOM     13  C   UNL     1      36.467 -22.956 -15.748  0.00  0.00    -0.000 C 
ENDBRANCH   7   8
ENDBRANCH   6   7
ENDBRANCH   4   6
ENDBRANCH   1   3
BRANCH   1  14
ATOM     14  C   UNL     1      34.806 -16.152 -20.937  0.00  0.00    +0.049 C 
BRANCH  14  15
ATOM     15  C   UNL     1      33.995 -15.021 -21.517  0.00  0.00    -0.020 C 
ATOM     16  C   UNL     1      32.945 -14.488 -20.782  0.00  0.00    -0.004 C 
ATOM     17  C   UNL     1      34.309 -14.532 -22.776  0.00  0.00    -0.004 C 
ATOM     18  C   UNL     1      32.194 -13.443 -21.320  0.00  0.00    -0.000 C 
ATOM     19  C   UNL     1      33.560 -13.486 -23.313  0.00  0.00    -0.000 C 
ATOM     20  C   UNL     1      32.501 -12.941 -22.585  0.00  0.00    -0.000 C 
ENDBRANCH  14  15
ENDBRANCH   1  14
BRANCH   1  21
ATOM     21  C   UNL     1      35.606 -17.460 -23.048  0.00  0.00    +0.228 C 
BRANCH  21  22
ATOM     22  O   UNL     1      36.815 -18.179 -22.848  0.00  0.00    -0.373 OA
ATOM     23  H   UNL     1      37.499 -17.575 -22.519  0.00  0.00    +0.211 HD
ENDBRANCH  21  22
BRANCH  21  25
ATOM     24  O   UNL     1      34.554 -17.461 -25.243  0.00  0.00    -0.248 OA
ATOM     25  C   UNL     1      34.878 -18.071 -24.233  0.00  0.00    +0.343 C 
BRANCH  25  26
ATOM     26  O   UNL     1      34.580 -19.381 -24.037  0.00  0.00    -0.478 OA
ATOM     27  H   UNL     1      33.760 -19.624 -23.656  0.00  0.00    +0.295 HD
ENDBRANCH  25  26
ENDBRANCH  21  25
ENDBRANCH   1  21
TORSDOF 10
ENDMDL
