MODEL 1
REMARK VINA RESULT:      -9.2      0.000      0.000
REMARK  Name = 25134246
REMARK  5 active torsions:
REMARK  status: ('A' for Active; 'I' for Inactive)
REMARK    1  A    between atoms: C_1  and  N_3
REMARK    2  A    between atoms: C_1  and  C_14
REMARK    3  A    between atoms: C_1  and  C_22
REMARK    4  A    between atoms: C_4  and  C_6
REMARK    5  A    between atoms: N_13  and  C_17
REMARK                            x       y       z     vdW  Elec       q    Type
REMARK                         _______ _______ _______ _____ _____    ______ ____
ROOT
ATOM      1  C   UNL     1      33.194 -11.476 -24.218  0.00  0.00    +0.149 C 
ENDROOT
BRANCH   1   3
ATOM      2  O   UNL     1      31.246  -9.667 -23.053  0.00  0.00    -0.275 OA
ATOM      3  N   UNL     1      33.455 -10.257 -23.495  0.00  0.00    -0.298 N 
ATOM      4  C   UNL     1      32.453  -9.454 -22.972  0.00  0.00    +0.222 C 
ATOM      5  H   UNL     1      34.390  -9.981 -23.365  0.00  0.00    +0.150 HD
BRANCH   4   6
ATOM      6  C   UNL     1      32.999  -8.259 -22.245  0.00  0.00    +0.076 C 
ATOM      7  C   UNL     1      34.164  -7.633 -23.013  0.00  0.00    +0.009 C 
ATOM      8  C   UNL     1      31.877  -7.260 -21.955  0.00  0.00    +0.009 C 
ATOM      9  C   UNL     1      33.723  -6.812 -24.224  0.00  0.00    +0.000 C 
ATOM     10  C   UNL     1      31.455  -6.460 -23.186  0.00  0.00    +0.000 C 
ATOM     11  C   UNL     1      32.649  -5.794 -23.860  0.00  0.00    +0.000 C 
ENDBRANCH   4   6
ENDBRANCH   1   3
BRANCH   1  14
ATOM     12  O   UNL     1      32.110 -12.721 -22.455  0.00  0.00    -0.273 OA
ATOM     13  N   UNL     1      34.201 -13.440 -23.240  0.00  0.00    -0.282 N 
ATOM     14  C   UNL     1      33.078 -12.617 -23.203  0.00  0.00    +0.244 C 
ATOM     15  H   UNL     1      34.899 -13.193 -23.890  0.00  0.00    +0.155 HD
BRANCH  13  17
ATOM     16  N   UNL     1      34.959 -16.860 -20.905  0.00  0.00    -0.242 NA
ATOM     17  C   UNL     1      34.455 -14.590 -22.455  0.00  0.00    +0.053 C 
ATOM     18  C   UNL     1      34.340 -14.530 -21.071  0.00  0.00    +0.035 C 
ATOM     19  C   UNL     1      34.821 -15.785 -23.066  0.00  0.00    +0.035 C 
ATOM     20  C   UNL     1      34.601 -15.683 -20.349  0.00  0.00    +0.100 C 
ATOM     21  C   UNL     1      35.060 -16.882 -22.254  0.00  0.00    +0.100 C 
ENDBRANCH  13  17
ENDBRANCH   1  14
BRANCH   1  22
ATOM     22  C   UNL     1      34.247 -11.772 -25.308  0.00  0.00    +0.027 C 
ATOM     23  C   UNL     1      35.106 -10.553 -25.661  0.00  0.00    +0.002 C 
ATOM     24  C   UNL     1      33.587 -12.327 -26.574  0.00  0.00    +0.002 C 
ENDBRANCH   1  22
TORSDOF 5
ENDMDL
MODEL 2
REMARK VINA RESULT:      -8.7      4.376      6.911
REMARK  Name = 25134246
REMARK  5 active torsions:
REMARK  status: ('A' for Active; 'I' for Inactive)
REMARK    1  A    between atoms: C_1  and  N_3
REMARK    2  A    between atoms: C_1  and  C_14
REMARK    3  A    between atoms: C_1  and  C_22
REMARK    4  A    between atoms: C_4  and  C_6
REMARK    5  A    between atoms: N_13  and  C_17
REMARK                            x       y       z     vdW  Elec       q    Type
REMARK                         _______ _______ _______ _____ _____    ______ ____
ROOT
ATOM      1  C   UNL     1      34.539 -18.086 -22.805  0.00  0.00    +0.149 C 
ENDROOT
BRANCH   1   3
ATOM      2  O   UNL     1      32.929 -16.692 -20.832  0.00  0.00    -0.275 OA
ATOM      3  N   UNL     1      34.644 -16.704 -22.407  0.00  0.00    -0.298 N 
ATOM      4  C   UNL     1      33.827 -16.124 -21.450  0.00  0.00    +0.222 C 
ATOM      5  H   UNL     1      35.331 -16.146 -22.836  0.00  0.00    +0.150 HD
BRANCH   4   6
ATOM      6  C   UNL     1      34.164 -14.681 -21.208  0.00  0.00    +0.076 C 
ATOM      7  C   UNL     1      34.543 -13.979 -22.513  0.00  0.00    +0.009 C 
ATOM      8  C   UNL     1      33.016 -13.987 -20.474  0.00  0.00    +0.009 C 
ATOM      9  C   UNL     1      33.340 -13.647 -23.396  0.00  0.00    +0.000 C 
ATOM     10  C   UNL     1      31.828 -13.674 -21.381  0.00  0.00    +0.000 C 
ATOM     11  C   UNL     1      32.257 -12.902 -22.623  0.00  0.00    +0.000 C 
ENDBRANCH   4   6
ENDBRANCH   1   3
BRANCH   1  14
ATOM     12  O   UNL     1      36.415 -18.862 -21.495  0.00  0.00    -0.273 OA
ATOM     13  N   UNL     1      34.298 -19.806 -21.128  0.00  0.00    -0.282 N 
ATOM     14  C   UNL     1      35.212 -18.944 -21.729  0.00  0.00    +0.244 C 
ATOM     15  H   UNL     1      33.371 -19.755 -21.458  0.00  0.00    +0.155 HD
BRANCH  13  17
ATOM     16  N   UNL     1      35.031 -22.599 -18.065  0.00  0.00    -0.242 NA
ATOM     17  C   UNL     1      34.544 -20.745 -20.098  0.00  0.00    +0.053 C 
ATOM     18  C   UNL     1      35.839 -20.951 -19.637  0.00  0.00    +0.035 C 
ATOM     19  C   UNL     1      33.492 -21.464 -19.543  0.00  0.00    +0.035 C 
ATOM     20  C   UNL     1      36.027 -21.881 -18.628  0.00  0.00    +0.100 C 
ATOM     21  C   UNL     1      33.785 -22.371 -18.538  0.00  0.00    +0.100 C 
ENDBRANCH  13  17
ENDBRANCH   1  14
BRANCH   1  22
ATOM     22  C   UNL     1      35.115 -18.358 -24.211  0.00  0.00    +0.027 C 
ATOM     23  C   UNL     1      34.724 -17.290 -25.238  0.00  0.00    +0.002 C 
ATOM     24  C   UNL     1      34.699 -19.743 -24.717  0.00  0.00    +0.002 C 
ENDBRANCH   1  22
TORSDOF 5
ENDMDL
MODEL 3
REMARK VINA RESULT:      -8.7      4.692      7.450
REMARK  Name = 25134246
REMARK  5 active torsions:
REMARK  status: ('A' for Active; 'I' for Inactive)
REMARK    1  A    between atoms: C_1  and  N_3
REMARK    2  A    between atoms: C_1  and  C_14
REMARK    3  A    between atoms: C_1  and  C_22
REMARK    4  A    between atoms: C_4  and  C_6
REMARK    5  A    between atoms: N_13  and  C_17
REMARK                            x       y       z     vdW  Elec       q    Type
REMARK                         _______ _______ _______ _____ _____    ______ ____
ROOT
ATOM      1  C   UNL     1      34.075 -18.664 -22.325  0.00  0.00    +0.149 C 
ENDROOT
BRANCH   1   3
ATOM      2  O   UNL     1      33.870 -16.253 -23.928  0.00  0.00    -0.275 OA
ATOM      3  N   UNL     1      34.396 -17.317 -21.925  0.00  0.00    -0.298 N 
ATOM      4  C   UNL     1      34.265 -16.222 -22.765  0.00  0.00    +0.222 C 
ATOM      5  H   UNL     1      34.725 -17.167 -21.010  0.00  0.00    +0.150 HD
BRANCH   4   6
ATOM      6  C   UNL     1      34.644 -14.935 -22.092  0.00  0.00    +0.076 C 
ATOM      7  C   UNL     1      34.039 -13.734 -22.821  0.00  0.00    +0.009 C 
ATOM      8  C   UNL     1      34.262 -14.983 -20.612  0.00  0.00    +0.009 C 
ATOM      9  C   UNL     1      32.547 -13.547 -22.549  0.00  0.00    +0.000 C 
ATOM     10  C   UNL     1      32.765 -14.798 -20.373  0.00  0.00    +0.000 C 
ATOM     11  C   UNL     1      32.237 -13.541 -21.057  0.00  0.00    +0.000 C 
ENDBRANCH   4   6
ENDBRANCH   1   3
BRANCH   1  14
ATOM     12  O   UNL     1      32.629 -19.280 -20.489  0.00  0.00    -0.273 OA
ATOM     13  N   UNL     1      34.720 -20.325 -20.696  0.00  0.00    -0.282 N 
ATOM     14  C   UNL     1      33.697 -19.456 -21.069  0.00  0.00    +0.244 C 
ATOM     15  H   UNL     1      35.524 -20.320 -21.265  0.00  0.00    +0.155 HD
BRANCH  13  17
ATOM     16  N   UNL     1      34.775 -22.973 -17.423  0.00  0.00    -0.242 NA
ATOM     17  C   UNL     1      34.739 -21.216 -19.596  0.00  0.00    +0.053 C 
ATOM     18  C   UNL     1      33.593 -21.925 -19.252  0.00  0.00    +0.035 C 
ATOM     19  C   UNL     1      35.903 -21.385 -18.855  0.00  0.00    +0.035 C 
ATOM     20  C   UNL     1      33.663 -22.782 -18.167  0.00  0.00    +0.100 C 
ATOM     21  C   UNL     1      35.870 -22.268 -17.788  0.00  0.00    +0.100 C 
ENDBRANCH  13  17
ENDBRANCH   1  14
BRANCH   1  22
ATOM     22  C   UNL     1      35.205 -19.346 -23.125  0.00  0.00    +0.027 C 
ATOM     23  C   UNL     1      36.558 -18.643 -22.974  0.00  0.00    +0.002 C 
ATOM     24  C   UNL     1      34.839 -19.457 -24.608  0.00  0.00    +0.002 C 
ENDBRANCH   1  22
TORSDOF 5
ENDMDL
MODEL 4
REMARK VINA RESULT:      -8.5     12.792     15.305
REMARK  Name = 25134246
REMARK  5 active torsions:
REMARK  status: ('A' for Active; 'I' for Inactive)
REMARK    1  A    between atoms: C_1  and  N_3
REMARK    2  A    between atoms: C_1  and  C_14
REMARK    3  A    between atoms: C_1  and  C_22
REMARK    4  A    between atoms: C_4  and  C_6
REMARK    5  A    between atoms: N_13  and  C_17
REMARK                            x       y       z     vdW  Elec       q    Type
REMARK                         _______ _______ _______ _____ _____    ______ ____
ROOT
ATOM      1  C   UNL     1      34.113 -23.504 -16.564  0.00  0.00    +0.149 C 
ENDROOT
BRANCH   1   3
ATOM      2  O   UNL     1      31.474 -23.131 -17.713  0.00  0.00    -0.275 OA
ATOM      3  N   UNL     1      32.903 -23.132 -15.875  0.00  0.00    -0.298 N 
ATOM      4  C   UNL     1      31.682 -22.976 -16.512  0.00  0.00    +0.222 C 
ATOM      5  H   UNL     1      32.946 -22.980 -14.903  0.00  0.00    +0.150 HD
BRANCH   4   6
ATOM      6  C   UNL     1      30.582 -22.609 -15.559  0.00  0.00    +0.076 C 
ATOM      7  C   UNL     1      29.208 -22.877 -16.176  0.00  0.00    +0.009 C 
ATOM      8  C   UNL     1      30.780 -23.327 -14.223  0.00  0.00    +0.009 C 
ATOM      9  C   UNL     1      28.827 -24.356 -16.194  0.00  0.00    +0.000 C 
ATOM     10  C   UNL     1      30.396 -24.804 -14.275  0.00  0.00    +0.000 C 
ATOM     11  C   UNL     1      28.987 -25.001 -14.821  0.00  0.00    +0.000 C 
ENDBRANCH   4   6
ENDBRANCH   1   3
BRANCH   1  14
ATOM     12  O   UNL     1      35.781 -25.070 -15.785  0.00  0.00    -0.273 OA
ATOM     13  N   UNL     1      35.027 -23.389 -14.332  0.00  0.00    -0.282 N 
ATOM     14  C   UNL     1      35.087 -24.088 -15.535  0.00  0.00    +0.244 C 
ATOM     15  H   UNL     1      34.391 -22.637 -14.297  0.00  0.00    +0.155 HD
BRANCH  13  17
ATOM     16  N   UNL     1      37.245 -24.109 -10.827  0.00  0.00    -0.242 NA
ATOM     17  C   UNL     1      35.773 -23.631 -13.154  0.00  0.00    +0.053 C 
ATOM     18  C   UNL     1      35.148 -24.152 -12.027  0.00  0.00    +0.035 C 
ATOM     19  C   UNL     1      37.134 -23.350 -13.119  0.00  0.00    +0.035 C 
ATOM     20  C   UNL     1      35.921 -24.370 -10.899  0.00  0.00    +0.100 C 
ATOM     21  C   UNL     1      37.819 -23.605 -11.943  0.00  0.00    +0.100 C 
ENDBRANCH  13  17
ENDBRANCH   1  14
BRANCH   1  22
ATOM     22  C   UNL     1      34.740 -22.341 -17.362  0.00  0.00    +0.027 C 
ATOM     23  C   UNL     1      34.480 -22.437 -18.869  0.00  0.00    +0.002 C 
ATOM     24  C   UNL     1      36.246 -22.242 -17.099  0.00  0.00    +0.002 C 
ENDBRANCH   1  22
TORSDOF 5
ENDMDL
MODEL 5
REMARK VINA RESULT:      -8.0      1.662      7.230
REMARK  Name = 25134246
REMARK  5 active torsions:
REMARK  status: ('A' for Active; 'I' for Inactive)
REMARK    1  A    between atoms: C_1  and  N_3
REMARK    2  A    between atoms: C_1  and  C_14
REMARK    3  A    between atoms: C_1  and  C_22
REMARK    4  A    between atoms: C_4  and  C_6
REMARK    5  A    between atoms: N_13  and  C_17
REMARK                            x       y       z     vdW  Elec       q    Type
REMARK                         _______ _______ _______ _____ _____    ______ ____
ROOT
ATOM      1  C   UNL     1      33.822 -11.585 -23.947  0.00  0.00    +0.149 C 
ENDROOT
BRANCH   1   3
ATOM      2  O   UNL     1      34.630 -13.473 -21.894  0.00  0.00    -0.275 OA
ATOM      3  N   UNL     1      33.402 -12.957 -23.804  0.00  0.00    -0.298 N 
ATOM      4  C   UNL     1      33.845 -13.786 -22.785  0.00  0.00    +0.222 C 
ATOM      5  H   UNL     1      32.769 -13.323 -24.463  0.00  0.00    +0.150 HD
BRANCH   4   6
ATOM      6  C   UNL     1      33.233 -15.156 -22.856  0.00  0.00    +0.076 C 
ATOM      7  C   UNL     1      33.863 -15.981 -23.979  0.00  0.00    +0.009 C 
ATOM      8  C   UNL     1      33.323 -15.844 -21.494  0.00  0.00    +0.009 C 
ATOM      9  C   UNL     1      35.253 -16.517 -23.635  0.00  0.00    +0.000 C 
ATOM     10  C   UNL     1      34.724 -16.363 -21.176  0.00  0.00    +0.000 C 
ATOM     11  C   UNL     1      35.265 -17.245 -22.296  0.00  0.00    +0.000 C 
ENDBRANCH   4   6
ENDBRANCH   1   3
BRANCH   1  14
ATOM     12  O   UNL     1      31.880 -11.178 -22.568  0.00  0.00    -0.273 OA
ATOM     13  N   UNL     1      33.178  -9.357 -23.279  0.00  0.00    -0.282 N 
ATOM     14  C   UNL     1      32.841 -10.703 -23.168  0.00  0.00    +0.244 C 
ATOM     15  H   UNL     1      33.973  -9.151 -23.823  0.00  0.00    +0.155 HD
BRANCH  13  17
ATOM     16  N   UNL     1      31.198  -6.063 -21.560  0.00  0.00    -0.242 NA
ATOM     17  C   UNL     1      32.513  -8.249 -22.701  0.00  0.00    +0.053 C 
ATOM     18  C   UNL     1      32.842  -7.829 -21.418  0.00  0.00    +0.035 C 
ATOM     19  C   UNL     1      31.528  -7.576 -23.416  0.00  0.00    +0.035 C 
ATOM     20  C   UNL     1      32.161  -6.741 -20.897  0.00  0.00    +0.100 C 
ATOM     21  C   UNL     1      30.906  -6.499 -22.806  0.00  0.00    +0.100 C 
ENDBRANCH  13  17
ENDBRANCH   1  14
BRANCH   1  22
ATOM     22  C   UNL     1      33.959 -11.142 -25.419  0.00  0.00    +0.027 C 
ATOM     23  C   UNL     1      33.713 -12.280 -26.415  0.00  0.00    +0.002 C 
ATOM     24  C   UNL     1      35.332 -10.512 -25.678  0.00  0.00    +0.002 C 
ENDBRANCH   1  22
TORSDOF 5
ENDMDL
MODEL 6
REMARK VINA RESULT:      -7.7      2.161      3.572
REMARK  Name = 25134246
REMARK  5 active torsions:
REMARK  status: ('A' for Active; 'I' for Inactive)
REMARK    1  A    between atoms: C_1  and  N_3
REMARK    2  A    between atoms: C_1  and  C_14
REMARK    3  A    between atoms: C_1  and  C_22
REMARK    4  A    between atoms: C_4  and  C_6
REMARK    5  A    between atoms: N_13  and  C_17
REMARK                            x       y       z     vdW  Elec       q    Type
REMARK                         _______ _______ _______ _____ _____    ______ ____
ROOT
ATOM      1  C   UNL     1      32.453 -10.264 -22.035  0.00  0.00    +0.149 C 
ENDROOT
BRANCH   1   3
ATOM      2  O   UNL     1      32.465  -7.404 -21.539  0.00  0.00    -0.275 OA
ATOM      3  N   UNL     1      31.594  -9.269 -22.627  0.00  0.00    -0.298 N 
ATOM      4  C   UNL     1      31.675  -7.919 -22.326  0.00  0.00    +0.222 C 
ATOM      5  H   UNL     1      30.916  -9.564 -23.277  0.00  0.00    +0.150 HD
BRANCH   4   6
ATOM      6  C   UNL     1      30.681  -7.100 -23.100  0.00  0.00    +0.076 C 
ATOM      7  C   UNL     1      30.458  -5.739 -22.439  0.00  0.00    +0.009 C 
ATOM      8  C   UNL     1      31.118  -6.984 -24.561  0.00  0.00    +0.009 C 
ATOM      9  C   UNL     1      31.600  -4.752 -22.679  0.00  0.00    +0.000 C 
ATOM     10  C   UNL     1      32.264  -5.995 -24.767  0.00  0.00    +0.000 C 
ATOM     11  C   UNL     1      31.948  -4.633 -24.158  0.00  0.00    +0.000 C 
ENDBRANCH   4   6
ENDBRANCH   1   3
BRANCH   1  14
ATOM     12  O   UNL     1      33.367 -10.708 -24.227  0.00  0.00    -0.273 OA
ATOM     13  N   UNL     1      32.911 -12.510 -22.794  0.00  0.00    -0.282 N 
ATOM     14  C   UNL     1      32.979 -11.166 -23.156  0.00  0.00    +0.244 C 
ATOM     15  H   UNL     1      32.547 -12.701 -21.899  0.00  0.00    +0.155 HD
BRANCH  13  17
ATOM     16  N   UNL     1      34.079 -15.848 -25.078  0.00  0.00    -0.242 NA
ATOM     17  C   UNL     1      33.303 -13.632 -23.562  0.00  0.00    +0.053 C 
ATOM     18  C   UNL     1      34.203 -14.555 -23.040  0.00  0.00    +0.035 C 
ATOM     19  C   UNL     1      32.790 -13.817 -24.841  0.00  0.00    +0.035 C 
ATOM     20  C   UNL     1      34.556 -15.635 -23.832  0.00  0.00    +0.100 C 
ATOM     21  C   UNL     1      33.205 -14.931 -25.552  0.00  0.00    +0.100 C 
ENDBRANCH  13  17
ENDBRANCH   1  14
BRANCH   1  22
ATOM     22  C   UNL     1      31.765 -11.071 -20.914  0.00  0.00    +0.027 C 
ATOM     23  C   UNL     1      30.264 -11.269 -21.149  0.00  0.00    +0.002 C 
ATOM     24  C   UNL     1      31.996 -10.419 -19.546  0.00  0.00    +0.002 C 
ENDBRANCH   1  22
TORSDOF 5
ENDMDL
MODEL 7
REMARK VINA RESULT:      -7.6     10.598     15.701
REMARK  Name = 25134246
REMARK  5 active torsions:
REMARK  status: ('A' for Active; 'I' for Inactive)
REMARK    1  A    between atoms: C_1  and  N_3
REMARK    2  A    between atoms: C_1  and  C_14
REMARK    3  A    between atoms: C_1  and  C_22
REMARK    4  A    between atoms: C_4  and  C_6
REMARK    5  A    between atoms: N_13  and  C_17
REMARK                            x       y       z     vdW  Elec       q    Type
REMARK                         _______ _______ _______ _____ _____    ______ ____
ROOT
ATOM      1  C   UNL     1      34.685 -24.286 -15.762  0.00  0.00    +0.149 C 
ENDROOT
BRANCH   1   3
ATOM      2  O   UNL     1      36.123 -26.807 -15.733  0.00  0.00    -0.275 OA
ATOM      3  N   UNL     1      35.870 -24.609 -15.008  0.00  0.00    -0.298 N 
ATOM      4  C   UNL     1      36.490 -25.848 -15.058  0.00  0.00    +0.222 C 
ATOM      5  H   UNL     1      36.258 -23.915 -14.427  0.00  0.00    +0.150 HD
BRANCH   4   6
ATOM      6  C   UNL     1      37.717 -25.909 -14.196  0.00  0.00    +0.076 C 
ATOM      7  C   UNL     1      38.409 -24.546 -14.126  0.00  0.00    +0.009 C 
ATOM      8  C   UNL     1      37.364 -26.464 -12.815  0.00  0.00    +0.009 C 
ATOM      9  C   UNL     1      37.699 -23.550 -13.210  0.00  0.00    +0.000 C 
ATOM     10  C   UNL     1      36.651 -25.447 -11.925  0.00  0.00    +0.000 C 
ATOM     11  C   UNL     1      37.430 -24.140 -11.830  0.00  0.00    +0.000 C 
ENDBRANCH   4   6
ENDBRANCH   1   3
BRANCH   1  14
ATOM     12  O   UNL     1      35.596 -22.069 -16.064  0.00  0.00    -0.273 OA
ATOM     13  N   UNL     1      34.360 -23.041 -17.805  0.00  0.00    -0.282 N 
ATOM     14  C   UNL     1      34.956 -22.999 -16.547  0.00  0.00    +0.244 C 
ATOM     15  H   UNL     1      33.860 -23.862 -18.021  0.00  0.00    +0.155 HD
BRANCH  13  17
ATOM     16  N   UNL     1      34.449 -20.077 -20.793  0.00  0.00    -0.242 NA
ATOM     17  C   UNL     1      34.390 -22.045 -18.810  0.00  0.00    +0.053 C 
ATOM     18  C   UNL     1      33.206 -21.476 -19.264  0.00  0.00    +0.035 C 
ATOM     19  C   UNL     1      35.604 -21.630 -19.345  0.00  0.00    +0.035 C 
ATOM     20  C   UNL     1      33.289 -20.505 -20.249  0.00  0.00    +0.100 C 
ATOM     21  C   UNL     1      35.580 -20.651 -20.326  0.00  0.00    +0.100 C 
ENDBRANCH  13  17
ENDBRANCH   1  14
BRANCH   1  22
ATOM     22  C   UNL     1      33.418 -24.177 -14.887  0.00  0.00    +0.027 C 
ATOM     23  C   UNL     1      32.447 -23.094 -15.366  0.00  0.00    +0.002 C 
ATOM     24  C   UNL     1      33.784 -23.934 -13.418  0.00  0.00    +0.002 C 
ENDBRANCH   1  22
TORSDOF 5
ENDMDL
MODEL 8
REMARK VINA RESULT:      -7.6      2.219      3.291
REMARK  Name = 25134246
REMARK  5 active torsions:
REMARK  status: ('A' for Active; 'I' for Inactive)
REMARK    1  A    between atoms: C_1  and  N_3
REMARK    2  A    between atoms: C_1  and  C_14
REMARK    3  A    between atoms: C_1  and  C_22
REMARK    4  A    between atoms: C_4  and  C_6
REMARK    5  A    between atoms: N_13  and  C_17
REMARK                            x       y       z     vdW  Elec       q    Type
REMARK                         _______ _______ _______ _____ _____    ______ ____
ROOT
ATOM      1  C   UNL     1      32.736 -10.774 -22.408  0.00  0.00    +0.149 C 
ENDROOT
BRANCH   1   3
ATOM      2  O   UNL     1      32.763  -8.488 -20.618  0.00  0.00    -0.275 OA
ATOM      3  N   UNL     1      32.927  -9.389 -22.759  0.00  0.00    -0.298 N 
ATOM      4  C   UNL     1      32.924  -8.361 -21.830  0.00  0.00    +0.222 C 
ATOM      5  H   UNL     1      33.067  -9.162 -23.707  0.00  0.00    +0.150 HD
BRANCH   4   6
ATOM      6  C   UNL     1      33.170  -7.020 -22.459  0.00  0.00    +0.076 C 
ATOM      7  C   UNL     1      32.958  -7.076 -23.973  0.00  0.00    +0.009 C 
ATOM      8  C   UNL     1      32.308  -5.954 -21.781  0.00  0.00    +0.009 C 
ATOM      9  C   UNL     1      31.486  -7.104 -24.381  0.00  0.00    +0.000 C 
ATOM     10  C   UNL     1      30.842  -6.010 -22.205  0.00  0.00    +0.000 C 
ATOM     11  C   UNL     1      30.693  -5.981 -23.722  0.00  0.00    +0.000 C 
ENDBRANCH   4   6
ENDBRANCH   1   3
BRANCH   1  14
ATOM     12  O   UNL     1      34.037 -11.157 -24.407  0.00  0.00    -0.273 OA
ATOM     13  N   UNL     1      32.909 -12.960 -23.417  0.00  0.00    -0.282 N 
ATOM     14  C   UNL     1      33.324 -11.635 -23.530  0.00  0.00    +0.244 C 
ATOM     15  H   UNL     1      32.314 -13.166 -22.660  0.00  0.00    +0.155 HD
BRANCH  13  17
ATOM     16  N   UNL     1      33.904 -16.187 -25.931  0.00  0.00    -0.242 NA
ATOM     17  C   UNL     1      33.243 -14.045 -24.262  0.00  0.00    +0.053 C 
ATOM     18  C   UNL     1      34.042 -15.079 -23.788  0.00  0.00    +0.035 C 
ATOM     19  C   UNL     1      32.773 -14.081 -25.570  0.00  0.00    +0.035 C 
ATOM     20  C   UNL     1      34.341 -16.117 -24.655  0.00  0.00    +0.100 C 
ATOM     21  C   UNL     1      33.128 -15.165 -26.357  0.00  0.00    +0.100 C 
ENDBRANCH  13  17
ENDBRANCH   1  14
BRANCH   1  22
ATOM     22  C   UNL     1      31.263 -11.128 -22.114  0.00  0.00    +0.027 C 
ATOM     23  C   UNL     1      30.281 -10.045 -22.573  0.00  0.00    +0.002 C 
ATOM     24  C   UNL     1      31.054 -11.422 -20.625  0.00  0.00    +0.002 C 
ENDBRANCH   1  22
TORSDOF 5
ENDMDL
MODEL 9
REMARK VINA RESULT:      -7.6      2.270      6.662
REMARK  Name = 25134246
REMARK  5 active torsions:
REMARK  status: ('A' for Active; 'I' for Inactive)
REMARK    1  A    between atoms: C_1  and  N_3
REMARK    2  A    between atoms: C_1  and  C_14
REMARK    3  A    between atoms: C_1  and  C_22
REMARK    4  A    between atoms: C_4  and  C_6
REMARK    5  A    between atoms: N_13  and  C_17
REMARK                            x       y       z     vdW  Elec       q    Type
REMARK                         _______ _______ _______ _____ _____    ______ ____
ROOT
ATOM      1  C   UNL     1      34.322 -10.839 -24.303  0.00  0.00    +0.149 C 
ENDROOT
BRANCH   1   3
ATOM      2  O   UNL     1      34.605 -13.589 -23.418  0.00  0.00    -0.275 OA
ATOM      3  N   UNL     1      33.299 -11.690 -23.750  0.00  0.00    -0.298 N 
ATOM      4  C   UNL     1      33.530 -12.998 -23.353  0.00  0.00    +0.222 C 
ATOM      5  H   UNL     1      32.391 -11.324 -23.648  0.00  0.00    +0.150 HD
BRANCH   4   6
ATOM      6  C   UNL     1      32.301 -13.651 -22.789  0.00  0.00    +0.076 C 
ATOM      7  C   UNL     1      32.654 -14.943 -22.051  0.00  0.00    +0.009 C 
ATOM      8  C   UNL     1      31.533 -12.660 -21.913  0.00  0.00    +0.009 C 
ATOM      9  C   UNL     1      33.275 -14.708 -20.675  0.00  0.00    +0.000 C 
ATOM     10  C   UNL     1      32.181 -12.442 -20.547  0.00  0.00    +0.000 C 
ATOM     11  C   UNL     1      32.433 -13.761 -19.827  0.00  0.00    +0.000 C 
ENDBRANCH   4   6
ENDBRANCH   1   3
BRANCH   1  14
ATOM     12  O   UNL     1      35.049  -8.613 -23.708  0.00  0.00    -0.273 OA
ATOM     13  N   UNL     1      32.848  -9.262 -23.221  0.00  0.00    -0.282 N 
ATOM     14  C   UNL     1      34.135  -9.432 -23.726  0.00  0.00    +0.244 C 
ATOM     15  H   UNL     1      32.246 -10.038 -23.296  0.00  0.00    +0.155 HD
BRANCH  13  17
ATOM     16  N   UNL     1      31.231  -5.822 -21.412  0.00  0.00    -0.242 NA
ATOM     17  C   UNL     1      32.304  -8.106 -22.613  0.00  0.00    +0.053 C 
ATOM     18  C   UNL     1      31.426  -7.292 -23.320  0.00  0.00    +0.035 C 
ATOM     19  C   UNL     1      32.645  -7.779 -21.305  0.00  0.00    +0.035 C 
ATOM     20  C   UNL     1      30.923  -6.172 -22.680  0.00  0.00    +0.100 C 
ATOM     21  C   UNL     1      32.086  -6.637 -20.755  0.00  0.00    +0.100 C 
ENDBRANCH  13  17
ENDBRANCH   1  14
BRANCH   1  22
ATOM     22  C   UNL     1      34.340 -10.836 -25.847  0.00  0.00    +0.027 C 
ATOM     23  C   UNL     1      33.834 -12.148 -26.456  0.00  0.00    +0.002 C 
ATOM     24  C   UNL     1      35.741 -10.521 -26.380  0.00  0.00    +0.002 C 
ENDBRANCH   1  22
TORSDOF 5
ENDMDL
