MODEL 1
REMARK VINA RESULT:      -8.9      0.000      0.000
REMARK  Name = 46937170
REMARK  7 active torsions:
REMARK  status: ('A' for Active; 'I' for Inactive)
REMARK    1  A    between atoms: C_2  and  S_16
REMARK    2  A    between atoms: C_3  and  C_18
REMARK    3  A    between atoms: C_5  and  N_8
REMARK    4  A    between atoms: C_18  and  O_19
REMARK    5  A    between atoms: O_19  and  P_20
REMARK    6  A    between atoms: P_20  and  O_22
REMARK    7  A    between atoms: P_20  and  O_24
REMARK                            x       y       z     vdW  Elec       q    Type
REMARK                         _______ _______ _______ _____ _____    ______ ____
ROOT
ATOM      1  O   UNL     1      36.073 -22.730 -14.589  0.00  0.00    -0.336 OA
ATOM      2  C   UNL     1      36.110 -24.866 -13.532  0.00  0.00    +0.078 C 
ATOM      3  C   UNL     1      36.970 -23.700 -14.016  0.00  0.00    +0.157 C 
ATOM      4  C   UNL     1      34.923 -24.807 -14.470  0.00  0.00    +0.064 C 
ATOM      5  C   UNL     1      34.776 -23.320 -14.750  0.00  0.00    +0.200 C 
ENDROOT
BRANCH   5   8
ATOM      6  O   UNL     1      32.093 -23.698 -15.624  0.00  0.00    -0.252 OA
ATOM      7  O   UNL     1      33.090 -22.222 -19.864  0.00  0.00    -0.270 OA
ATOM      8  N   UNL     1      34.290 -23.047 -16.070  0.00  0.00    -0.219 N 
ATOM      9  N   UNL     1      32.604 -22.960 -17.735  0.00  0.00    -0.236 N 
ATOM     10  C   UNL     1      35.182 -22.559 -17.017  0.00  0.00    +0.071 C 
ATOM     11  C   UNL     1      32.938 -23.268 -16.412  0.00  0.00    +0.315 C 
ATOM     12  C   UNL     1      34.859 -22.265 -18.283  0.00  0.00    +0.047 C 
ATOM     13  C   UNL     1      33.452 -22.472 -18.718  0.00  0.00    +0.250 C 
ATOM     14  C   UNL     1      35.835 -21.740 -19.285  0.00  0.00    +0.037 C 
ATOM     15  H   UNL     1      31.666 -23.104 -17.997  0.00  0.00    +0.159 HD
ENDBRANCH   5   8
BRANCH   2  16
ATOM     16  S   UNL     1      35.576 -24.603 -11.803  0.00  0.00    -0.166 S 
ATOM     17  H   UNL     1      36.664 -24.365 -11.022  0.00  0.00    +0.102 HD
ENDBRANCH   2  16
BRANCH   3  18
ATOM     18  C   UNL     1      37.957 -24.120 -15.103  0.00  0.00    +0.184 C 
BRANCH  18  19
ATOM     19  O   UNL     1      39.206 -24.412 -14.497  0.00  0.00    -0.271 OA
BRANCH  19  20
ATOM     20  P   UNL     1      39.859 -25.872 -14.741  0.00  0.00    +0.473 P 
ATOM     21  O   UNL     1      40.936 -26.255 -13.768  0.00  0.00    -0.227 OA
BRANCH  20  22
ATOM     22  O   UNL     1      40.309 -25.838 -16.294  0.00  0.00    -0.303 OA
ATOM     23  H   UNL     1      39.724 -26.411 -16.813  0.00  0.00    +0.222 HD
ENDBRANCH  20  22
BRANCH  20  24
ATOM     24  O   UNL     1      38.569 -26.847 -14.749  0.00  0.00    -0.303 OA
ATOM     25  H   UNL     1      38.742 -27.608 -15.324  0.00  0.00    +0.222 HD
ENDBRANCH  20  24
ENDBRANCH  19  20
ENDBRANCH  18  19
ENDBRANCH   3  18
TORSDOF 7
ENDMDL
MODEL 2
REMARK VINA RESULT:      -8.4      2.962      4.390
REMARK  Name = 46937170
REMARK  7 active torsions:
REMARK  status: ('A' for Active; 'I' for Inactive)
REMARK    1  A    between atoms: C_2  and  S_16
REMARK    2  A    between atoms: C_3  and  C_18
REMARK    3  A    between atoms: C_5  and  N_8
REMARK    4  A    between atoms: C_18  and  O_19
REMARK    5  A    between atoms: O_19  and  P_20
REMARK    6  A    between atoms: P_20  and  O_22
REMARK    7  A    between atoms: P_20  and  O_24
REMARK                            x       y       z     vdW  Elec       q    Type
REMARK                         _______ _______ _______ _____ _____    ______ ____
ROOT
ATOM      1  O   UNL     1      35.021 -24.627 -16.024  0.00  0.00    -0.336 OA
ATOM      2  C   UNL     1      36.521 -23.126 -14.941  0.00  0.00    +0.078 C 
ATOM      3  C   UNL     1      36.121 -24.592 -15.097  0.00  0.00    +0.157 C 
ATOM      4  C   UNL     1      35.219 -22.402 -15.212  0.00  0.00    +0.064 C 
ATOM      5  C   UNL     1      34.533 -23.295 -16.233  0.00  0.00    +0.200 C 
ENDROOT
BRANCH   5   8
ATOM      6  O   UNL     1      32.711 -22.513 -18.277  0.00  0.00    -0.252 OA
ATOM      7  O   UNL     1      29.076 -23.323 -15.578  0.00  0.00    -0.270 OA
ATOM      8  N   UNL     1      33.105 -23.287 -16.109  0.00  0.00    -0.219 N 
ATOM      9  N   UNL     1      30.907 -22.920 -16.920  0.00  0.00    -0.236 N 
ATOM     10  C   UNL     1      32.542 -23.688 -14.904  0.00  0.00    +0.071 C 
ATOM     11  C   UNL     1      32.281 -22.879 -17.181  0.00  0.00    +0.315 C 
ATOM     12  C   UNL     1      31.226 -23.726 -14.658  0.00  0.00    +0.047 C 
ATOM     13  C   UNL     1      30.293 -23.312 -15.739  0.00  0.00    +0.250 C 
ATOM     14  C   UNL     1      30.642 -24.163 -13.353  0.00  0.00    +0.037 C 
ATOM     15  H   UNL     1      30.311 -22.643 -17.653  0.00  0.00    +0.159 HD
ENDBRANCH   5   8
BRANCH   2  16
ATOM     16  S   UNL     1      37.784 -22.662 -16.180  0.00  0.00    -0.166 S 
ATOM     17  H   UNL     1      37.775 -21.313 -16.354  0.00  0.00    +0.102 HD
ENDBRANCH   2  16
BRANCH   3  18
ATOM     18  C   UNL     1      35.643 -25.204 -13.783  0.00  0.00    +0.184 C 
BRANCH  18  19
ATOM     19  O   UNL     1      36.558 -24.855 -12.756  0.00  0.00    -0.271 OA
BRANCH  19  20
ATOM     20  P   UNL     1      35.990 -24.100 -11.442  0.00  0.00    +0.473 P 
ATOM     21  O   UNL     1      36.957 -23.157 -10.787  0.00  0.00    -0.227 OA
BRANCH  20  22
ATOM     22  O   UNL     1      35.458 -25.306 -10.506  0.00  0.00    -0.303 OA
ATOM     23  H   UNL     1      34.675 -25.013 -10.015  0.00  0.00    +0.222 HD
ENDBRANCH  20  22
BRANCH  20  24
ATOM     24  O   UNL     1      34.627 -23.416 -11.980  0.00  0.00    -0.303 OA
ATOM     25  H   UNL     1      34.784 -23.028 -12.855  0.00  0.00    +0.222 HD
ENDBRANCH  20  24
ENDBRANCH  19  20
ENDBRANCH  18  19
ENDBRANCH   3  18
TORSDOF 7
ENDMDL
MODEL 3
REMARK VINA RESULT:      -8.3      1.555      2.355
REMARK  Name = 46937170
REMARK  7 active torsions:
REMARK  status: ('A' for Active; 'I' for Inactive)
REMARK    1  A    between atoms: C_2  and  S_16
REMARK    2  A    between atoms: C_3  and  C_18
REMARK    3  A    between atoms: C_5  and  N_8
REMARK    4  A    between atoms: C_18  and  O_19
REMARK    5  A    between atoms: O_19  and  P_20
REMARK    6  A    between atoms: P_20  and  O_22
REMARK    7  A    between atoms: P_20  and  O_24
REMARK                            x       y       z     vdW  Elec       q    Type
REMARK                         _______ _______ _______ _____ _____    ______ ____
ROOT
ATOM      1  O   UNL     1      37.449 -23.404 -14.958  0.00  0.00    -0.336 OA
ATOM      2  C   UNL     1      36.698 -24.338 -12.897  0.00  0.00    +0.078 C 
ATOM      3  C   UNL     1      37.744 -24.443 -14.005  0.00  0.00    +0.157 C 
ATOM      4  C   UNL     1      35.510 -23.746 -13.626  0.00  0.00    +0.064 C 
ATOM      5  C   UNL     1      36.155 -22.854 -14.673  0.00  0.00    +0.200 C 
ENDROOT
BRANCH   5   8
ATOM      6  O   UNL     1      37.166 -22.011 -17.199  0.00  0.00    -0.252 OA
ATOM      7  O   UNL     1      33.084 -22.624 -19.226  0.00  0.00    -0.270 OA
ATOM      8  N   UNL     1      35.395 -22.779 -15.886  0.00  0.00    -0.219 N 
ATOM      9  N   UNL     1      35.125 -22.320 -18.197  0.00  0.00    -0.236 N 
ATOM     10  C   UNL     1      34.054 -23.141 -15.851  0.00  0.00    +0.071 C 
ATOM     11  C   UNL     1      35.984 -22.345 -17.094  0.00  0.00    +0.315 C 
ATOM     12  C   UNL     1      33.234 -23.116 -16.909  0.00  0.00    +0.047 C 
ATOM     13  C   UNL     1      33.783 -22.670 -18.218  0.00  0.00    +0.250 C 
ATOM     14  C   UNL     1      31.794 -23.511 -16.848  0.00  0.00    +0.037 C 
ATOM     15  H   UNL     1      35.513 -22.023 -19.051  0.00  0.00    +0.159 HD
ENDBRANCH   5   8
BRANCH   2  16
ATOM     16  S   UNL     1      37.266 -23.210 -11.574  0.00  0.00    -0.166 S 
ATOM     17  H   UNL     1      36.919 -21.932 -11.887  0.00  0.00    +0.102 HD
ENDBRANCH   2  16
BRANCH   3  18
ATOM     18  C   UNL     1      37.678 -25.780 -14.739  0.00  0.00    +0.184 C 
BRANCH  18  19
ATOM     19  O   UNL     1      38.819 -26.548 -14.394  0.00  0.00    -0.271 OA
BRANCH  19  20
ATOM     20  P   UNL     1      40.284 -25.927 -14.692  0.00  0.00    +0.473 P 
ATOM     21  O   UNL     1      40.595 -24.657 -13.955  0.00  0.00    -0.227 OA
BRANCH  20  22
ATOM     22  O   UNL     1      40.335 -25.821 -16.305  0.00  0.00    -0.303 OA
ATOM     23  H   UNL     1      40.342 -24.887 -16.567  0.00  0.00    +0.222 HD
ENDBRANCH  20  22
BRANCH  20  24
ATOM     24  O   UNL     1      41.272 -27.165 -14.368  0.00  0.00    -0.303 OA
ATOM     25  H   UNL     1      42.193 -26.881 -14.480  0.00  0.00    +0.222 HD
ENDBRANCH  20  24
ENDBRANCH  19  20
ENDBRANCH  18  19
ENDBRANCH   3  18
TORSDOF 7
ENDMDL
MODEL 4
REMARK VINA RESULT:      -8.1      4.103      7.067
REMARK  Name = 46937170
REMARK  7 active torsions:
REMARK  status: ('A' for Active; 'I' for Inactive)
REMARK    1  A    between atoms: C_2  and  S_16
REMARK    2  A    between atoms: C_3  and  C_18
REMARK    3  A    between atoms: C_5  and  N_8
REMARK    4  A    between atoms: C_18  and  O_19
REMARK    5  A    between atoms: O_19  and  P_20
REMARK    6  A    between atoms: P_20  and  O_22
REMARK    7  A    between atoms: P_20  and  O_24
REMARK                            x       y       z     vdW  Elec       q    Type
REMARK                         _______ _______ _______ _____ _____    ______ ____
ROOT
ATOM      1  O   UNL     1      31.795 -23.844 -16.807  0.00  0.00    -0.336 OA
ATOM      2  C   UNL     1      31.767 -23.451 -14.456  0.00  0.00    +0.078 C 
ATOM      3  C   UNL     1      30.905 -23.547 -15.714  0.00  0.00    +0.157 C 
ATOM      4  C   UNL     1      33.103 -23.002 -15.009  0.00  0.00    +0.064 C 
ATOM      5  C   UNL     1      33.151 -23.663 -16.377  0.00  0.00    +0.200 C 
ENDROOT
BRANCH   5   8
ATOM      6  O   UNL     1      35.971 -23.275 -16.441  0.00  0.00    -0.252 OA
ATOM      7  O   UNL     1      35.689 -20.620 -20.186  0.00  0.00    -0.270 OA
ATOM      8  N   UNL     1      33.857 -22.881 -17.349  0.00  0.00    -0.219 N 
ATOM      9  N   UNL     1      35.816 -21.952 -18.309  0.00  0.00    -0.236 N 
ATOM     10  C   UNL     1      33.127 -22.251 -18.350  0.00  0.00    +0.071 C 
ATOM     11  C   UNL     1      35.261 -22.745 -17.299  0.00  0.00    +0.315 C 
ATOM     12  C   UNL     1      33.661 -21.493 -19.315  0.00  0.00    +0.047 C 
ATOM     13  C   UNL     1      35.136 -21.303 -19.329  0.00  0.00    +0.250 C 
ATOM     14  C   UNL     1      32.856 -20.826 -20.383  0.00  0.00    +0.037 C 
ATOM     15  H   UNL     1      36.794 -21.844 -18.296  0.00  0.00    +0.159 HD
ENDBRANCH   5   8
BRANCH   2  16
ATOM     16  S   UNL     1      31.922 -25.086 -13.650  0.00  0.00    -0.166 S 
ATOM     17  H   UNL     1      33.123 -25.638 -13.972  0.00  0.00    +0.102 HD
ENDBRANCH   2  16
BRANCH   3  18
ATOM     18  C   UNL     1      30.199 -22.231 -16.033  0.00  0.00    +0.184 C 
BRANCH  18  19
ATOM     19  O   UNL     1      29.405 -22.409 -17.195  0.00  0.00    -0.271 OA
BRANCH  19  20
ATOM     20  P   UNL     1      27.854 -22.833 -17.011  0.00  0.00    +0.473 P 
ATOM     21  O   UNL     1      27.467 -24.121 -17.676  0.00  0.00    -0.227 OA
BRANCH  20  22
ATOM     22  O   UNL     1      27.038 -21.527 -17.505  0.00  0.00    -0.303 OA
ATOM     23  H   UNL     1      26.123 -21.776 -17.709  0.00  0.00    +0.222 HD
ENDBRANCH  20  22
BRANCH  20  24
ATOM     24  O   UNL     1      27.662 -22.808 -15.406  0.00  0.00    -0.303 OA
ATOM     25  H   UNL     1      27.000 -22.140 -15.170  0.00  0.00    +0.222 HD
ENDBRANCH  20  24
ENDBRANCH  19  20
ENDBRANCH  18  19
ENDBRANCH   3  18
TORSDOF 7
ENDMDL
MODEL 5
REMARK VINA RESULT:      -7.6     11.065     13.566
REMARK  Name = 46937170
REMARK  7 active torsions:
REMARK  status: ('A' for Active; 'I' for Inactive)
REMARK    1  A    between atoms: C_2  and  S_16
REMARK    2  A    between atoms: C_3  and  C_18
REMARK    3  A    between atoms: C_5  and  N_8
REMARK    4  A    between atoms: C_18  and  O_19
REMARK    5  A    between atoms: O_19  and  P_20
REMARK    6  A    between atoms: P_20  and  O_22
REMARK    7  A    between atoms: P_20  and  O_24
REMARK                            x       y       z     vdW  Elec       q    Type
REMARK                         _______ _______ _______ _____ _____    ______ ____
ROOT
ATOM      1  O   UNL     1      31.989 -13.595 -22.428  0.00  0.00    -0.336 OA
ATOM      2  C   UNL     1      33.839 -14.070 -23.854  0.00  0.00    +0.078 C 
ATOM      3  C   UNL     1      32.994 -14.591 -22.693  0.00  0.00    +0.157 C 
ATOM      4  C   UNL     1      33.718 -12.569 -23.698  0.00  0.00    +0.064 C 
ATOM      5  C   UNL     1      32.316 -12.392 -23.137  0.00  0.00    +0.200 C 
ENDROOT
BRANCH   5   8
ATOM      6  O   UNL     1      32.780  -9.674 -23.850  0.00  0.00    -0.252 OA
ATOM      7  O   UNL     1      31.865  -8.223 -19.583  0.00  0.00    -0.270 OA
ATOM      8  N   UNL     1      32.210 -11.273 -22.247  0.00  0.00    -0.219 N 
ATOM      9  N   UNL     1      32.322  -8.964 -21.718  0.00  0.00    -0.236 N 
ATOM     10  C   UNL     1      31.854 -11.509 -20.925  0.00  0.00    +0.071 C 
ATOM     11  C   UNL     1      32.462  -9.957 -22.693  0.00  0.00    +0.315 C 
ATOM     12  C   UNL     1      31.722 -10.556 -19.994  0.00  0.00    +0.047 C 
ATOM     13  C   UNL     1      31.970  -9.143 -20.388  0.00  0.00    +0.250 C 
ATOM     14  C   UNL     1      31.336 -10.833 -18.576  0.00  0.00    +0.037 C 
ATOM     15  H   UNL     1      32.490  -8.038 -22.006  0.00  0.00    +0.159 HD
ENDBRANCH   5   8
BRANCH   2  16
ATOM     16  S   UNL     1      33.140 -14.607 -25.457  0.00  0.00    -0.166 S 
ATOM     17  H   UNL     1      34.027 -14.338 -26.452  0.00  0.00    +0.102 HD
ENDBRANCH   2  16
BRANCH   3  18
ATOM     18  C   UNL     1      33.814 -14.776 -21.418  0.00  0.00    +0.184 C 
BRANCH  18  19
ATOM     19  O   UNL     1      34.907 -15.635 -21.699  0.00  0.00    -0.271 OA
BRANCH  19  20
ATOM     20  P   UNL     1      34.705 -17.229 -21.507  0.00  0.00    +0.473 P 
ATOM     21  O   UNL     1      35.742 -17.900 -20.655  0.00  0.00    -0.227 OA
BRANCH  20  22
ATOM     22  O   UNL     1      34.585 -17.786 -23.020  0.00  0.00    -0.303 OA
ATOM     23  H   UNL     1      33.799 -18.350 -23.095  0.00  0.00    +0.222 HD
ENDBRANCH  20  22
BRANCH  20  24
ATOM     24  O   UNL     1      33.190 -17.334 -20.950  0.00  0.00    -0.303 OA
ATOM     25  H   UNL     1      32.748 -16.477 -21.052  0.00  0.00    +0.222 HD
ENDBRANCH  20  24
ENDBRANCH  19  20
ENDBRANCH  18  19
ENDBRANCH   3  18
TORSDOF 7
ENDMDL
MODEL 6
REMARK VINA RESULT:      -7.6      2.468      3.868
REMARK  Name = 46937170
REMARK  7 active torsions:
REMARK  status: ('A' for Active; 'I' for Inactive)
REMARK    1  A    between atoms: C_2  and  S_16
REMARK    2  A    between atoms: C_3  and  C_18
REMARK    3  A    between atoms: C_5  and  N_8
REMARK    4  A    between atoms: C_18  and  O_19
REMARK    5  A    between atoms: O_19  and  P_20
REMARK    6  A    between atoms: P_20  and  O_22
REMARK    7  A    between atoms: P_20  and  O_24
REMARK                            x       y       z     vdW  Elec       q    Type
REMARK                         _______ _______ _______ _____ _____    ______ ____
ROOT
ATOM      1  O   UNL     1      34.830 -24.408 -16.430  0.00  0.00    -0.336 OA
ATOM      2  C   UNL     1      36.307 -23.078 -15.115  0.00  0.00    +0.078 C 
ATOM      3  C   UNL     1      35.991 -24.497 -15.583  0.00  0.00    +0.157 C 
ATOM      4  C   UNL     1      34.946 -22.416 -15.138  0.00  0.00    +0.064 C 
ATOM      5  C   UNL     1      34.245 -23.105 -16.297  0.00  0.00    +0.200 C 
ENDROOT
BRANCH   5   8
ATOM      6  O   UNL     1      32.238 -22.346 -18.169  0.00  0.00    -0.252 OA
ATOM      7  O   UNL     1      28.863 -23.682 -15.346  0.00  0.00    -0.270 OA
ATOM      8  N   UNL     1      32.832 -23.237 -16.095  0.00  0.00    -0.219 N 
ATOM      9  N   UNL     1      30.564 -23.016 -16.751  0.00  0.00    -0.236 N 
ATOM     10  C   UNL     1      32.382 -23.776 -14.896  0.00  0.00    +0.071 C 
ATOM     11  C   UNL     1      31.910 -22.830 -17.084  0.00  0.00    +0.315 C 
ATOM     12  C   UNL     1      31.092 -23.952 -14.581  0.00  0.00    +0.047 C 
ATOM     13  C   UNL     1      30.061 -23.547 -15.573  0.00  0.00    +0.250 C 
ATOM     14  C   UNL     1      30.630 -24.535 -13.284  0.00  0.00    +0.037 C 
ATOM     15  H   UNL     1      29.902 -22.741 -17.426  0.00  0.00    +0.159 HD
ENDBRANCH   5   8
BRANCH   2  16
ATOM     16  S   UNL     1      37.444 -22.248 -16.283  0.00  0.00    -0.166 S 
ATOM     17  H   UNL     1      37.146 -20.922 -16.341  0.00  0.00    +0.102 HD
ENDBRANCH   2  16
BRANCH   3  18
ATOM     18  C   UNL     1      35.649 -25.427 -14.421  0.00  0.00    +0.184 C 
BRANCH  18  19
ATOM     19  O   UNL     1      36.525 -25.148 -13.341  0.00  0.00    -0.271 OA
BRANCH  19  20
ATOM     20  P   UNL     1      37.974 -25.869 -13.318  0.00  0.00    +0.473 P 
ATOM     21  O   UNL     1      38.192 -26.888 -14.398  0.00  0.00    -0.227 OA
BRANCH  20  22
ATOM     22  O   UNL     1      38.102 -26.426 -11.805  0.00  0.00    -0.303 OA
ATOM     23  H   UNL     1      38.223 -27.388 -11.825  0.00  0.00    +0.222 HD
ENDBRANCH  20  22
BRANCH  20  24
ATOM     24  O   UNL     1      38.999 -24.618 -13.343  0.00  0.00    -0.303 OA
ATOM     25  H   UNL     1      39.867 -24.917 -13.656  0.00  0.00    +0.222 HD
ENDBRANCH  20  24
ENDBRANCH  19  20
ENDBRANCH  18  19
ENDBRANCH   3  18
TORSDOF 7
ENDMDL
MODEL 7
REMARK VINA RESULT:      -7.4      3.029      6.298
REMARK  Name = 46937170
REMARK  7 active torsions:
REMARK  status: ('A' for Active; 'I' for Inactive)
REMARK    1  A    between atoms: C_2  and  S_16
REMARK    2  A    between atoms: C_3  and  C_18
REMARK    3  A    between atoms: C_5  and  N_8
REMARK    4  A    between atoms: C_18  and  O_19
REMARK    5  A    between atoms: O_19  and  P_20
REMARK    6  A    between atoms: P_20  and  O_22
REMARK    7  A    between atoms: P_20  and  O_24
REMARK                            x       y       z     vdW  Elec       q    Type
REMARK                         _______ _______ _______ _____ _____    ______ ____
ROOT
ATOM      1  O   UNL     1      34.700 -24.726 -16.140  0.00  0.00    -0.336 OA
ATOM      2  C   UNL     1      33.262 -23.296 -14.888  0.00  0.00    +0.078 C 
ATOM      3  C   UNL     1      33.920 -23.520 -16.248  0.00  0.00    +0.157 C 
ATOM      4  C   UNL     1      34.241 -23.953 -13.939  0.00  0.00    +0.064 C 
ATOM      5  C   UNL     1      34.800 -25.104 -14.761  0.00  0.00    +0.200 C 
ENDROOT
BRANCH   5   8
ATOM      6  O   UNL     1      36.354 -27.162 -15.968  0.00  0.00    -0.252 OA
ATOM      7  O   UNL     1      40.037 -26.102 -13.425  0.00  0.00    -0.270 OA
ATOM      8  N   UNL     1      36.167 -25.401 -14.447  0.00  0.00    -0.219 N 
ATOM      9  N   UNL     1      38.183 -26.623 -14.693  0.00  0.00    -0.236 N 
ATOM     10  C   UNL     1      36.805 -24.637 -13.478  0.00  0.00    +0.071 C 
ATOM     11  C   UNL     1      36.857 -26.445 -15.100  0.00  0.00    +0.315 C 
ATOM     12  C   UNL     1      38.075 -24.809 -13.092  0.00  0.00    +0.047 C 
ATOM     13  C   UNL     1      38.868 -25.891 -13.734  0.00  0.00    +0.250 C 
ATOM     14  C   UNL     1      38.743 -23.974 -12.047  0.00  0.00    +0.037 C 
ATOM     15  H   UNL     1      38.686 -27.344 -15.136  0.00  0.00    +0.159 HD
ENDBRANCH   5   8
BRANCH   2  16
ATOM     16  S   UNL     1      31.635 -24.128 -14.810  0.00  0.00    -0.166 S 
ATOM     17  H   UNL     1      31.818 -25.466 -14.640  0.00  0.00    +0.102 HD
ENDBRANCH   2  16
BRANCH   3  18
ATOM     18  C   UNL     1      34.868 -22.385 -16.627  0.00  0.00    +0.184 C 
BRANCH  18  19
ATOM     19  O   UNL     1      35.283 -22.564 -17.971  0.00  0.00    -0.271 OA
BRANCH  19  20
ATOM     20  P   UNL     1      34.190 -22.364 -19.148  0.00  0.00    +0.473 P 
ATOM     21  O   UNL     1      32.888 -21.761 -18.707  0.00  0.00    -0.227 OA
BRANCH  20  22
ATOM     22  O   UNL     1      34.081 -23.829 -19.823  0.00  0.00    -0.303 OA
ATOM     23  H   UNL     1      34.970 -24.195 -19.946  0.00  0.00    +0.222 HD
ENDBRANCH  20  22
BRANCH  20  24
ATOM     24  O   UNL     1      35.002 -21.504 -20.251  0.00  0.00    -0.303 OA
ATOM     25  H   UNL     1      35.281 -22.088 -20.974  0.00  0.00    +0.222 HD
ENDBRANCH  20  24
ENDBRANCH  19  20
ENDBRANCH  18  19
ENDBRANCH   3  18
TORSDOF 7
ENDMDL
MODEL 8
REMARK VINA RESULT:      -7.4      9.747     13.028
REMARK  Name = 46937170
REMARK  7 active torsions:
REMARK  status: ('A' for Active; 'I' for Inactive)
REMARK    1  A    between atoms: C_2  and  S_16
REMARK    2  A    between atoms: C_3  and  C_18
REMARK    3  A    between atoms: C_5  and  N_8
REMARK    4  A    between atoms: C_18  and  O_19
REMARK    5  A    between atoms: O_19  and  P_20
REMARK    6  A    between atoms: P_20  and  O_22
REMARK    7  A    between atoms: P_20  and  O_24
REMARK                            x       y       z     vdW  Elec       q    Type
REMARK                         _______ _______ _______ _____ _____    ______ ____
ROOT
ATOM      1  O   UNL     1      34.411 -13.902 -22.162  0.00  0.00    -0.336 OA
ATOM      2  C   UNL     1      32.916 -13.267 -23.906  0.00  0.00    +0.078 C 
ATOM      3  C   UNL     1      33.288 -13.045 -22.441  0.00  0.00    +0.157 C 
ATOM      4  C   UNL     1      33.364 -14.693 -24.144  0.00  0.00    +0.064 C 
ATOM      5  C   UNL     1      34.581 -14.829 -23.243  0.00  0.00    +0.200 C 
ENDROOT
BRANCH   5   8
ATOM      6  O   UNL     1      34.910 -15.469 -20.488  0.00  0.00    -0.252 OA
ATOM      7  O   UNL     1      35.175 -19.970 -21.394  0.00  0.00    -0.270 OA
ATOM      8  N   UNL     1      34.738 -16.152 -22.714  0.00  0.00    -0.219 N 
ATOM      9  N   UNL     1      35.042 -17.711 -20.953  0.00  0.00    -0.236 N 
ATOM     10  C   UNL     1      34.733 -17.224 -23.597  0.00  0.00    +0.071 C 
ATOM     11  C   UNL     1      34.897 -16.371 -21.328  0.00  0.00    +0.315 C 
ATOM     12  C   UNL     1      34.871 -18.505 -23.235  0.00  0.00    +0.047 C 
ATOM     13  C   UNL     1      35.044 -18.816 -21.791  0.00  0.00    +0.250 C 
ATOM     14  C   UNL     1      34.861 -19.644 -24.204  0.00  0.00    +0.037 C 
ATOM     15  H   UNL     1      35.152 -17.890 -19.992  0.00  0.00    +0.159 HD
ENDBRANCH   5   8
BRANCH   2  16
ATOM     16  S   UNL     1      33.834 -12.116 -24.990  0.00  0.00    -0.166 S 
ATOM     17  H   UNL     1      34.146 -10.989 -24.295  0.00  0.00    +0.102 HD
ENDBRANCH   2  16
BRANCH   3  18
ATOM     18  C   UNL     1      32.158 -13.435 -21.491  0.00  0.00    +0.184 C 
BRANCH  18  19
ATOM     19  O   UNL     1      32.136 -12.519 -20.408  0.00  0.00    -0.271 OA
BRANCH  19  20
ATOM     20  P   UNL     1      31.357 -11.114 -20.603  0.00  0.00    +0.473 P 
ATOM     21  O   UNL     1      32.170 -10.022 -21.234  0.00  0.00    -0.227 OA
BRANCH  20  22
ATOM     22  O   UNL     1      30.784 -10.785 -19.126  0.00  0.00    -0.303 OA
ATOM     23  H   UNL     1      31.520 -10.550 -18.539  0.00  0.00    +0.222 HD
ENDBRANCH  20  22
BRANCH  20  24
ATOM     24  O   UNL     1      30.035 -11.545 -21.428  0.00  0.00    -0.303 OA
ATOM     25  H   UNL     1      30.071 -11.163 -22.319  0.00  0.00    +0.222 HD
ENDBRANCH  20  24
ENDBRANCH  19  20
ENDBRANCH  18  19
ENDBRANCH   3  18
TORSDOF 7
ENDMDL
MODEL 9
REMARK VINA RESULT:      -7.3      1.702      2.169
REMARK  Name = 46937170
REMARK  7 active torsions:
REMARK  status: ('A' for Active; 'I' for Inactive)
REMARK    1  A    between atoms: C_2  and  S_16
REMARK    2  A    between atoms: C_3  and  C_18
REMARK    3  A    between atoms: C_5  and  N_8
REMARK    4  A    between atoms: C_18  and  O_19
REMARK    5  A    between atoms: O_19  and  P_20
REMARK    6  A    between atoms: P_20  and  O_22
REMARK    7  A    between atoms: P_20  and  O_24
REMARK                            x       y       z     vdW  Elec       q    Type
REMARK                         _______ _______ _______ _____ _____    ______ ____
ROOT
ATOM      1  O   UNL     1      35.887 -23.117 -14.138  0.00  0.00    -0.336 OA
ATOM      2  C   UNL     1      36.175 -24.877 -12.556  0.00  0.00    +0.078 C 
ATOM      3  C   UNL     1      36.819 -24.134 -13.725  0.00  0.00    +0.157 C 
ATOM      4  C   UNL     1      34.697 -24.716 -12.842  0.00  0.00    +0.064 C 
ATOM      5  C   UNL     1      34.619 -23.353 -13.509  0.00  0.00    +0.200 C 
ENDROOT
BRANCH   5   8
ATOM      6  O   UNL     1      31.828 -23.308 -12.949  0.00  0.00    -0.252 OA
ATOM      7  O   UNL     1      30.766 -23.042 -17.416  0.00  0.00    -0.270 OA
ATOM      8  N   UNL     1      33.579 -23.271 -14.492  0.00  0.00    -0.219 N 
ATOM      9  N   UNL     1      31.312 -23.176 -15.180  0.00  0.00    -0.236 N 
ATOM     10  C   UNL     1      33.938 -23.209 -15.833  0.00  0.00    +0.071 C 
ATOM     11  C   UNL     1      32.218 -23.257 -14.118  0.00  0.00    +0.315 C 
ATOM     12  C   UNL     1      33.068 -23.132 -16.848  0.00  0.00    +0.047 C 
ATOM     13  C   UNL     1      31.615 -23.112 -16.532  0.00  0.00    +0.250 C 
ATOM     14  C   UNL     1      33.477 -23.065 -18.284  0.00  0.00    +0.037 C 
ATOM     15  H   UNL     1      30.357 -23.163 -14.944  0.00  0.00    +0.159 HD
ENDBRANCH   5   8
BRANCH   2  16
ATOM     16  S   UNL     1      36.610 -24.085 -10.966  0.00  0.00    -0.166 S 
ATOM     17  H   UNL     1      35.521 -23.440 -10.467  0.00  0.00    +0.102 HD
ENDBRANCH   2  16
BRANCH   3  18
ATOM     18  C   UNL     1      37.072 -25.047 -14.922  0.00  0.00    +0.184 C 
BRANCH  18  19
ATOM     19  O   UNL     1      38.196 -25.865 -14.643  0.00  0.00    -0.271 OA
BRANCH  19  20
ATOM     20  P   UNL     1      39.673 -25.267 -14.924  0.00  0.00    +0.473 P 
ATOM     21  O   UNL     1      40.633 -26.226 -15.566  0.00  0.00    -0.227 OA
BRANCH  20  22
ATOM     22  O   UNL     1      40.133 -24.688 -13.485  0.00  0.00    -0.303 OA
ATOM     23  H   UNL     1      40.441 -25.419 -12.927  0.00  0.00    +0.222 HD
ENDBRANCH  20  22
BRANCH  20  24
ATOM     24  O   UNL     1      39.365 -23.932 -15.782  0.00  0.00    -0.303 OA
ATOM     25  H   UNL     1      39.398 -24.141 -16.729  0.00  0.00    +0.222 HD
ENDBRANCH  20  24
ENDBRANCH  19  20
ENDBRANCH  18  19
ENDBRANCH   3  18
TORSDOF 7
ENDMDL
