MODEL 1
REMARK VINA RESULT:      -8.9      0.000      0.000
REMARK  Name = 5289332
REMARK  14 active torsions:
REMARK  status: ('A' for Active; 'I' for Inactive)
REMARK    1  A    between atoms: C_1  and  C_4
REMARK    2  A    between atoms: C_1  and  N_18
REMARK    3  A    between atoms: C_1  and  C_29
REMARK    4  A    between atoms: N_3  and  C_6
REMARK    5  A    between atoms: C_6  and  C_7
REMARK    6  A    between atoms: C_6  and  C_11
REMARK    7  A    between atoms: C_7  and  C_8
REMARK    8  A    between atoms: C_11  and  O_12
REMARK    9  A    between atoms: C_11  and  C_14
REMARK   10  A    between atoms: C_14  and  O_15
REMARK   11  A    between atoms: C_19  and  O_21
REMARK   12  A    between atoms: O_21  and  C_22
REMARK   13  A    between atoms: C_22  and  C_23
REMARK   14  A    between atoms: C_29  and  C_30
REMARK                            x       y       z     vdW  Elec       q    Type
REMARK                         _______ _______ _______ _____ _____    ______ ____
ROOT
ATOM      1  C   UNL     1      33.493 -23.399 -15.319  0.00  0.00    +0.151 C 
ENDROOT
BRANCH   1   4
ATOM      2  O   UNL     1      35.600 -22.309 -14.817  0.00  0.00    -0.273 OA
ATOM      3  N   UNL     1      35.430 -24.607 -14.536  0.00  0.00    -0.302 N 
ATOM      4  C   UNL     1      34.954 -23.353 -14.885  0.00  0.00    +0.240 C 
ATOM      5  H   UNL     1      34.827 -25.379 -14.630  0.00  0.00    +0.150 HD
BRANCH   3   6
ATOM      6  C   UNL     1      36.773 -24.835 -14.040  0.00  0.00    +0.101 C 
BRANCH   6   7
ATOM      7  C   UNL     1      36.680 -25.388 -12.605  0.00  0.00    +0.022 C 
BRANCH   7   8
ATOM      8  C   UNL     1      36.932 -24.373 -11.473  0.00  0.00    +0.002 C 
ATOM      9  C   UNL     1      37.491 -23.047 -11.991  0.00  0.00    +0.000 C 
ATOM     10  C   UNL     1      35.629 -24.119 -10.708  0.00  0.00    +0.000 C 
ENDBRANCH   7   8
ENDBRANCH   6   7
BRANCH   6  11
ATOM     11  C   UNL     1      37.581 -25.728 -15.003  0.00  0.00    +0.158 C 
BRANCH  11  12
ATOM     12  O   UNL     1      36.697 -26.453 -15.859  0.00  0.00    -0.380 OA
ATOM     13  H   UNL     1      36.003 -25.858 -16.185  0.00  0.00    +0.211 HD
ENDBRANCH  11  12
BRANCH  11  14
ATOM     14  C   UNL     1      38.500 -26.714 -14.282  0.00  0.00    +0.173 C 
BRANCH  14  15
ATOM     15  O   UNL     1      39.803 -26.628 -14.850  0.00  0.00    -0.348 OA
ATOM     16  C   UNL     1      40.349 -25.325 -14.701  0.00  0.00    +0.174 C 
ENDBRANCH  14  15
ENDBRANCH  11  14
ENDBRANCH   6  11
ENDBRANCH   3   6
ENDBRANCH   1   4
BRANCH   1  18
ATOM     17  O   UNL     1      31.233 -22.581 -16.948  0.00  0.00    -0.226 OA
ATOM     18  N   UNL     1      33.465 -23.178 -16.741  0.00  0.00    -0.264 N 
ATOM     19  C   UNL     1      32.339 -22.788 -17.438  0.00  0.00    +0.402 C 
ATOM     20  H   UNL     1      34.299 -23.313 -17.247  0.00  0.00    +0.153 HD
BRANCH  19  21
ATOM     21  O   UNL     1      32.634 -22.662 -18.766  0.00  0.00    -0.430 OA
BRANCH  21  22
ATOM     22  C   UNL     1      34.023 -22.536 -19.088  0.00  0.00    +0.237 C 
BRANCH  22  23
ATOM     23  C   UNL     1      34.237 -21.256 -19.841  0.00  0.00    +0.021 C 
ATOM     24  C   UNL     1      35.532 -20.826 -20.131  0.00  0.00    -0.001 C 
ATOM     25  C   UNL     1      33.142 -20.496 -20.251  0.00  0.00    -0.001 C 
ATOM     26  C   UNL     1      35.732 -19.636 -20.831  0.00  0.00    -0.000 C 
ATOM     27  C   UNL     1      33.341 -19.305 -20.951  0.00  0.00    -0.000 C 
ATOM     28  C   UNL     1      34.637 -18.876 -21.240  0.00  0.00    -0.000 C 
ENDBRANCH  22  23
ENDBRANCH  21  22
ENDBRANCH  19  21
ENDBRANCH   1  18
BRANCH   1  29
ATOM     29  C   UNL     1      32.866 -24.743 -14.927  0.00  0.00    +0.029 C 
BRANCH  29  30
ATOM     30  C   UNL     1      31.697 -24.645 -13.925  0.00  0.00    +0.002 C 
ATOM     31  C   UNL     1      31.408 -23.203 -13.507  0.00  0.00    +0.000 C 
ATOM     32  C   UNL     1      30.439 -25.267 -14.538  0.00  0.00    +0.000 C 
ENDBRANCH  29  30
ENDBRANCH   1  29
TORSDOF 14
ENDMDL
MODEL 2
REMARK VINA RESULT:      -8.6      1.616      2.956
REMARK  Name = 5289332
REMARK  14 active torsions:
REMARK  status: ('A' for Active; 'I' for Inactive)
REMARK    1  A    between atoms: C_1  and  C_4
REMARK    2  A    between atoms: C_1  and  N_18
REMARK    3  A    between atoms: C_1  and  C_29
REMARK    4  A    between atoms: N_3  and  C_6
REMARK    5  A    between atoms: C_6  and  C_7
REMARK    6  A    between atoms: C_6  and  C_11
REMARK    7  A    between atoms: C_7  and  C_8
REMARK    8  A    between atoms: C_11  and  O_12
REMARK    9  A    between atoms: C_11  and  C_14
REMARK   10  A    between atoms: C_14  and  O_15
REMARK   11  A    between atoms: C_19  and  O_21
REMARK   12  A    between atoms: O_21  and  C_22
REMARK   13  A    between atoms: C_22  and  C_23
REMARK   14  A    between atoms: C_29  and  C_30
REMARK                            x       y       z     vdW  Elec       q    Type
REMARK                         _______ _______ _______ _____ _____    ______ ____
ROOT
ATOM      1  C   UNL     1      33.331 -23.173 -15.494  0.00  0.00    +0.151 C 
ENDROOT
BRANCH   1   4
ATOM      2  O   UNL     1      33.859 -24.709 -13.694  0.00  0.00    -0.273 OA
ATOM      3  N   UNL     1      35.594 -23.615 -14.783  0.00  0.00    -0.302 N 
ATOM      4  C   UNL     1      34.262 -23.913 -14.540  0.00  0.00    +0.240 C 
ATOM      5  H   UNL     1      35.807 -22.960 -15.486  0.00  0.00    +0.150 HD
BRANCH   3   6
ATOM      6  C   UNL     1      36.687 -24.223 -14.051  0.00  0.00    +0.101 C 
BRANCH   6   7
ATOM      7  C   UNL     1      37.937 -24.234 -14.952  0.00  0.00    +0.022 C 
BRANCH   7   8
ATOM      8  C   UNL     1      38.741 -25.549 -14.973  0.00  0.00    +0.002 C 
ATOM      9  C   UNL     1      39.968 -25.497 -14.062  0.00  0.00    +0.000 C 
ATOM     10  C   UNL     1      37.837 -26.714 -14.556  0.00  0.00    +0.000 C 
ENDBRANCH   7   8
ENDBRANCH   6   7
BRANCH   6  11
ATOM     11  C   UNL     1      36.905 -23.528 -12.692  0.00  0.00    +0.158 C 
BRANCH  11  12
ATOM     12  O   UNL     1      37.873 -22.486 -12.821  0.00  0.00    -0.380 OA
ATOM     13  H   UNL     1      38.665 -22.716 -12.307  0.00  0.00    +0.211 HD
ENDBRANCH  11  12
BRANCH  11  14
ATOM     14  C   UNL     1      37.347 -24.488 -11.587  0.00  0.00    +0.173 C 
BRANCH  14  15
ATOM     15  O   UNL     1      36.231 -25.277 -11.189  0.00  0.00    -0.348 OA
ATOM     16  C   UNL     1      35.341 -24.537 -10.365  0.00  0.00    +0.174 C 
ENDBRANCH  14  15
ENDBRANCH  11  14
ENDBRANCH   6  11
ENDBRANCH   3   6
ENDBRANCH   1   4
BRANCH   1  18
ATOM     17  O   UNL     1      32.150 -22.449 -18.047  0.00  0.00    -0.226 OA
ATOM     18  N   UNL     1      33.960 -23.172 -16.788  0.00  0.00    -0.264 N 
ATOM     19  C   UNL     1      33.320 -22.811 -17.957  0.00  0.00    +0.402 C 
ATOM     20  H   UNL     1      34.905 -23.446 -16.843  0.00  0.00    +0.153 HD
BRANCH  19  21
ATOM     21  O   UNL     1      34.182 -22.914 -19.011  0.00  0.00    -0.430 OA
BRANCH  21  22
ATOM     22  C   UNL     1      35.364 -22.110 -18.933  0.00  0.00    +0.237 C 
BRANCH  22  23
ATOM     23  C   UNL     1      35.213 -20.927 -19.844  0.00  0.00    +0.021 C 
ATOM     24  C   UNL     1      33.947 -20.547 -20.288  0.00  0.00    -0.001 C 
ATOM     25  C   UNL     1      36.338 -20.208 -20.245  0.00  0.00    -0.001 C 
ATOM     26  C   UNL     1      33.807 -19.446 -21.135  0.00  0.00    -0.000 C 
ATOM     27  C   UNL     1      36.199 -19.108 -21.092  0.00  0.00    -0.000 C 
ATOM     28  C   UNL     1      34.932 -18.728 -21.537  0.00  0.00    -0.000 C 
ENDBRANCH  22  23
ENDBRANCH  21  22
ENDBRANCH  19  21
ENDBRANCH   1  18
BRANCH   1  29
ATOM     29  C   UNL     1      31.953 -23.847 -15.518  0.00  0.00    +0.029 C 
BRANCH  29  30
ATOM     30  C   UNL     1      30.872 -23.142 -14.673  0.00  0.00    +0.002 C 
ATOM     31  C   UNL     1      29.620 -22.811 -15.486  0.00  0.00    +0.000 C 
ATOM     32  C   UNL     1      30.494 -24.024 -13.479  0.00  0.00    +0.000 C 
ENDBRANCH  29  30
ENDBRANCH   1  29
TORSDOF 14
ENDMDL
MODEL 3
REMARK VINA RESULT:      -8.2      9.379     14.457
REMARK  Name = 5289332
REMARK  14 active torsions:
REMARK  status: ('A' for Active; 'I' for Inactive)
REMARK    1  A    between atoms: C_1  and  C_4
REMARK    2  A    between atoms: C_1  and  N_18
REMARK    3  A    between atoms: C_1  and  C_29
REMARK    4  A    between atoms: N_3  and  C_6
REMARK    5  A    between atoms: C_6  and  C_7
REMARK    6  A    between atoms: C_6  and  C_11
REMARK    7  A    between atoms: C_7  and  C_8
REMARK    8  A    between atoms: C_11  and  O_12
REMARK    9  A    between atoms: C_11  and  C_14
REMARK   10  A    between atoms: C_14  and  O_15
REMARK   11  A    between atoms: C_19  and  O_21
REMARK   12  A    between atoms: O_21  and  C_22
REMARK   13  A    between atoms: C_22  and  C_23
REMARK   14  A    between atoms: C_29  and  C_30
REMARK                            x       y       z     vdW  Elec       q    Type
REMARK                         _______ _______ _______ _____ _____    ______ ____
ROOT
ATOM      1  C   UNL     1      31.412 -11.937 -21.666  0.00  0.00    +0.151 C 
ENDROOT
BRANCH   1   4
ATOM      2  O   UNL     1      31.131  -9.911 -22.967  0.00  0.00    -0.273 OA
ATOM      3  N   UNL     1      33.000 -11.236 -23.342  0.00  0.00    -0.302 N 
ATOM      4  C   UNL     1      31.799 -10.916 -22.730  0.00  0.00    +0.240 C 
ATOM      5  H   UNL     1      33.454 -12.068 -23.077  0.00  0.00    +0.150 HD
BRANCH   3   6
ATOM      6  C   UNL     1      33.620 -10.403 -24.355  0.00  0.00    +0.101 C 
BRANCH   6   7
ATOM      7  C   UNL     1      34.348  -9.239 -23.656  0.00  0.00    +0.022 C 
BRANCH   7   8
ATOM      8  C   UNL     1      33.700  -7.850 -23.808  0.00  0.00    +0.002 C 
ATOM      9  C   UNL     1      33.343  -7.221 -22.461  0.00  0.00    +0.000 C 
ATOM     10  C   UNL     1      34.643  -6.921 -24.578  0.00  0.00    +0.000 C 
ENDBRANCH   7   8
ENDBRANCH   6   7
BRANCH   6  11
ATOM     11  C   UNL     1      34.522 -11.235 -25.288  0.00  0.00    +0.158 C 
BRANCH  11  12
ATOM     12  O   UNL     1      35.310 -10.372 -26.108  0.00  0.00    -0.380 OA
ATOM     13  H   UNL     1      35.876 -10.906 -26.688  0.00  0.00    +0.211 HD
ENDBRANCH  11  12
BRANCH  11  14
ATOM     14  C   UNL     1      33.741 -12.198 -26.181  0.00  0.00    +0.173 C 
BRANCH  14  15
ATOM     15  O   UNL     1      33.350 -13.329 -25.409  0.00  0.00    -0.348 OA
ATOM     16  C   UNL     1      32.945 -14.409 -26.239  0.00  0.00    +0.174 C 
ENDBRANCH  14  15
ENDBRANCH  11  14
ENDBRANCH   6  11
ENDBRANCH   3   6
ENDBRANCH   1   4
BRANCH   1  18
ATOM     17  O   UNL     1      31.805 -14.814 -21.725  0.00  0.00    -0.226 OA
ATOM     18  N   UNL     1      32.603 -12.672 -21.330  0.00  0.00    -0.264 N 
ATOM     19  C   UNL     1      32.702 -14.048 -21.386  0.00  0.00    +0.402 C 
ATOM     20  H   UNL     1      33.396 -12.162 -21.042  0.00  0.00    +0.153 HD
BRANCH  19  21
ATOM     21  O   UNL     1      33.955 -14.441 -21.008  0.00  0.00    -0.430 OA
BRANCH  21  22
ATOM     22  C   UNL     1      34.851 -14.781 -22.071  0.00  0.00    +0.237 C 
BRANCH  22  23
ATOM     23  C   UNL     1      34.889 -16.273 -22.223  0.00  0.00    +0.021 C 
ATOM     24  C   UNL     1      34.898 -17.088 -21.091  0.00  0.00    -0.001 C 
ATOM     25  C   UNL     1      34.914 -16.844 -23.495  0.00  0.00    -0.001 C 
ATOM     26  C   UNL     1      34.933 -18.476 -21.232  0.00  0.00    -0.000 C 
ATOM     27  C   UNL     1      34.949 -18.232 -23.636  0.00  0.00    -0.000 C 
ATOM     28  C   UNL     1      34.959 -19.047 -22.504  0.00  0.00    -0.000 C 
ENDBRANCH  22  23
ENDBRANCH  21  22
ENDBRANCH  19  21
ENDBRANCH   1  18
BRANCH   1  29
ATOM     29  C   UNL     1      30.802 -11.230 -20.449  0.00  0.00    +0.029 C 
BRANCH  29  30
ATOM     30  C   UNL     1      31.830 -10.632 -19.466  0.00  0.00    +0.002 C 
ATOM     31  C   UNL     1      31.997  -9.123 -19.643  0.00  0.00    +0.000 C 
ATOM     32  C   UNL     1      31.405 -10.939 -18.027  0.00  0.00    +0.000 C 
ENDBRANCH  29  30
ENDBRANCH   1  29
TORSDOF 14
ENDMDL
MODEL 4
REMARK VINA RESULT:      -8.1      1.521      5.214
REMARK  Name = 5289332
REMARK  14 active torsions:
REMARK  status: ('A' for Active; 'I' for Inactive)
REMARK    1  A    between atoms: C_1  and  C_4
REMARK    2  A    between atoms: C_1  and  N_18
REMARK    3  A    between atoms: C_1  and  C_29
REMARK    4  A    between atoms: N_3  and  C_6
REMARK    5  A    between atoms: C_6  and  C_7
REMARK    6  A    between atoms: C_6  and  C_11
REMARK    7  A    between atoms: C_7  and  C_8
REMARK    8  A    between atoms: C_11  and  O_12
REMARK    9  A    between atoms: C_11  and  C_14
REMARK   10  A    between atoms: C_14  and  O_15
REMARK   11  A    between atoms: C_19  and  O_21
REMARK   12  A    between atoms: O_21  and  C_22
REMARK   13  A    between atoms: C_22  and  C_23
REMARK   14  A    between atoms: C_29  and  C_30
REMARK                            x       y       z     vdW  Elec       q    Type
REMARK                         _______ _______ _______ _____ _____    ______ ____
ROOT
ATOM      1  C   UNL     1      35.929 -22.384 -17.890  0.00  0.00    +0.151 C 
ENDROOT
BRANCH   1   4
ATOM      2  O   UNL     1      37.546 -22.010 -16.123  0.00  0.00    -0.273 OA
ATOM      3  N   UNL     1      36.137 -23.850 -15.985  0.00  0.00    -0.302 N 
ATOM      4  C   UNL     1      36.650 -22.712 -16.587  0.00  0.00    +0.240 C 
ATOM      5  H   UNL     1      35.418 -24.340 -16.445  0.00  0.00    +0.150 HD
BRANCH   3   6
ATOM      6  C   UNL     1      36.611 -24.353 -14.710  0.00  0.00    +0.101 C 
BRANCH   6   7
ATOM      7  C   UNL     1      35.473 -24.227 -13.679  0.00  0.00    +0.022 C 
BRANCH   7   8
ATOM      8  C   UNL     1      35.849 -23.565 -12.338  0.00  0.00    +0.002 C 
ATOM      9  C   UNL     1      35.765 -24.538 -11.163  0.00  0.00    +0.000 C 
ATOM     10  C   UNL     1      37.264 -22.984 -12.428  0.00  0.00    +0.000 C 
ENDBRANCH   7   8
ENDBRANCH   6   7
BRANCH   6  11
ATOM     11  C   UNL     1      37.175 -25.781 -14.847  0.00  0.00    +0.158 C 
BRANCH  11  12
ATOM     12  O   UNL     1      36.120 -26.739 -14.738  0.00  0.00    -0.380 OA
ATOM     13  H   UNL     1      35.453 -26.563 -15.421  0.00  0.00    +0.211 HD
ENDBRANCH  11  12
BRANCH  11  14
ATOM     14  C   UNL     1      38.253 -26.106 -13.813  0.00  0.00    +0.173 C 
BRANCH  14  15
ATOM     15  O   UNL     1      39.413 -26.577 -14.490  0.00  0.00    -0.348 OA
ATOM     16  C   UNL     1      40.223 -25.501 -14.941  0.00  0.00    +0.174 C 
ENDBRANCH  14  15
ENDBRANCH  11  14
ENDBRANCH   6  11
ENDBRANCH   3   6
ENDBRANCH   1   4
BRANCH   1  18
ATOM     17  O   UNL     1      33.822 -23.796 -19.304  0.00  0.00    -0.226 OA
ATOM     18  N   UNL     1      34.518 -22.378 -17.605  0.00  0.00    -0.264 N 
ATOM     19  C   UNL     1      33.581 -23.084 -18.334  0.00  0.00    +0.402 C 
ATOM     20  H   UNL     1      34.201 -21.839 -16.843  0.00  0.00    +0.153 HD
BRANCH  19  21
ATOM     21  O   UNL     1      32.335 -22.875 -17.817  0.00  0.00    -0.430 OA
BRANCH  21  22
ATOM     22  C   UNL     1      32.266 -22.715 -16.396  0.00  0.00    +0.237 C 
BRANCH  22  23
ATOM     23  C   UNL     1      31.102 -23.502 -15.869  0.00  0.00    +0.021 C 
ATOM     24  C   UNL     1      29.818 -23.258 -16.356  0.00  0.00    -0.001 C 
ATOM     25  C   UNL     1      31.305 -24.478 -14.894  0.00  0.00    -0.001 C 
ATOM     26  C   UNL     1      28.736 -23.991 -15.867  0.00  0.00    -0.000 C 
ATOM     27  C   UNL     1      30.223 -25.211 -14.404  0.00  0.00    -0.000 C 
ATOM     28  C   UNL     1      28.939 -24.966 -14.891  0.00  0.00    -0.000 C 
ENDBRANCH  22  23
ENDBRANCH  21  22
ENDBRANCH  19  21
ENDBRANCH   1  18
BRANCH   1  29
ATOM     29  C   UNL     1      36.416 -21.037 -18.440  0.00  0.00    +0.029 C 
BRANCH  29  30
ATOM     30  C   UNL     1      36.207 -20.844 -19.956  0.00  0.00    +0.002 C 
ATOM     31  C   UNL     1      34.773 -20.442 -20.301  0.00  0.00    +0.000 C 
ATOM     32  C   UNL     1      37.180 -19.784 -20.480  0.00  0.00    +0.000 C 
ENDBRANCH  29  30
ENDBRANCH   1  29
TORSDOF 14
ENDMDL
MODEL 5
REMARK VINA RESULT:      -8.1      6.974     13.117
REMARK  Name = 5289332
REMARK  14 active torsions:
REMARK  status: ('A' for Active; 'I' for Inactive)
REMARK    1  A    between atoms: C_1  and  C_4
REMARK    2  A    between atoms: C_1  and  N_18
REMARK    3  A    between atoms: C_1  and  C_29
REMARK    4  A    between atoms: N_3  and  C_6
REMARK    5  A    between atoms: C_6  and  C_7
REMARK    6  A    between atoms: C_6  and  C_11
REMARK    7  A    between atoms: C_7  and  C_8
REMARK    8  A    between atoms: C_11  and  O_12
REMARK    9  A    between atoms: C_11  and  C_14
REMARK   10  A    between atoms: C_14  and  O_15
REMARK   11  A    between atoms: C_19  and  O_21
REMARK   12  A    between atoms: O_21  and  C_22
REMARK   13  A    between atoms: C_22  and  C_23
REMARK   14  A    between atoms: C_29  and  C_30
REMARK                            x       y       z     vdW  Elec       q    Type
REMARK                         _______ _______ _______ _____ _____    ______ ____
ROOT
ATOM      1  C   UNL     1      34.911 -15.562 -22.739  0.00  0.00    +0.151 C 
ENDROOT
BRANCH   1   4
ATOM      2  O   UNL     1      33.884 -14.115 -21.088  0.00  0.00    -0.273 OA
ATOM      3  N   UNL     1      34.198 -13.313 -23.244  0.00  0.00    -0.302 N 
ATOM      4  C   UNL     1      34.260 -14.274 -22.248  0.00  0.00    +0.240 C 
ATOM      5  H   UNL     1      34.527 -13.547 -24.142  0.00  0.00    +0.150 HD
BRANCH   3   6
ATOM      6  C   UNL     1      33.671 -11.980 -23.027  0.00  0.00    +0.101 C 
BRANCH   6   7
ATOM      7  C   UNL     1      33.743 -11.201 -24.354  0.00  0.00    +0.022 C 
BRANCH   7   8
ATOM      8  C   UNL     1      34.969 -10.284 -24.532  0.00  0.00    +0.002 C 
ATOM      9  C   UNL     1      35.504 -10.296 -25.964  0.00  0.00    +0.000 C 
ATOM     10  C   UNL     1      34.606  -8.852 -24.128  0.00  0.00    +0.000 C 
ENDBRANCH   7   8
ENDBRANCH   6   7
BRANCH   6  11
ATOM     11  C   UNL     1      32.260 -12.031 -22.408  0.00  0.00    +0.158 C 
BRANCH  11  12
ATOM     12  O   UNL     1      31.484 -13.052 -23.036  0.00  0.00    -0.380 OA
ATOM     13  H   UNL     1      31.622 -13.018 -23.996  0.00  0.00    +0.211 HD
ENDBRANCH  11  12
BRANCH  11  14
ATOM     14  C   UNL     1      31.510 -10.703 -22.506  0.00  0.00    +0.173 C 
BRANCH  14  15
ATOM     15  O   UNL     1      31.975  -9.835 -21.477  0.00  0.00    -0.348 OA
ATOM     16  C   UNL     1      31.560 -10.282 -20.194  0.00  0.00    +0.174 C 
ENDBRANCH  14  15
ENDBRANCH  11  14
ENDBRANCH   6  11
ENDBRANCH   3   6
ENDBRANCH   1   4
BRANCH   1  18
ATOM     17  O   UNL     1      35.537 -17.259 -20.467  0.00  0.00    -0.226 OA
ATOM     18  N   UNL     1      34.136 -16.657 -22.216  0.00  0.00    -0.264 N 
ATOM     19  C   UNL     1      34.513 -17.415 -21.124  0.00  0.00    +0.402 C 
ATOM     20  H   UNL     1      33.287 -16.879 -22.663  0.00  0.00    +0.153 HD
BRANCH  19  21
ATOM     21  O   UNL     1      33.571 -18.372 -20.876  0.00  0.00    -0.430 OA
BRANCH  21  22
ATOM     22  C   UNL     1      33.820 -19.659 -21.452  0.00  0.00    +0.237 C 
BRANCH  22  23
ATOM     23  C   UNL     1      34.189 -20.621 -20.362  0.00  0.00    +0.021 C 
ATOM     24  C   UNL     1      35.528 -20.805 -20.018  0.00  0.00    -0.001 C 
ATOM     25  C   UNL     1      33.193 -21.331 -19.692  0.00  0.00    -0.001 C 
ATOM     26  C   UNL     1      35.872 -21.700 -19.004  0.00  0.00    -0.000 C 
ATOM     27  C   UNL     1      33.536 -22.226 -18.678  0.00  0.00    -0.000 C 
ATOM     28  C   UNL     1      34.876 -22.410 -18.335  0.00  0.00    -0.000 C 
ENDBRANCH  22  23
ENDBRANCH  21  22
ENDBRANCH  19  21
ENDBRANCH   1  18
BRANCH   1  29
ATOM     29  C   UNL     1      34.972 -15.574 -24.272  0.00  0.00    +0.029 C 
BRANCH  29  30
ATOM     30  C   UNL     1      33.838 -16.364 -24.959  0.00  0.00    +0.002 C 
ATOM     31  C   UNL     1      33.211 -15.592 -26.119  0.00  0.00    +0.000 C 
ATOM     32  C   UNL     1      34.377 -17.706 -25.463  0.00  0.00    +0.000 C 
ENDBRANCH  29  30
ENDBRANCH   1  29
TORSDOF 14
ENDMDL
MODEL 6
REMARK VINA RESULT:      -8.1      7.850     13.489
REMARK  Name = 5289332
REMARK  14 active torsions:
REMARK  status: ('A' for Active; 'I' for Inactive)
REMARK    1  A    between atoms: C_1  and  C_4
REMARK    2  A    between atoms: C_1  and  N_18
REMARK    3  A    between atoms: C_1  and  C_29
REMARK    4  A    between atoms: N_3  and  C_6
REMARK    5  A    between atoms: C_6  and  C_7
REMARK    6  A    between atoms: C_6  and  C_11
REMARK    7  A    between atoms: C_7  and  C_8
REMARK    8  A    between atoms: C_11  and  O_12
REMARK    9  A    between atoms: C_11  and  C_14
REMARK   10  A    between atoms: C_14  and  O_15
REMARK   11  A    between atoms: C_19  and  O_21
REMARK   12  A    between atoms: O_21  and  C_22
REMARK   13  A    between atoms: C_22  and  C_23
REMARK   14  A    between atoms: C_29  and  C_30
REMARK                            x       y       z     vdW  Elec       q    Type
REMARK                         _______ _______ _______ _____ _____    ______ ____
ROOT
ATOM      1  C   UNL     1      33.856 -14.212 -22.606  0.00  0.00    +0.151 C 
ENDROOT
BRANCH   1   4
ATOM      2  O   UNL     1      31.618 -13.747 -21.799  0.00  0.00    -0.273 OA
ATOM      3  N   UNL     1      32.818 -12.044 -22.823  0.00  0.00    -0.302 N 
ATOM      4  C   UNL     1      32.628 -13.340 -22.369  0.00  0.00    +0.240 C 
ATOM      5  H   UNL     1      33.668 -11.824 -23.268  0.00  0.00    +0.150 HD
BRANCH   3   6
ATOM      6  C   UNL     1      31.825 -10.999 -22.675  0.00  0.00    +0.101 C 
BRANCH   6   7
ATOM      7  C   UNL     1      31.207 -11.105 -21.267  0.00  0.00    +0.022 C 
BRANCH   7   8
ATOM      8  C   UNL     1      32.019 -10.465 -20.124  0.00  0.00    +0.002 C 
ATOM      9  C   UNL     1      31.963  -8.938 -20.152  0.00  0.00    +0.000 C 
ATOM     10  C   UNL     1      31.504 -10.976 -18.775  0.00  0.00    +0.000 C 
ENDBRANCH   7   8
ENDBRANCH   6   7
BRANCH   6  11
ATOM     11  C   UNL     1      32.419  -9.613 -22.993  0.00  0.00    +0.158 C 
BRANCH  11  12
ATOM     12  O   UNL     1      31.425  -8.775 -23.584  0.00  0.00    -0.380 OA
ATOM     13  H   UNL     1      30.613  -9.288 -23.726  0.00  0.00    +0.211 HD
ENDBRANCH  11  12
BRANCH  11  14
ATOM     14  C   UNL     1      33.634  -9.676 -23.919  0.00  0.00    +0.173 C 
BRANCH  14  15
ATOM     15  O   UNL     1      34.700  -8.937 -23.332  0.00  0.00    -0.348 OA
ATOM     16  C   UNL     1      34.673  -7.576 -23.737  0.00  0.00    +0.174 C 
ENDBRANCH  14  15
ENDBRANCH  11  14
ENDBRANCH   6  11
ENDBRANCH   3   6
ENDBRANCH   1   4
BRANCH   1  18
ATOM     17  O   UNL     1      35.011 -15.634 -20.353  0.00  0.00    -0.226 OA
ATOM     18  N   UNL     1      33.534 -15.535 -22.139  0.00  0.00    -0.264 N 
ATOM     19  C   UNL     1      34.137 -16.137 -21.053  0.00  0.00    +0.402 C 
ATOM     20  H   UNL     1      32.842 -16.041 -22.624  0.00  0.00    +0.153 HD
BRANCH  19  21
ATOM     21  O   UNL     1      33.616 -17.386 -20.864  0.00  0.00    -0.430 OA
BRANCH  21  22
ATOM     22  C   UNL     1      34.191 -18.429 -21.658  0.00  0.00    +0.237 C 
BRANCH  22  23
ATOM     23  C   UNL     1      34.333 -19.664 -20.817  0.00  0.00    +0.021 C 
ATOM     24  C   UNL     1      35.600 -20.174 -20.537  0.00  0.00    -0.001 C 
ATOM     25  C   UNL     1      33.198 -20.299 -20.313  0.00  0.00    -0.001 C 
ATOM     26  C   UNL     1      35.733 -21.321 -19.754  0.00  0.00    -0.000 C 
ATOM     27  C   UNL     1      33.330 -21.447 -19.531  0.00  0.00    -0.000 C 
ATOM     28  C   UNL     1      34.598 -21.958 -19.252  0.00  0.00    -0.000 C 
ENDBRANCH  22  23
ENDBRANCH  21  22
ENDBRANCH  19  21
ENDBRANCH   1  18
BRANCH   1  29
ATOM     29  C   UNL     1      34.238 -14.197 -24.092  0.00  0.00    +0.029 C 
BRANCH  29  30
ATOM     30  C   UNL     1      33.502 -15.238 -24.960  0.00  0.00    +0.002 C 
ATOM     31  C   UNL     1      32.961 -14.638 -26.258  0.00  0.00    +0.000 C 
ATOM     32  C   UNL     1      34.446 -16.401 -25.283  0.00  0.00    +0.000 C 
ENDBRANCH  29  30
ENDBRANCH   1  29
TORSDOF 14
ENDMDL
MODEL 7
REMARK VINA RESULT:      -8.1      7.907     13.986
REMARK  Name = 5289332
REMARK  14 active torsions:
REMARK  status: ('A' for Active; 'I' for Inactive)
REMARK    1  A    between atoms: C_1  and  C_4
REMARK    2  A    between atoms: C_1  and  N_18
REMARK    3  A    between atoms: C_1  and  C_29
REMARK    4  A    between atoms: N_3  and  C_6
REMARK    5  A    between atoms: C_6  and  C_7
REMARK    6  A    between atoms: C_6  and  C_11
REMARK    7  A    between atoms: C_7  and  C_8
REMARK    8  A    between atoms: C_11  and  O_12
REMARK    9  A    between atoms: C_11  and  C_14
REMARK   10  A    between atoms: C_14  and  O_15
REMARK   11  A    between atoms: C_19  and  O_21
REMARK   12  A    between atoms: O_21  and  C_22
REMARK   13  A    between atoms: C_22  and  C_23
REMARK   14  A    between atoms: C_29  and  C_30
REMARK                            x       y       z     vdW  Elec       q    Type
REMARK                         _______ _______ _______ _____ _____    ______ ____
ROOT
ATOM      1  C   UNL     1      33.939 -14.622 -24.577  0.00  0.00    +0.151 C 
ENDROOT
BRANCH   1   4
ATOM      2  O   UNL     1      34.234 -13.801 -22.315  0.00  0.00    -0.273 OA
ATOM      3  N   UNL     1      33.156 -12.453 -23.867  0.00  0.00    -0.302 N 
ATOM      4  C   UNL     1      33.792 -13.609 -23.446  0.00  0.00    +0.240 C 
ATOM      5  H   UNL     1      32.840 -12.404 -24.798  0.00  0.00    +0.150 HD
BRANCH   3   6
ATOM      6  C   UNL     1      32.935 -11.311 -23.001  0.00  0.00    +0.101 C 
BRANCH   6   7
ATOM      7  C   UNL     1      33.178 -10.024 -23.813  0.00  0.00    +0.022 C 
BRANCH   7   8
ATOM      8  C   UNL     1      34.650  -9.597 -23.975  0.00  0.00    +0.002 C 
ATOM      9  C   UNL     1      35.254 -10.074 -25.296  0.00  0.00    +0.000 C 
ATOM     10  C   UNL     1      34.760  -8.072 -23.879  0.00  0.00    +0.000 C 
ENDBRANCH   7   8
ENDBRANCH   6   7
BRANCH   6  11
ATOM     11  C   UNL     1      31.546 -11.376 -22.334  0.00  0.00    +0.158 C 
BRANCH  11  12
ATOM     12  O   UNL     1      30.915 -10.096 -22.388  0.00  0.00    -0.380 OA
ATOM     13  H   UNL     1      31.549  -9.436 -22.712  0.00  0.00    +0.211 HD
ENDBRANCH  11  12
BRANCH  11  14
ATOM     14  C   UNL     1      31.597 -11.847 -20.881  0.00  0.00    +0.173 C 
BRANCH  14  15
ATOM     15  O   UNL     1      30.830 -10.954 -20.081  0.00  0.00    -0.348 OA
ATOM     16  C   UNL     1      31.595 -10.437 -19.001  0.00  0.00    +0.174 C 
ENDBRANCH  14  15
ENDBRANCH  11  14
ENDBRANCH   6  11
ENDBRANCH   3   6
ENDBRANCH   1   4
BRANCH   1  18
ATOM     17  O   UNL     1      34.939 -17.054 -25.809  0.00  0.00    -0.226 OA
ATOM     18  N   UNL     1      34.100 -15.917 -23.969  0.00  0.00    -0.264 N 
ATOM     19  C   UNL     1      34.585 -17.026 -24.635  0.00  0.00    +0.402 C 
ATOM     20  H   UNL     1      33.848 -16.019 -23.022  0.00  0.00    +0.153 HD
BRANCH  19  21
ATOM     21  O   UNL     1      34.618 -18.098 -23.789  0.00  0.00    -0.430 OA
BRANCH  21  22
ATOM     22  C   UNL     1      35.197 -17.862 -22.502  0.00  0.00    +0.237 C 
BRANCH  22  23
ATOM     23  C   UNL     1      34.783 -18.961 -21.568  0.00  0.00    +0.021 C 
ATOM     24  C   UNL     1      35.750 -19.756 -20.953  0.00  0.00    -0.001 C 
ATOM     25  C   UNL     1      33.430 -19.187 -21.314  0.00  0.00    -0.001 C 
ATOM     26  C   UNL     1      35.365 -20.777 -20.085  0.00  0.00    -0.000 C 
ATOM     27  C   UNL     1      33.044 -20.208 -20.446  0.00  0.00    -0.000 C 
ATOM     28  C   UNL     1      34.012 -21.004 -19.832  0.00  0.00    -0.000 C 
ENDBRANCH  22  23
ENDBRANCH  21  22
ENDBRANCH  19  21
ENDBRANCH   1  18
BRANCH   1  29
ATOM     29  C   UNL     1      32.719 -14.562 -25.504  0.00  0.00    +0.029 C 
BRANCH  29  30
ATOM     30  C   UNL     1      33.019 -14.078 -26.938  0.00  0.00    +0.002 C 
ATOM     31  C   UNL     1      31.919 -13.171 -27.489  0.00  0.00    +0.000 C 
ATOM     32  C   UNL     1      34.359 -13.338 -26.963  0.00  0.00    +0.000 C 
ENDBRANCH  29  30
ENDBRANCH   1  29
TORSDOF 14
ENDMDL
MODEL 8
REMARK VINA RESULT:      -8.0      8.147     14.058
REMARK  Name = 5289332
REMARK  14 active torsions:
REMARK  status: ('A' for Active; 'I' for Inactive)
REMARK    1  A    between atoms: C_1  and  C_4
REMARK    2  A    between atoms: C_1  and  N_18
REMARK    3  A    between atoms: C_1  and  C_29
REMARK    4  A    between atoms: N_3  and  C_6
REMARK    5  A    between atoms: C_6  and  C_7
REMARK    6  A    between atoms: C_6  and  C_11
REMARK    7  A    between atoms: C_7  and  C_8
REMARK    8  A    between atoms: C_11  and  O_12
REMARK    9  A    between atoms: C_11  and  C_14
REMARK   10  A    between atoms: C_14  and  O_15
REMARK   11  A    between atoms: C_19  and  O_21
REMARK   12  A    between atoms: O_21  and  C_22
REMARK   13  A    between atoms: C_22  and  C_23
REMARK   14  A    between atoms: C_29  and  C_30
REMARK                            x       y       z     vdW  Elec       q    Type
REMARK                         _______ _______ _______ _____ _____    ______ ____
ROOT
ATOM      1  C   UNL     1      33.446 -13.935 -23.341  0.00  0.00    +0.151 C 
ENDROOT
BRANCH   1   4
ATOM      2  O   UNL     1      32.642 -13.333 -21.135  0.00  0.00    -0.273 OA
ATOM      3  N   UNL     1      32.657 -11.719 -22.803  0.00  0.00    -0.302 N 
ATOM      4  C   UNL     1      32.859 -12.992 -22.296  0.00  0.00    +0.240 C 
ATOM      5  H   UNL     1      32.864 -11.553 -23.751  0.00  0.00    +0.150 HD
BRANCH   3   6
ATOM      6  C   UNL     1      32.155 -10.618 -22.003  0.00  0.00    +0.101 C 
BRANCH   6   7
ATOM      7  C   UNL     1      31.330  -9.687 -22.912  0.00  0.00    +0.022 C 
BRANCH   7   8
ATOM      8  C   UNL     1      31.885  -8.261 -23.097  0.00  0.00    +0.002 C 
ATOM      9  C   UNL     1      33.334  -8.257 -23.585  0.00  0.00    +0.000 C 
ATOM     10  C   UNL     1      31.006  -7.488 -24.085  0.00  0.00    +0.000 C 
ENDBRANCH   7   8
ENDBRANCH   6   7
BRANCH   6  11
ATOM     11  C   UNL     1      31.386 -11.130 -20.769  0.00  0.00    +0.158 C 
BRANCH  11  12
ATOM     12  O   UNL     1      30.061 -11.514 -21.140  0.00  0.00    -0.380 OA
ATOM     13  H   UNL     1      29.831 -12.348 -20.699  0.00  0.00    +0.211 HD
ENDBRANCH  11  12
BRANCH  11  14
ATOM     14  C   UNL     1      31.310 -10.104 -19.638  0.00  0.00    +0.173 C 
BRANCH  14  15
ATOM     15  O   UNL     1      32.500  -9.323 -19.644  0.00  0.00    -0.348 OA
ATOM     16  C   UNL     1      32.209  -7.933 -19.644  0.00  0.00    +0.174 C 
ENDBRANCH  14  15
ENDBRANCH  11  14
ENDBRANCH   6  11
ENDBRANCH   3   6
ENDBRANCH   1   4
BRANCH   1  18
ATOM     17  O   UNL     1      35.550 -15.932 -23.481  0.00  0.00    -0.226 OA
ATOM     18  N   UNL     1      33.448 -15.256 -22.770  0.00  0.00    -0.264 N 
ATOM     19  C   UNL     1      34.498 -16.145 -22.887  0.00  0.00    +0.402 C 
ATOM     20  H   UNL     1      32.652 -15.542 -22.265  0.00  0.00    +0.153 HD
BRANCH  19  21
ATOM     21  O   UNL     1      34.196 -17.309 -22.238  0.00  0.00    -0.430 OA
BRANCH  21  22
ATOM     22  C   UNL     1      35.307 -18.150 -21.912  0.00  0.00    +0.237 C 
BRANCH  22  23
ATOM     23  C   UNL     1      34.824 -19.300 -21.079  0.00  0.00    +0.021 C 
ATOM     24  C   UNL     1      33.457 -19.488 -20.875  0.00  0.00    -0.001 C 
ATOM     25  C   UNL     1      35.742 -20.183 -20.509  0.00  0.00    -0.001 C 
ATOM     26  C   UNL     1      33.008 -20.559 -20.101  0.00  0.00    -0.000 C 
ATOM     27  C   UNL     1      35.293 -21.252 -19.734  0.00  0.00    -0.000 C 
ATOM     28  C   UNL     1      33.926 -21.440 -19.531  0.00  0.00    -0.000 C 
ENDBRANCH  22  23
ENDBRANCH  21  22
ENDBRANCH  19  21
ENDBRANCH   1  18
BRANCH   1  29
ATOM     29  C   UNL     1      32.630 -13.863 -24.638  0.00  0.00    +0.029 C 
BRANCH  29  30
ATOM     30  C   UNL     1      33.390 -14.304 -25.906  0.00  0.00    +0.002 C 
ATOM     31  C   UNL     1      33.002 -15.712 -26.358  0.00  0.00    +0.000 C 
ATOM     32  C   UNL     1      33.125 -13.307 -27.039  0.00  0.00    +0.000 C 
ENDBRANCH  29  30
ENDBRANCH   1  29
TORSDOF 14
ENDMDL
MODEL 9
REMARK VINA RESULT:      -8.0      9.655     13.995
REMARK  Name = 5289332
REMARK  14 active torsions:
REMARK  status: ('A' for Active; 'I' for Inactive)
REMARK    1  A    between atoms: C_1  and  C_4
REMARK    2  A    between atoms: C_1  and  N_18
REMARK    3  A    between atoms: C_1  and  C_29
REMARK    4  A    between atoms: N_3  and  C_6
REMARK    5  A    between atoms: C_6  and  C_7
REMARK    6  A    between atoms: C_6  and  C_11
REMARK    7  A    between atoms: C_7  and  C_8
REMARK    8  A    between atoms: C_11  and  O_12
REMARK    9  A    between atoms: C_11  and  C_14
REMARK   10  A    between atoms: C_14  and  O_15
REMARK   11  A    between atoms: C_19  and  O_21
REMARK   12  A    between atoms: O_21  and  C_22
REMARK   13  A    between atoms: C_22  and  C_23
REMARK   14  A    between atoms: C_29  and  C_30
REMARK                            x       y       z     vdW  Elec       q    Type
REMARK                         _______ _______ _______ _____ _____    ______ ____
ROOT
ATOM      1  C   UNL     1      32.341 -13.239 -21.384  0.00  0.00    +0.151 C 
ENDROOT
BRANCH   1   4
ATOM      2  O   UNL     1      32.400 -13.476 -23.796  0.00  0.00    -0.273 OA
ATOM      3  N   UNL     1      33.026 -11.450 -22.851  0.00  0.00    -0.302 N 
ATOM      4  C   UNL     1      32.599 -12.768 -22.811  0.00  0.00    +0.240 C 
ATOM      5  H   UNL     1      33.154 -10.973 -22.000  0.00  0.00    +0.150 HD
BRANCH   3   6
ATOM      6  C   UNL     1      33.293 -10.741 -24.088  0.00  0.00    +0.101 C 
BRANCH   6   7
ATOM      7  C   UNL     1      33.132  -9.230 -23.833  0.00  0.00    +0.022 C 
BRANCH   7   8
ATOM      8  C   UNL     1      32.105  -8.835 -22.754  0.00  0.00    +0.002 C 
ATOM      9  C   UNL     1      32.736  -8.038 -21.612  0.00  0.00    +0.000 C 
ATOM     10  C   UNL     1      30.975  -8.019 -23.390  0.00  0.00    +0.000 C 
ENDBRANCH   7   8
ENDBRANCH   6   7
BRANCH   6  11
ATOM     11  C   UNL     1      34.665 -11.133 -24.672  0.00  0.00    +0.158 C 
BRANCH  11  12
ATOM     12  O   UNL     1      35.605 -10.076 -24.473  0.00  0.00    -0.380 OA
ATOM     13  H   UNL     1      35.157  -9.222 -24.579  0.00  0.00    +0.211 HD
ENDBRANCH  11  12
BRANCH  11  14
ATOM     14  C   UNL     1      34.611 -11.480 -26.160  0.00  0.00    +0.173 C 
BRANCH  14  15
ATOM     15  O   UNL     1      33.364 -12.107 -26.441  0.00  0.00    -0.348 OA
ATOM     16  C   UNL     1      33.529 -13.231 -27.294  0.00  0.00    +0.174 C 
ENDBRANCH  14  15
ENDBRANCH  11  14
ENDBRANCH   6  11
ENDBRANCH   3   6
ENDBRANCH   1   4
BRANCH   1  18
ATOM     17  O   UNL     1      31.618 -15.986 -20.781  0.00  0.00    -0.226 OA
ATOM     18  N   UNL     1      33.223 -14.350 -21.138  0.00  0.00    -0.264 N 
ATOM     19  C   UNL     1      32.790 -15.631 -20.856  0.00  0.00    +0.402 C 
ATOM     20  H   UNL     1      34.194 -14.186 -21.172  0.00  0.00    +0.153 HD
BRANCH  19  21
ATOM     21  O   UNL     1      33.864 -16.455 -20.673  0.00  0.00    -0.430 OA
BRANCH  21  22
ATOM     22  C   UNL     1      34.992 -16.209 -21.519  0.00  0.00    +0.237 C 
BRANCH  22  23
ATOM     23  C   UNL     1      34.839 -17.002 -22.783  0.00  0.00    +0.021 C 
ATOM     24  C   UNL     1      34.642 -16.345 -23.998  0.00  0.00    -0.001 C 
ATOM     25  C   UNL     1      34.896 -18.395 -22.745  0.00  0.00    -0.001 C 
ATOM     26  C   UNL     1      34.500 -17.082 -25.174  0.00  0.00    -0.000 C 
ATOM     27  C   UNL     1      34.754 -19.132 -23.920  0.00  0.00    -0.000 C 
ATOM     28  C   UNL     1      34.556 -18.475 -25.135  0.00  0.00    -0.000 C 
ENDBRANCH  22  23
ENDBRANCH  21  22
ENDBRANCH  19  21
ENDBRANCH   1  18
BRANCH   1  29
ATOM     29  C   UNL     1      32.567 -12.087 -20.397  0.00  0.00    +0.029 C 
BRANCH  29  30
ATOM     30  C   UNL     1      31.281 -11.515 -19.765  0.00  0.00    +0.002 C 
ATOM     31  C   UNL     1      31.551 -10.271 -18.919  0.00  0.00    +0.000 C 
ATOM     32  C   UNL     1      30.269 -11.183 -20.865  0.00  0.00    +0.000 C 
ENDBRANCH  29  30
ENDBRANCH   1  29
TORSDOF 14
ENDMDL
