MODEL 1
REMARK VINA RESULT:      -3.9      0.000      0.000
REMARK  Name = 2365
REMARK  0 active torsions:
REMARK  status: ('A' for Active; 'I' for Inactive)
REMARK                            x       y       z     vdW  Elec       q    Type
REMARK                         _______ _______ _______ _____ _____    ______ ____
ROOT
ATOM      1  O   UNL     1      27.576 -23.512 -17.694  0.00  0.00    -0.448 OA
ATOM      2  O   UNL     1      26.863 -21.323 -17.417  0.00  0.00    -0.250 OA
ATOM      3  C   UNL     1      28.331 -22.748 -15.869  0.00  0.00    +0.157 C 
ATOM      4  C   UNL     1      28.410 -24.063 -16.637  0.00  0.00    +0.220 C 
ATOM      5  C   UNL     1      27.463 -22.312 -17.063  0.00  0.00    +0.321 C 
ENDROOT
TORSDOF 0
ENDMDL
MODEL 2
REMARK VINA RESULT:      -3.7      1.317      1.797
REMARK  Name = 2365
REMARK  0 active torsions:
REMARK  status: ('A' for Active; 'I' for Inactive)
REMARK                            x       y       z     vdW  Elec       q    Type
REMARK                         _______ _______ _______ _____ _____    ______ ____
ROOT
ATOM      1  O   UNL     1      29.237 -22.371 -17.036  0.00  0.00    -0.448 OA
ATOM      2  O   UNL     1      27.307 -23.364 -17.851  0.00  0.00    -0.250 OA
ATOM      3  C   UNL     1      28.718 -24.017 -15.810  0.00  0.00    +0.157 C 
ATOM      4  C   UNL     1      29.824 -22.968 -15.847  0.00  0.00    +0.220 C 
ATOM      5  C   UNL     1      28.222 -23.276 -17.065  0.00  0.00    +0.321 C 
ENDROOT
TORSDOF 0
ENDMDL
MODEL 3
REMARK VINA RESULT:      -3.7      9.987     10.519
REMARK  Name = 2365
REMARK  0 active torsions:
REMARK  status: ('A' for Active; 'I' for Inactive)
REMARK                            x       y       z     vdW  Elec       q    Type
REMARK                         _______ _______ _______ _____ _____    ______ ____
ROOT
ATOM      1  O   UNL     1      37.002 -23.738 -10.599  0.00  0.00    -0.448 OA
ATOM      2  O   UNL     1      35.191 -25.181 -10.488  0.00  0.00    -0.250 OA
ATOM      3  C   UNL     1      35.888 -23.612 -12.396  0.00  0.00    +0.157 C 
ATOM      4  C   UNL     1      37.144 -22.964 -11.823  0.00  0.00    +0.220 C 
ATOM      5  C   UNL     1      35.876 -24.354 -11.047  0.00  0.00    +0.321 C 
ENDROOT
TORSDOF 0
ENDMDL
MODEL 4
REMARK VINA RESULT:      -3.6      9.989     10.666
REMARK  Name = 2365
REMARK  0 active torsions:
REMARK  status: ('A' for Active; 'I' for Inactive)
REMARK                            x       y       z     vdW  Elec       q    Type
REMARK                         _______ _______ _______ _____ _____    ______ ____
ROOT
ATOM      1  O   UNL     1      38.270 -26.989 -14.662  0.00  0.00    -0.448 OA
ATOM      2  O   UNL     1      36.633 -27.359 -16.263  0.00  0.00    -0.250 OA
ATOM      3  C   UNL     1      36.644 -25.675 -14.327  0.00  0.00    +0.157 C 
ATOM      4  C   UNL     1      37.995 -25.956 -13.677  0.00  0.00    +0.220 C 
ATOM      5  C   UNL     1      37.080 -26.792 -15.292  0.00  0.00    +0.321 C 
ENDROOT
TORSDOF 0
ENDMDL
MODEL 5
REMARK VINA RESULT:      -3.6     11.863     12.379
REMARK  Name = 2365
REMARK  0 active torsions:
REMARK  status: ('A' for Active; 'I' for Inactive)
REMARK                            x       y       z     vdW  Elec       q    Type
REMARK                         _______ _______ _______ _____ _____    ______ ____
ROOT
ATOM      1  O   UNL     1      39.506 -26.677 -14.643  0.00  0.00    -0.448 OA
ATOM      2  O   UNL     1      41.048 -24.945 -14.635  0.00  0.00    -0.250 OA
ATOM      3  C   UNL     1      38.485 -24.822 -14.612  0.00  0.00    +0.157 C 
ATOM      4  C   UNL     1      38.102 -26.298 -14.627  0.00  0.00    +0.220 C 
ATOM      5  C   UNL     1      39.920 -25.381 -14.631  0.00  0.00    +0.321 C 
ENDROOT
TORSDOF 0
ENDMDL
MODEL 6
REMARK VINA RESULT:      -3.5     11.256     11.585
REMARK  Name = 2365
REMARK  0 active torsions:
REMARK  status: ('A' for Active; 'I' for Inactive)
REMARK                            x       y       z     vdW  Elec       q    Type
REMARK                         _______ _______ _______ _____ _____    ______ ____
ROOT
ATOM      1  O   UNL     1      37.226 -24.997 -11.539  0.00  0.00    -0.448 OA
ATOM      2  O   UNL     1      38.501 -23.062 -11.632  0.00  0.00    -0.250 OA
ATOM      3  C   UNL     1      38.606 -25.136 -13.140  0.00  0.00    +0.157 C 
ATOM      4  C   UNL     1      37.514 -26.015 -12.538  0.00  0.00    +0.220 C 
ATOM      5  C   UNL     1      38.184 -24.162 -12.025  0.00  0.00    +0.321 C 
ENDROOT
TORSDOF 0
ENDMDL
MODEL 7
REMARK VINA RESULT:      -3.5      6.922      7.114
REMARK  Name = 2365
REMARK  0 active torsions:
REMARK  status: ('A' for Active; 'I' for Inactive)
REMARK                            x       y       z     vdW  Elec       q    Type
REMARK                         _______ _______ _______ _____ _____    ______ ____
ROOT
ATOM      1  O   UNL     1      32.570 -20.440 -20.520  0.00  0.00    -0.448 OA
ATOM      2  O   UNL     1      32.904 -22.182 -19.025  0.00  0.00    -0.250 OA
ATOM      3  C   UNL     1      34.642 -20.658 -20.140  0.00  0.00    +0.157 C 
ATOM      4  C   UNL     1      33.760 -19.748 -20.988  0.00  0.00    +0.220 C 
ATOM      5  C   UNL     1      33.295 -21.287 -19.740  0.00  0.00    +0.321 C 
ENDROOT
TORSDOF 0
ENDMDL
MODEL 8
REMARK VINA RESULT:      -3.4      6.518      6.528
REMARK  Name = 2365
REMARK  0 active torsions:
REMARK  status: ('A' for Active; 'I' for Inactive)
REMARK                            x       y       z     vdW  Elec       q    Type
REMARK                         _______ _______ _______ _____ _____    ______ ____
ROOT
ATOM      1  O   UNL     1      32.795 -22.051 -19.087  0.00  0.00    -0.448 OA
ATOM      2  O   UNL     1      32.500 -20.183 -20.429  0.00  0.00    -0.250 OA
ATOM      3  C   UNL     1      34.685 -21.283 -19.655  0.00  0.00    +0.157 C 
ATOM      4  C   UNL     1      34.167 -22.446 -18.814  0.00  0.00    +0.220 C 
ATOM      5  C   UNL     1      33.186 -20.995 -19.850  0.00  0.00    +0.321 C 
ENDROOT
TORSDOF 0
ENDMDL
MODEL 9
REMARK VINA RESULT:      -3.4     12.400     12.881
REMARK  Name = 2365
REMARK  0 active torsions:
REMARK  status: ('A' for Active; 'I' for Inactive)
REMARK                            x       y       z     vdW  Elec       q    Type
REMARK                         _______ _______ _______ _____ _____    ______ ____
ROOT
ATOM      1  O   UNL     1      33.449 -15.480 -26.570  0.00  0.00    -0.448 OA
ATOM      2  O   UNL     1      34.619 -17.226 -25.591  0.00  0.00    -0.250 OA
ATOM      3  C   UNL     1      33.603 -15.145 -24.484  0.00  0.00    +0.157 C 
ATOM      4  C   UNL     1      32.989 -14.425 -25.680  0.00  0.00    +0.220 C 
ATOM      5  C   UNL     1      34.020 -16.175 -25.550  0.00  0.00    +0.321 C 
ENDROOT
TORSDOF 0
ENDMDL
