MODEL 1
REMARK VINA RESULT:      -9.4      0.000      0.000
REMARK  Name = 31707
REMARK  5 active torsions:
REMARK  status: ('A' for Active; 'I' for Inactive)
REMARK    1  A    between atoms: N_1  and  C_11
REMARK    2  A    between atoms: C_2  and  C_17
REMARK    3  A    between atoms: C_17  and  C_18
REMARK    4  A    between atoms: C_18  and  C_19
REMARK    5  A    between atoms: C_19  and  N_20
REMARK                            x       y       z     vdW  Elec       q    Type
REMARK                         _______ _______ _______ _____ _____    ______ ____
ROOT
ATOM      1  N   UNL     1      34.170 -18.290 -21.416  0.00  0.00    -0.287 N 
ATOM      2  C   UNL     1      33.647 -15.902 -21.502  0.00  0.00    +0.039 C 
ATOM      3  C   UNL     1      33.431 -17.224 -20.710  0.00  0.00    +0.099 C 
ATOM      4  C   UNL     1      34.041 -16.450 -22.848  0.00  0.00    -0.008 C 
ATOM      5  C   UNL     1      34.347 -17.815 -22.737  0.00  0.00    +0.048 C 
ATOM      6  C   UNL     1      34.796 -15.081 -20.903  0.00  0.00    +0.006 C 
ATOM      7  C   UNL     1      34.143 -15.775 -24.058  0.00  0.00    -0.003 C 
ATOM      8  C   UNL     1      34.731 -18.524 -23.867  0.00  0.00    +0.015 C 
ATOM      9  C   UNL     1      34.543 -16.489 -25.186  0.00  0.00    -0.000 C 
ATOM     10  C   UNL     1      34.832 -17.855 -25.091  0.00  0.00    +0.001 C 
ENDROOT
BRANCH   1  11
ATOM     11  C   UNL     1      34.479 -19.501 -20.791  0.00  0.00    +0.052 C 
ATOM     12  C   UNL     1      35.818 -19.924 -20.636  0.00  0.00    +0.015 C 
ATOM     13  C   UNL     1      33.464 -20.346 -20.290  0.00  0.00    +0.015 C 
ATOM     14  C   UNL     1      36.126 -21.133 -20.012  0.00  0.00    +0.001 C 
ATOM     15  C   UNL     1      33.773 -21.555 -19.666  0.00  0.00    +0.001 C 
ATOM     16  C   UNL     1      35.105 -21.948 -19.527  0.00  0.00    +0.000 C 
ENDBRANCH   1  11
BRANCH   2  17
ATOM     17  C   UNL     1      32.363 -15.071 -21.545  0.00  0.00    +0.004 C 
BRANCH  17  18
ATOM     18  C   UNL     1      32.651 -13.602 -21.257  0.00  0.00    -0.023 C 
BRANCH  18  19
ATOM     19  C   UNL     1      32.201 -12.725 -22.423  0.00  0.00    -0.082 C 
BRANCH  19  20
ATOM     20  N   UNL     1      31.130 -11.831 -21.999  0.00  0.00    +0.382 N 
ATOM     21  C   UNL     1      31.298 -11.443 -20.606  0.00  0.00    -0.106 C 
ATOM     22  H   UNL     1      30.234 -12.307 -22.107  0.00  0.00    -0.085 HD
ATOM     23  H   UNL     1      31.158 -10.991 -22.576  0.00  0.00    -0.085 HD
ENDBRANCH  19  20
ENDBRANCH  18  19
ENDBRANCH  17  18
ENDBRANCH   2  17
TORSDOF 5
ENDMDL
MODEL 2
REMARK VINA RESULT:      -8.5      1.564      6.481
REMARK  Name = 31707
REMARK  5 active torsions:
REMARK  status: ('A' for Active; 'I' for Inactive)
REMARK    1  A    between atoms: N_1  and  C_11
REMARK    2  A    between atoms: C_2  and  C_17
REMARK    3  A    between atoms: C_17  and  C_18
REMARK    4  A    between atoms: C_18  and  C_19
REMARK    5  A    between atoms: C_19  and  N_20
REMARK                            x       y       z     vdW  Elec       q    Type
REMARK                         _______ _______ _______ _____ _____    ______ ____
ROOT
ATOM      1  N   UNL     1      33.901 -16.307 -22.019  0.00  0.00    -0.287 N 
ATOM      2  C   UNL     1      34.640 -18.540 -21.348  0.00  0.00    +0.039 C 
ATOM      3  C   UNL     1      34.472 -17.063 -20.886  0.00  0.00    +0.099 C 
ATOM      4  C   UNL     1      34.644 -18.361 -22.842  0.00  0.00    -0.008 C 
ATOM      5  C   UNL     1      34.196 -17.073 -23.172  0.00  0.00    +0.048 C 
ATOM      6  C   UNL     1      33.441 -19.392 -20.915  0.00  0.00    +0.006 C 
ATOM      7  C   UNL     1      34.993 -19.285 -23.820  0.00  0.00    -0.003 C 
ATOM      8  C   UNL     1      34.126 -16.693 -24.505  0.00  0.00    +0.015 C 
ATOM      9  C   UNL     1      34.907 -18.902 -25.157  0.00  0.00    -0.000 C 
ATOM     10  C   UNL     1      34.480 -17.613 -25.497  0.00  0.00    +0.001 C 
ENDROOT
BRANCH   1  11
ATOM     11  C   UNL     1      33.300 -15.058 -21.835  0.00  0.00    +0.052 C 
ATOM     12  C   UNL     1      32.889 -14.625 -20.555  0.00  0.00    +0.015 C 
ATOM     13  C   UNL     1      33.083 -14.183 -22.922  0.00  0.00    +0.015 C 
ATOM     14  C   UNL     1      32.289 -13.379 -20.372  0.00  0.00    +0.001 C 
ATOM     15  C   UNL     1      32.483 -12.937 -22.738  0.00  0.00    +0.001 C 
ATOM     16  C   UNL     1      32.086 -12.535 -21.463  0.00  0.00    +0.000 C 
ENDBRANCH   1  11
BRANCH   2  17
ATOM     17  C   UNL     1      35.942 -19.138 -20.811  0.00  0.00    +0.004 C 
BRANCH  17  18
ATOM     18  C   UNL     1      35.765 -20.612 -20.466  0.00  0.00    -0.023 C 
BRANCH  18  19
ATOM     19  C   UNL     1      36.610 -20.986 -19.250  0.00  0.00    -0.082 C 
BRANCH  19  20
ATOM     20  N   UNL     1      35.888 -21.929 -18.403  0.00  0.00    +0.382 N 
ATOM     21  C   UNL     1      34.567 -22.209 -18.947  0.00  0.00    -0.106 C 
ATOM     22  H   UNL     1      35.788 -21.531 -17.469  0.00  0.00    -0.085 HD
ATOM     23  H   UNL     1      36.415 -22.802 -18.364  0.00  0.00    -0.085 HD
ENDBRANCH  19  20
ENDBRANCH  18  19
ENDBRANCH  17  18
ENDBRANCH   2  17
TORSDOF 5
ENDMDL
MODEL 3
REMARK VINA RESULT:      -8.3      7.859     10.293
REMARK  Name = 31707
REMARK  5 active torsions:
REMARK  status: ('A' for Active; 'I' for Inactive)
REMARK    1  A    between atoms: N_1  and  C_11
REMARK    2  A    between atoms: C_2  and  C_17
REMARK    3  A    between atoms: C_17  and  C_18
REMARK    4  A    between atoms: C_18  and  C_19
REMARK    5  A    between atoms: C_19  and  N_20
REMARK                            x       y       z     vdW  Elec       q    Type
REMARK                         _______ _______ _______ _____ _____    ______ ____
ROOT
ATOM      1  N   UNL     1      34.286 -24.116 -14.263  0.00  0.00    -0.287 N 
ATOM      2  C   UNL     1      31.866 -23.984 -14.594  0.00  0.00    +0.039 C 
ATOM      3  C   UNL     1      33.004 -24.674 -13.788  0.00  0.00    +0.099 C 
ATOM      4  C   UNL     1      32.635 -23.502 -15.796  0.00  0.00    -0.008 C 
ATOM      5  C   UNL     1      34.013 -23.582 -15.545  0.00  0.00    +0.048 C 
ATOM      6  C   UNL     1      31.285 -22.794 -13.820  0.00  0.00    +0.006 C 
ATOM      7  C   UNL     1      32.139 -23.008 -16.996  0.00  0.00    -0.003 C 
ATOM      8  C   UNL     1      34.911 -23.191 -16.528  0.00  0.00    +0.015 C 
ATOM      9  C   UNL     1      33.045 -22.603 -17.974  0.00  0.00    -0.000 C 
ATOM     10  C   UNL     1      34.422 -22.697 -17.742  0.00  0.00    +0.001 C 
ENDROOT
BRANCH   1  11
ATOM     11  C   UNL     1      35.461 -24.248 -13.518  0.00  0.00    +0.052 C 
ATOM     12  C   UNL     1      35.647 -23.537 -12.312  0.00  0.00    +0.015 C 
ATOM     13  C   UNL     1      36.505 -25.100 -13.943  0.00  0.00    +0.015 C 
ATOM     14  C   UNL     1      36.821 -23.669 -11.569  0.00  0.00    +0.001 C 
ATOM     15  C   UNL     1      37.678 -25.232 -13.199  0.00  0.00    +0.001 C 
ATOM     16  C   UNL     1      37.835 -24.516 -12.012  0.00  0.00    +0.000 C 
ENDBRANCH   1  11
BRANCH   2  17
ATOM     17  C   UNL     1      30.762 -24.981 -14.950  0.00  0.00    +0.004 C 
BRANCH  17  18
ATOM     18  C   UNL     1      29.392 -24.313 -14.924  0.00  0.00    -0.023 C 
BRANCH  18  19
ATOM     19  C   UNL     1      28.759 -24.325 -16.314  0.00  0.00    -0.082 C 
BRANCH  19  20
ATOM     20  N   UNL     1      28.436 -22.967 -16.735  0.00  0.00    +0.382 N 
ATOM     21  C   UNL     1      27.382 -22.402 -15.904  0.00  0.00    -0.106 C 
ATOM     22  H   UNL     1      28.122 -22.983 -17.706  0.00  0.00    -0.085 HD
ATOM     23  H   UNL     1      29.270 -22.388 -16.640  0.00  0.00    -0.085 HD
ENDBRANCH  19  20
ENDBRANCH  18  19
ENDBRANCH  17  18
ENDBRANCH   2  17
TORSDOF 5
ENDMDL
MODEL 4
REMARK VINA RESULT:      -8.2      3.059      7.940
REMARK  Name = 31707
REMARK  5 active torsions:
REMARK  status: ('A' for Active; 'I' for Inactive)
REMARK    1  A    between atoms: N_1  and  C_11
REMARK    2  A    between atoms: C_2  and  C_17
REMARK    3  A    between atoms: C_17  and  C_18
REMARK    4  A    between atoms: C_18  and  C_19
REMARK    5  A    between atoms: C_19  and  N_20
REMARK                            x       y       z     vdW  Elec       q    Type
REMARK                         _______ _______ _______ _____ _____    ______ ____
ROOT
ATOM      1  N   UNL     1      33.738 -11.778 -23.862  0.00  0.00    -0.287 N 
ATOM      2  C   UNL     1      33.629 -14.070 -23.014  0.00  0.00    +0.039 C 
ATOM      3  C   UNL     1      34.133 -12.627 -22.720  0.00  0.00    +0.099 C 
ATOM      4  C   UNL     1      33.470 -14.005 -24.510  0.00  0.00    -0.008 C 
ATOM      5  C   UNL     1      33.522 -12.670 -24.939  0.00  0.00    +0.048 C 
ATOM      6  C   UNL     1      32.274 -14.328 -22.344  0.00  0.00    +0.006 C 
ATOM      7  C   UNL     1      33.268 -15.051 -25.402  0.00  0.00    -0.003 C 
ATOM      8  C   UNL     1      33.401 -12.381 -26.291  0.00  0.00    +0.015 C 
ATOM      9  C   UNL     1      33.132 -14.753 -26.757  0.00  0.00    -0.000 C 
ATOM     10  C   UNL     1      33.202 -13.427 -27.198  0.00  0.00    +0.001 C 
ENDROOT
BRANCH   1  11
ATOM     11  C   UNL     1      33.716 -10.384 -23.762  0.00  0.00    +0.052 C 
ATOM     12  C   UNL     1      34.794  -9.600 -24.230  0.00  0.00    +0.015 C 
ATOM     13  C   UNL     1      32.615  -9.709 -23.190  0.00  0.00    +0.015 C 
ATOM     14  C   UNL     1      34.771  -8.208 -24.130  0.00  0.00    +0.001 C 
ATOM     15  C   UNL     1      32.594  -8.317 -23.090  0.00  0.00    +0.001 C 
ATOM     16  C   UNL     1      33.673  -7.567 -23.561  0.00  0.00    +0.000 C 
ENDBRANCH   1  11
BRANCH   2  17
ATOM     17  C   UNL     1      34.655 -15.112 -22.565  0.00  0.00    +0.004 C 
BRANCH  17  18
ATOM     18  C   UNL     1      34.203 -15.809 -21.287  0.00  0.00    -0.023 C 
BRANCH  18  19
ATOM     19  C   UNL     1      34.268 -17.326 -21.447  0.00  0.00    -0.082 C 
BRANCH  19  20
ATOM     20  N   UNL     1      35.479 -17.849 -20.826  0.00  0.00    +0.382 N 
ATOM     21  C   UNL     1      35.556 -19.296 -20.974  0.00  0.00    -0.106 C 
ATOM     22  H   UNL     1      35.474 -17.615 -19.833  0.00  0.00    -0.085 HD
ATOM     23  H   UNL     1      36.288 -17.432 -21.286  0.00  0.00    -0.085 HD
ENDBRANCH  19  20
ENDBRANCH  18  19
ENDBRANCH  17  18
ENDBRANCH   2  17
TORSDOF 5
ENDMDL
MODEL 5
REMARK VINA RESULT:      -8.1      5.648     10.655
REMARK  Name = 31707
REMARK  5 active torsions:
REMARK  status: ('A' for Active; 'I' for Inactive)
REMARK    1  A    between atoms: N_1  and  C_11
REMARK    2  A    between atoms: C_2  and  C_17
REMARK    3  A    between atoms: C_17  and  C_18
REMARK    4  A    between atoms: C_18  and  C_19
REMARK    5  A    between atoms: C_19  and  N_20
REMARK                            x       y       z     vdW  Elec       q    Type
REMARK                         _______ _______ _______ _____ _____    ______ ____
ROOT
ATOM      1  N   UNL     1      34.312 -22.923 -17.124  0.00  0.00    -0.287 N 
ATOM      2  C   UNL     1      35.101 -24.066 -15.111  0.00  0.00    +0.039 C 
ATOM      3  C   UNL     1      35.456 -23.677 -16.575  0.00  0.00    +0.099 C 
ATOM      4  C   UNL     1      33.600 -23.955 -15.154  0.00  0.00    -0.008 C 
ATOM      5  C   UNL     1      33.204 -23.277 -16.317  0.00  0.00    +0.048 C 
ATOM      6  C   UNL     1      35.682 -23.055 -14.115  0.00  0.00    +0.006 C 
ATOM      7  C   UNL     1      32.675 -24.399 -14.218  0.00  0.00    -0.003 C 
ATOM      8  C   UNL     1      31.854 -23.068 -16.561  0.00  0.00    +0.015 C 
ATOM      9  C   UNL     1      31.322 -24.173 -14.461  0.00  0.00    -0.000 C 
ATOM     10  C   UNL     1      30.914 -23.515 -15.627  0.00  0.00    +0.001 C 
ENDROOT
BRANCH   1  11
ATOM     11  C   UNL     1      34.440 -22.130 -18.269  0.00  0.00    +0.052 C 
ATOM     12  C   UNL     1      33.305 -21.671 -18.972  0.00  0.00    +0.015 C 
ATOM     13  C   UNL     1      35.711 -21.760 -18.762  0.00  0.00    +0.015 C 
ATOM     14  C   UNL     1      33.435 -20.881 -20.115  0.00  0.00    +0.001 C 
ATOM     15  C   UNL     1      35.839 -20.969 -19.905  0.00  0.00    +0.001 C 
ATOM     16  C   UNL     1      34.700 -20.529 -20.581  0.00  0.00    +0.000 C 
ENDBRANCH   1  11
BRANCH   2  17
ATOM     17  C   UNL     1      35.589 -25.479 -14.784  0.00  0.00    +0.004 C 
BRANCH  17  18
ATOM     18  C   UNL     1      36.770 -25.441 -13.822  0.00  0.00    -0.023 C 
BRANCH  18  19
ATOM     19  C   UNL     1      37.980 -26.153 -14.424  0.00  0.00    -0.082 C 
BRANCH  19  20
ATOM     20  N   UNL     1      38.794 -25.211 -15.184  0.00  0.00    +0.382 N 
ATOM     21  C   UNL     1      40.213 -25.450 -14.956  0.00  0.00    -0.106 C 
ATOM     22  H   UNL     1      38.565 -24.260 -14.893  0.00  0.00    -0.085 HD
ATOM     23  H   UNL     1      38.598 -25.337 -16.176  0.00  0.00    -0.085 HD
ENDBRANCH  19  20
ENDBRANCH  18  19
ENDBRANCH  17  18
ENDBRANCH   2  17
TORSDOF 5
ENDMDL
MODEL 6
REMARK VINA RESULT:      -8.1      7.126     10.521
REMARK  Name = 31707
REMARK  5 active torsions:
REMARK  status: ('A' for Active; 'I' for Inactive)
REMARK    1  A    between atoms: N_1  and  C_11
REMARK    2  A    between atoms: C_2  and  C_17
REMARK    3  A    between atoms: C_17  and  C_18
REMARK    4  A    between atoms: C_18  and  C_19
REMARK    5  A    between atoms: C_19  and  N_20
REMARK                            x       y       z     vdW  Elec       q    Type
REMARK                         _______ _______ _______ _____ _____    ______ ____
ROOT
ATOM      1  N   UNL     1      32.647 -23.521 -15.750  0.00  0.00    -0.287 N 
ATOM      2  C   UNL     1      35.002 -23.648 -15.100  0.00  0.00    +0.039 C 
ATOM      3  C   UNL     1      33.537 -23.606 -14.574  0.00  0.00    +0.099 C 
ATOM      4  C   UNL     1      34.818 -23.055 -16.471  0.00  0.00    -0.008 C 
ATOM      5  C   UNL     1      33.454 -23.024 -16.800  0.00  0.00    +0.048 C 
ATOM      6  C   UNL     1      35.509 -25.091 -15.205  0.00  0.00    +0.006 C 
ATOM      7  C   UNL     1      35.793 -22.611 -17.357  0.00  0.00    -0.003 C 
ATOM      8  C   UNL     1      33.058 -22.507 -18.026  0.00  0.00    +0.015 C 
ATOM      9  C   UNL     1      35.390 -22.108 -18.592  0.00  0.00    -0.000 C 
ATOM     10  C   UNL     1      34.031 -22.053 -18.922  0.00  0.00    +0.001 C 
ENDROOT
BRANCH   1  11
ATOM     11  C   UNL     1      31.285 -23.823 -15.657  0.00  0.00    +0.052 C 
ATOM     12  C   UNL     1      30.832 -24.942 -14.924  0.00  0.00    +0.015 C 
ATOM     13  C   UNL     1      30.313 -23.019 -16.293  0.00  0.00    +0.015 C 
ATOM     14  C   UNL     1      29.472 -25.243 -14.833  0.00  0.00    +0.001 C 
ATOM     15  C   UNL     1      28.954 -23.321 -16.201  0.00  0.00    +0.001 C 
ATOM     16  C   UNL     1      28.534 -24.433 -15.471  0.00  0.00    +0.000 C 
ENDBRANCH   1  11
BRANCH   2  17
ATOM     17  C   UNL     1      35.929 -22.819 -14.208  0.00  0.00    +0.004 C 
BRANCH  17  18
ATOM     18  C   UNL     1      36.087 -23.464 -12.835  0.00  0.00    -0.023 C 
BRANCH  18  19
ATOM     19  C   UNL     1      37.397 -23.028 -12.182  0.00  0.00    -0.082 C 
BRANCH  19  20
ATOM     20  N   UNL     1      38.065 -24.173 -11.574  0.00  0.00    +0.382 N 
ATOM     21  C   UNL     1      38.141 -25.287 -12.509  0.00  0.00    -0.106 C 
ATOM     22  H   UNL     1      37.541 -24.466 -10.748  0.00  0.00    -0.085 HD
ATOM     23  H   UNL     1      39.012 -23.899 -11.316  0.00  0.00    -0.085 HD
ENDBRANCH  19  20
ENDBRANCH  18  19
ENDBRANCH  17  18
ENDBRANCH   2  17
TORSDOF 5
ENDMDL
MODEL 7
REMARK VINA RESULT:      -7.5      5.003      7.827
REMARK  Name = 31707
REMARK  5 active torsions:
REMARK  status: ('A' for Active; 'I' for Inactive)
REMARK    1  A    between atoms: N_1  and  C_11
REMARK    2  A    between atoms: C_2  and  C_17
REMARK    3  A    between atoms: C_17  and  C_18
REMARK    4  A    between atoms: C_18  and  C_19
REMARK    5  A    between atoms: C_19  and  N_20
REMARK                            x       y       z     vdW  Elec       q    Type
REMARK                         _______ _______ _______ _____ _____    ______ ____
ROOT
ATOM      1  N   UNL     1      32.898 -11.493 -23.627  0.00  0.00    -0.287 N 
ATOM      2  C   UNL     1      32.588  -9.142 -23.027  0.00  0.00    +0.039 C 
ATOM      3  C   UNL     1      33.350 -10.128 -23.961  0.00  0.00    +0.099 C 
ATOM      4  C   UNL     1      32.185 -10.074 -21.916  0.00  0.00    -0.008 C 
ATOM      5  C   UNL     1      32.365 -11.406 -22.319  0.00  0.00    +0.048 C 
ATOM      6  C   UNL     1      31.346  -8.573 -23.724  0.00  0.00    +0.006 C 
ATOM      7  C   UNL     1      31.674  -9.753 -20.664  0.00  0.00    -0.003 C 
ATOM      8  C   UNL     1      32.058 -12.434 -21.439  0.00  0.00    +0.015 C 
ATOM      9  C   UNL     1      31.353 -10.790 -19.791  0.00  0.00    -0.000 C 
ATOM     10  C   UNL     1      31.548 -12.122 -20.174  0.00  0.00    +0.001 C 
ENDROOT
BRANCH   1  11
ATOM     11  C   UNL     1      33.108 -12.566 -24.499  0.00  0.00    +0.052 C 
ATOM     12  C   UNL     1      33.240 -12.362 -25.891  0.00  0.00    +0.015 C 
ATOM     13  C   UNL     1      33.195 -13.892 -24.020  0.00  0.00    +0.015 C 
ATOM     14  C   UNL     1      33.448 -13.433 -26.760  0.00  0.00    +0.001 C 
ATOM     15  C   UNL     1      33.404 -14.962 -24.891  0.00  0.00    +0.001 C 
ATOM     16  C   UNL     1      33.531 -14.732 -26.261  0.00  0.00    +0.000 C 
ENDBRANCH   1  11
BRANCH   2  17
ATOM     17  C   UNL     1      33.505  -8.011 -22.559  0.00  0.00    +0.004 C 
BRANCH  17  18
ATOM     18  C   UNL     1      32.786  -6.667 -22.612  0.00  0.00    -0.023 C 
BRANCH  18  19
ATOM     19  C   UNL     1      32.288  -6.266 -21.225  0.00  0.00    -0.082 C 
BRANCH  19  20
ATOM     20  N   UNL     1      31.170  -5.337 -21.338  0.00  0.00    +0.382 N 
ATOM     21  C   UNL     1      30.927  -4.984 -22.730  0.00  0.00    -0.106 C 
ATOM     22  H   UNL     1      31.385  -4.489 -20.812  0.00  0.00    -0.085 HD
ATOM     23  H   UNL     1      30.334  -5.785 -20.965  0.00  0.00    -0.085 HD
ENDBRANCH  19  20
ENDBRANCH  18  19
ENDBRANCH  17  18
ENDBRANCH   2  17
TORSDOF 5
ENDMDL
MODEL 8
REMARK VINA RESULT:      -7.4      4.500      7.993
REMARK  Name = 31707
REMARK  5 active torsions:
REMARK  status: ('A' for Active; 'I' for Inactive)
REMARK    1  A    between atoms: N_1  and  C_11
REMARK    2  A    between atoms: C_2  and  C_17
REMARK    3  A    between atoms: C_17  and  C_18
REMARK    4  A    between atoms: C_18  and  C_19
REMARK    5  A    between atoms: C_19  and  N_20
REMARK                            x       y       z     vdW  Elec       q    Type
REMARK                         _______ _______ _______ _____ _____    ______ ____
ROOT
ATOM      1  N   UNL     1      32.646 -10.716 -22.655  0.00  0.00    -0.287 N 
ATOM      2  C   UNL     1      32.159  -8.357 -22.226  0.00  0.00    +0.039 C 
ATOM      3  C   UNL     1      31.598  -9.807 -22.150  0.00  0.00    +0.099 C 
ATOM      4  C   UNL     1      33.250  -8.539 -23.247  0.00  0.00    -0.008 C 
ATOM      5  C   UNL     1      33.501  -9.906 -23.441  0.00  0.00    +0.048 C 
ATOM      6  C   UNL     1      32.753  -7.925 -20.880  0.00  0.00    +0.006 C 
ATOM      7  C   UNL     1      33.973  -7.562 -23.920  0.00  0.00    -0.003 C 
ATOM      8  C   UNL     1      34.473 -10.301 -24.350  0.00  0.00    +0.015 C 
ATOM      9  C   UNL     1      34.957  -7.965 -24.821  0.00  0.00    -0.000 C 
ATOM     10  C   UNL     1      35.203  -9.325 -25.036  0.00  0.00    +0.001 C 
ENDROOT
BRANCH   1  11
ATOM     11  C   UNL     1      32.611 -12.089 -22.394  0.00  0.00    +0.052 C 
ATOM     12  C   UNL     1      33.008 -13.029 -23.370  0.00  0.00    +0.015 C 
ATOM     13  C   UNL     1      32.179 -12.585 -21.145  0.00  0.00    +0.015 C 
ATOM     14  C   UNL     1      32.972 -14.399 -23.109  0.00  0.00    +0.001 C 
ATOM     15  C   UNL     1      32.143 -13.955 -20.885  0.00  0.00    +0.001 C 
ATOM     16  C   UNL     1      32.541 -14.862 -21.867  0.00  0.00    +0.000 C 
ENDBRANCH   1  11
BRANCH   2  17
ATOM     17  C   UNL     1      31.076  -7.373 -22.674  0.00  0.00    +0.004 C 
BRANCH  17  18
ATOM     18  C   UNL     1      31.460  -5.940 -22.321  0.00  0.00    -0.023 C 
BRANCH  18  19
ATOM     19  C   UNL     1      30.235  -5.150 -21.868  0.00  0.00    -0.082 C 
BRANCH  19  20
ATOM     20  N   UNL     1      30.421  -3.729 -22.140  0.00  0.00    +0.382 N 
ATOM     21  C   UNL     1      31.305  -3.529 -23.279  0.00  0.00    -0.106 C 
ATOM     22  H   UNL     1      30.828  -3.281 -21.318  0.00  0.00    -0.085 HD
ATOM     23  H   UNL     1      29.513  -3.317 -22.356  0.00  0.00    -0.085 HD
ENDBRANCH  19  20
ENDBRANCH  18  19
ENDBRANCH  17  18
ENDBRANCH   2  17
TORSDOF 5
ENDMDL
MODEL 9
REMARK VINA RESULT:      -7.4      4.511      7.778
REMARK  Name = 31707
REMARK  5 active torsions:
REMARK  status: ('A' for Active; 'I' for Inactive)
REMARK    1  A    between atoms: N_1  and  C_11
REMARK    2  A    between atoms: C_2  and  C_17
REMARK    3  A    between atoms: C_17  and  C_18
REMARK    4  A    between atoms: C_18  and  C_19
REMARK    5  A    between atoms: C_19  and  N_20
REMARK                            x       y       z     vdW  Elec       q    Type
REMARK                         _______ _______ _______ _____ _____    ______ ____
ROOT
ATOM      1  N   UNL     1      32.872 -11.514 -23.162  0.00  0.00    -0.287 N 
ATOM      2  C   UNL     1      32.560  -9.098 -22.941  0.00  0.00    +0.039 C 
ATOM      3  C   UNL     1      33.320 -10.218 -23.710  0.00  0.00    +0.099 C 
ATOM      4  C   UNL     1      32.162  -9.842 -21.695  0.00  0.00    -0.008 C 
ATOM      5  C   UNL     1      32.344 -11.221 -21.883  0.00  0.00    +0.048 C 
ATOM      6  C   UNL     1      31.314  -8.647 -23.714  0.00  0.00    +0.006 C 
ATOM      7  C   UNL     1      31.655  -9.328 -20.508  0.00  0.00    -0.003 C 
ATOM      8  C   UNL     1      32.042 -12.098 -20.850  0.00  0.00    +0.015 C 
ATOM      9  C   UNL     1      31.340 -10.214 -19.480  0.00  0.00    -0.000 C 
ATOM     10  C   UNL     1      31.536 -11.590 -19.649  0.00  0.00    +0.001 C 
ENDROOT
BRANCH   1  11
ATOM     11  C   UNL     1      33.080 -12.710 -23.855  0.00  0.00    +0.052 C 
ATOM     12  C   UNL     1      33.063 -12.752 -25.267  0.00  0.00    +0.015 C 
ATOM     13  C   UNL     1      33.316 -13.921 -23.167  0.00  0.00    +0.015 C 
ATOM     14  C   UNL     1      33.270 -13.946 -25.956  0.00  0.00    +0.001 C 
ATOM     15  C   UNL     1      33.524 -15.115 -23.858  0.00  0.00    +0.001 C 
ATOM     16  C   UNL     1      33.501 -15.127 -25.253  0.00  0.00    +0.000 C 
ENDBRANCH   1  11
BRANCH   2  17
ATOM     17  C   UNL     1      33.476  -7.905 -22.662  0.00  0.00    +0.004 C 
BRANCH  17  18
ATOM     18  C   UNL     1      34.681  -7.910 -23.595  0.00  0.00    -0.023 C 
BRANCH  18  19
ATOM     19  C   UNL     1      34.517  -6.861 -24.693  0.00  0.00    -0.082 C 
BRANCH  19  20
ATOM     20  N   UNL     1      33.308  -6.077 -24.468  0.00  0.00    +0.382 N 
ATOM     21  C   UNL     1      32.947  -5.325 -25.661  0.00  0.00    -0.106 C 
ATOM     22  H   UNL     1      33.470  -5.426 -23.699  0.00  0.00    -0.085 HD
ATOM     23  H   UNL     1      32.545  -6.714 -24.241  0.00  0.00    -0.085 HD
ENDBRANCH  19  20
ENDBRANCH  18  19
ENDBRANCH  17  18
ENDBRANCH   2  17
TORSDOF 5
ENDMDL
