MODEL 1
REMARK VINA RESULT:      -6.2      0.000      0.000
REMARK  Name = 446140
REMARK  4 active torsions:
REMARK  status: ('A' for Active; 'I' for Inactive)
REMARK    1  A    between atoms: C_1  and  O_7
REMARK    2  A    between atoms: C_2  and  O_9
REMARK    3  A    between atoms: C_4  and  O_11
REMARK    4  A    between atoms: O_11  and  O_12
REMARK                            x       y       z     vdW  Elec       q    Type
REMARK                         _______ _______ _______ _____ _____    ______ ____
ROOT
ATOM      1  C   UNL     1      35.124 -21.256 -19.620  0.00  0.00    +0.175 C 
ATOM      2  C   UNL     1      33.758 -21.100 -19.852  0.00  0.00    +0.168 C 
ATOM      3  C   UNL     1      36.038 -20.398 -20.232  0.00  0.00    +0.081 C 
ATOM      4  C   UNL     1      35.584 -19.382 -21.075  0.00  0.00    +0.186 C 
ATOM      5  C   UNL     1      33.304 -20.086 -20.694  0.00  0.00    +0.043 C 
ATOM      6  C   UNL     1      34.218 -19.227 -21.306  0.00  0.00    +0.044 C 
ENDROOT
BRANCH   1   7
ATOM      7  O   UNL     1      35.580 -22.242 -18.798  0.00  0.00    -0.468 OA
ATOM      8  C   UNL     1      36.555 -21.874 -17.823  0.00  0.00    +0.253 C 
ENDBRANCH   1   7
BRANCH   2   9
ATOM      9  O   UNL     1      32.855 -21.931 -19.259  0.00  0.00    -0.503 OA
ATOM     10  H   UNL     1      33.153 -22.640 -18.722  0.00  0.00    +0.292 HD
ENDBRANCH   2   9
BRANCH   4  11
ATOM     11  O   UNL     1      36.476 -18.544 -21.671  0.00  0.00    -0.337 OA
BRANCH  11  12
ATOM     12  O   UNL     1      36.070 -18.328 -23.054  0.00  0.00    -0.201 OA
ATOM     13  H   UNL     1      36.617 -18.874 -23.640  0.00  0.00    +0.267 HD
ENDBRANCH  11  12
ENDBRANCH   4  11
TORSDOF 4
ENDMDL
MODEL 2
REMARK VINA RESULT:      -6.1      5.757      8.733
REMARK  Name = 446140
REMARK  4 active torsions:
REMARK  status: ('A' for Active; 'I' for Inactive)
REMARK    1  A    between atoms: C_1  and  O_7
REMARK    2  A    between atoms: C_2  and  O_9
REMARK    3  A    between atoms: C_4  and  O_11
REMARK    4  A    between atoms: O_11  and  O_12
REMARK                            x       y       z     vdW  Elec       q    Type
REMARK                         _______ _______ _______ _____ _____    ______ ____
ROOT
ATOM      1  C   UNL     1      36.687 -24.447 -14.693  0.00  0.00    +0.175 C 
ATOM      2  C   UNL     1      36.688 -25.827 -14.501  0.00  0.00    +0.168 C 
ATOM      3  C   UNL     1      37.279 -23.610 -13.746  0.00  0.00    +0.081 C 
ATOM      4  C   UNL     1      37.871 -24.156 -12.607  0.00  0.00    +0.186 C 
ATOM      5  C   UNL     1      37.280 -26.373 -13.363  0.00  0.00    +0.043 C 
ATOM      6  C   UNL     1      37.871 -25.538 -12.415  0.00  0.00    +0.044 C 
ENDROOT
BRANCH   1   7
ATOM      7  O   UNL     1      36.115 -23.901 -15.802  0.00  0.00    -0.468 OA
ATOM      8  C   UNL     1      36.598 -22.625 -16.220  0.00  0.00    +0.253 C 
ENDBRANCH   1   7
BRANCH   2   9
ATOM      9  O   UNL     1      36.115 -26.655 -15.420  0.00  0.00    -0.503 OA
ATOM     10  H   UNL     1      35.710 -26.296 -16.185  0.00  0.00    +0.292 HD
ENDBRANCH   2   9
BRANCH   4  11
ATOM     11  O   UNL     1      38.449 -23.340 -11.683  0.00  0.00    -0.337 OA
BRANCH  11  12
ATOM     12  O   UNL     1      37.465 -22.363 -11.234  0.00  0.00    -0.201 OA
ATOM     13  H   UNL     1      36.877 -22.774 -10.580  0.00  0.00    +0.267 HD
ENDBRANCH  11  12
ENDBRANCH   4  11
TORSDOF 4
ENDMDL
MODEL 3
REMARK VINA RESULT:      -6.1      3.391      5.018
REMARK  Name = 446140
REMARK  4 active torsions:
REMARK  status: ('A' for Active; 'I' for Inactive)
REMARK    1  A    between atoms: C_1  and  O_7
REMARK    2  A    between atoms: C_2  and  O_9
REMARK    3  A    between atoms: C_4  and  O_11
REMARK    4  A    between atoms: O_11  and  O_12
REMARK                            x       y       z     vdW  Elec       q    Type
REMARK                         _______ _______ _______ _____ _____    ______ ____
ROOT
ATOM      1  C   UNL     1      34.910 -16.895 -22.238  0.00  0.00    +0.175 C 
ATOM      2  C   UNL     1      34.824 -18.267 -22.010  0.00  0.00    +0.168 C 
ATOM      3  C   UNL     1      34.929 -16.405 -23.545  0.00  0.00    +0.081 C 
ATOM      4  C   UNL     1      34.860 -17.289 -24.622  0.00  0.00    +0.186 C 
ATOM      5  C   UNL     1      34.755 -19.151 -23.086  0.00  0.00    +0.043 C 
ATOM      6  C   UNL     1      34.773 -18.662 -24.393  0.00  0.00    +0.044 C 
ENDROOT
BRANCH   1   7
ATOM      7  O   UNL     1      34.976 -16.021 -21.196  0.00  0.00    -0.468 OA
ATOM      8  C   UNL     1      34.311 -14.769 -21.356  0.00  0.00    +0.253 C 
ENDBRANCH   1   7
BRANCH   2   9
ATOM      9  O   UNL     1      34.803 -18.758 -20.738  0.00  0.00    -0.503 OA
ATOM     10  H   UNL     1      35.589 -19.089 -20.351  0.00  0.00    +0.292 HD
ENDBRANCH   2   9
BRANCH   4  11
ATOM     11  O   UNL     1      34.877 -16.811 -25.896  0.00  0.00    -0.337 OA
BRANCH  11  12
ATOM     12  O   UNL     1      33.694 -15.986 -26.107  0.00  0.00    -0.201 OA
ATOM     13  H   UNL     1      33.318 -15.734 -25.248  0.00  0.00    +0.267 HD
ENDBRANCH  11  12
ENDBRANCH   4  11
TORSDOF 4
ENDMDL
MODEL 4
REMARK VINA RESULT:      -6.1      7.929      8.701
REMARK  Name = 446140
REMARK  4 active torsions:
REMARK  status: ('A' for Active; 'I' for Inactive)
REMARK    1  A    between atoms: C_1  and  O_7
REMARK    2  A    between atoms: C_2  and  O_9
REMARK    3  A    between atoms: C_4  and  O_11
REMARK    4  A    between atoms: O_11  and  O_12
REMARK                            x       y       z     vdW  Elec       q    Type
REMARK                         _______ _______ _______ _____ _____    ______ ____
ROOT
ATOM      1  C   UNL     1      38.082 -25.867 -14.375  0.00  0.00    +0.175 C 
ATOM      2  C   UNL     1      36.912 -26.061 -15.108  0.00  0.00    +0.168 C 
ATOM      3  C   UNL     1      38.144 -24.856 -13.414  0.00  0.00    +0.081 C 
ATOM      4  C   UNL     1      37.034 -24.042 -13.187  0.00  0.00    +0.186 C 
ATOM      5  C   UNL     1      35.803 -25.247 -14.881  0.00  0.00    +0.043 C 
ATOM      6  C   UNL     1      35.864 -24.236 -13.921  0.00  0.00    +0.044 C 
ENDROOT
BRANCH   1   7
ATOM      7  O   UNL     1      39.171 -26.656 -14.585  0.00  0.00    -0.468 OA
ATOM      8  C   UNL     1      40.449 -26.024 -14.544  0.00  0.00    +0.253 C 
ENDBRANCH   1   7
BRANCH   2   9
ATOM      9  O   UNL     1      36.838 -27.045 -16.048  0.00  0.00    -0.503 OA
ATOM     10  H   UNL     1      36.030 -27.207 -16.494  0.00  0.00    +0.292 HD
ENDBRANCH   2   9
BRANCH   4  11
ATOM     11  O   UNL     1      37.094 -23.057 -12.249  0.00  0.00    -0.337 OA
BRANCH  11  12
ATOM     12  O   UNL     1      38.433 -23.034 -11.673  0.00  0.00    -0.201 OA
ATOM     13  H   UNL     1      39.068 -22.732 -12.342  0.00  0.00    +0.267 HD
ENDBRANCH  11  12
ENDBRANCH   4  11
TORSDOF 4
ENDMDL
MODEL 5
REMARK VINA RESULT:      -6.1      3.492      5.822
REMARK  Name = 446140
REMARK  4 active torsions:
REMARK  status: ('A' for Active; 'I' for Inactive)
REMARK    1  A    between atoms: C_1  and  O_7
REMARK    2  A    between atoms: C_2  and  O_9
REMARK    3  A    between atoms: C_4  and  O_11
REMARK    4  A    between atoms: O_11  and  O_12
REMARK                            x       y       z     vdW  Elec       q    Type
REMARK                         _______ _______ _______ _____ _____    ______ ____
ROOT
ATOM      1  C   UNL     1      34.914 -16.424 -23.645  0.00  0.00    +0.175 C 
ATOM      2  C   UNL     1      34.556 -16.998 -24.864  0.00  0.00    +0.168 C 
ATOM      3  C   UNL     1      35.219 -17.239 -22.553  0.00  0.00    +0.081 C 
ATOM      4  C   UNL     1      35.165 -18.627 -22.683  0.00  0.00    +0.186 C 
ATOM      5  C   UNL     1      34.502 -18.385 -24.993  0.00  0.00    +0.043 C 
ATOM      6  C   UNL     1      34.806 -19.200 -23.903  0.00  0.00    +0.044 C 
ENDROOT
BRANCH   1   7
ATOM      7  O   UNL     1      34.973 -15.071 -23.506  0.00  0.00    -0.468 OA
ATOM      8  C   UNL     1      34.312 -14.506 -22.375  0.00  0.00    +0.253 C 
ENDBRANCH   1   7
BRANCH   2   9
ATOM      9  O   UNL     1      34.257 -16.214 -25.938  0.00  0.00    -0.503 OA
ATOM     10  H   UNL     1      33.396 -15.857 -26.032  0.00  0.00    +0.292 HD
ENDBRANCH   2   9
BRANCH   4  11
ATOM     11  O   UNL     1      35.464 -19.421 -21.619  0.00  0.00    -0.337 OA
BRANCH  11  12
ATOM     12  O   UNL     1      35.981 -18.590 -20.539  0.00  0.00    -0.201 OA
ATOM     13  H   UNL     1      36.835 -18.211 -20.804  0.00  0.00    +0.267 HD
ENDBRANCH  11  12
ENDBRANCH   4  11
TORSDOF 4
ENDMDL
MODEL 6
REMARK VINA RESULT:      -6.1      3.329      4.855
REMARK  Name = 446140
REMARK  4 active torsions:
REMARK  status: ('A' for Active; 'I' for Inactive)
REMARK    1  A    between atoms: C_1  and  O_7
REMARK    2  A    between atoms: C_2  and  O_9
REMARK    3  A    between atoms: C_4  and  O_11
REMARK    4  A    between atoms: O_11  and  O_12
REMARK                            x       y       z     vdW  Elec       q    Type
REMARK                         _______ _______ _______ _____ _____    ______ ____
ROOT
ATOM      1  C   UNL     1      35.155 -17.237 -21.803  0.00  0.00    +0.175 C 
ATOM      2  C   UNL     1      34.799 -15.939 -21.438  0.00  0.00    +0.168 C 
ATOM      3  C   UNL     1      35.132 -17.614 -23.147  0.00  0.00    +0.081 C 
ATOM      4  C   UNL     1      34.753 -16.693 -24.123  0.00  0.00    +0.186 C 
ATOM      5  C   UNL     1      34.420 -15.018 -22.413  0.00  0.00    +0.043 C 
ATOM      6  C   UNL     1      34.396 -15.395 -23.756  0.00  0.00    +0.044 C 
ENDROOT
BRANCH   1   7
ATOM      7  O   UNL     1      35.530 -18.145 -20.860  0.00  0.00    -0.468 OA
ATOM      8  C   UNL     1      34.971 -19.454 -20.963  0.00  0.00    +0.253 C 
ENDBRANCH   1   7
BRANCH   2   9
ATOM      9  O   UNL     1      34.820 -15.558 -20.129  0.00  0.00    -0.503 OA
ATOM     10  H   UNL     1      34.680 -14.660 -19.901  0.00  0.00    +0.292 HD
ENDBRANCH   2   9
BRANCH   4  11
ATOM     11  O   UNL     1      34.731 -17.060 -25.434  0.00  0.00    -0.337 OA
BRANCH  11  12
ATOM     12  O   UNL     1      33.924 -16.102 -26.180  0.00  0.00    -0.201 OA
ATOM     13  H   UNL     1      34.507 -15.508 -26.678  0.00  0.00    +0.267 HD
ENDBRANCH  11  12
ENDBRANCH   4  11
TORSDOF 4
ENDMDL
MODEL 7
REMARK VINA RESULT:      -6.0      7.425      9.406
REMARK  Name = 446140
REMARK  4 active torsions:
REMARK  status: ('A' for Active; 'I' for Inactive)
REMARK    1  A    between atoms: C_1  and  O_7
REMARK    2  A    between atoms: C_2  and  O_9
REMARK    3  A    between atoms: C_4  and  O_11
REMARK    4  A    between atoms: O_11  and  O_12
REMARK                            x       y       z     vdW  Elec       q    Type
REMARK                         _______ _______ _______ _____ _____    ______ ____
ROOT
ATOM      1  C   UNL     1      37.831 -24.381 -13.595  0.00  0.00    +0.175 C 
ATOM      2  C   UNL     1      36.639 -24.461 -14.314  0.00  0.00    +0.168 C 
ATOM      3  C   UNL     1      37.799 -24.220 -12.209  0.00  0.00    +0.081 C 
ATOM      4  C   UNL     1      36.576 -24.139 -11.544  0.00  0.00    +0.186 C 
ATOM      5  C   UNL     1      35.416 -24.381 -13.650  0.00  0.00    +0.043 C 
ATOM      6  C   UNL     1      35.384 -24.219 -12.264  0.00  0.00    +0.044 C 
ENDROOT
BRANCH   1   7
ATOM      7  O   UNL     1      39.032 -24.461 -14.231  0.00  0.00    -0.468 OA
ATOM      8  C   UNL     1      39.873 -25.562 -13.893  0.00  0.00    +0.253 C 
ENDBRANCH   1   7
BRANCH   2   9
ATOM      9  O   UNL     1      36.656 -24.621 -15.667  0.00  0.00    -0.503 OA
ATOM     10  H   UNL     1      35.950 -25.064 -16.095  0.00  0.00    +0.292 HD
ENDBRANCH   2   9
BRANCH   4  11
ATOM     11  O   UNL     1      36.545 -23.983 -10.192  0.00  0.00    -0.337 OA
BRANCH  11  12
ATOM     12  O   UNL     1      35.321 -24.583  -9.675  0.00  0.00    -0.201 OA
ATOM     13  H   UNL     1      35.463 -24.866  -8.757  0.00  0.00    +0.267 HD
ENDBRANCH  11  12
ENDBRANCH   4  11
TORSDOF 4
ENDMDL
MODEL 8
REMARK VINA RESULT:      -6.0      1.336      4.568
REMARK  Name = 446140
REMARK  4 active torsions:
REMARK  status: ('A' for Active; 'I' for Inactive)
REMARK    1  A    between atoms: C_1  and  O_7
REMARK    2  A    between atoms: C_2  and  O_9
REMARK    3  A    between atoms: C_4  and  O_11
REMARK    4  A    between atoms: O_11  and  O_12
REMARK                            x       y       z     vdW  Elec       q    Type
REMARK                         _______ _______ _______ _____ _____    ______ ____
ROOT
ATOM      1  C   UNL     1      34.821 -19.790 -20.806  0.00  0.00    +0.175 C 
ATOM      2  C   UNL     1      36.126 -20.066 -20.399  0.00  0.00    +0.168 C 
ATOM      3  C   UNL     1      33.766 -20.581 -20.350  0.00  0.00    +0.081 C 
ATOM      4  C   UNL     1      34.017 -21.647 -19.485  0.00  0.00    +0.186 C 
ATOM      5  C   UNL     1      36.377 -21.131 -19.535  0.00  0.00    +0.043 C 
ATOM      6  C   UNL     1      35.323 -21.923 -19.078  0.00  0.00    +0.044 C 
ENDROOT
BRANCH   1   7
ATOM      7  O   UNL     1      34.562 -18.752 -21.648  0.00  0.00    -0.468 OA
ATOM      8  C   UNL     1      34.597 -19.026 -23.047  0.00  0.00    +0.253 C 
ENDBRANCH   1   7
BRANCH   2   9
ATOM      9  O   UNL     1      37.165 -19.300 -20.837  0.00  0.00    -0.503 OA
ATOM     10  H   UNL     1      37.935 -19.210 -20.310  0.00  0.00    +0.292 HD
ENDBRANCH   2   9
BRANCH   4  11
ATOM     11  O   UNL     1      32.988 -22.418 -19.038  0.00  0.00    -0.337 OA
BRANCH  11  12
ATOM     12  O   UNL     1      33.528 -23.660 -18.499  0.00  0.00    -0.201 OA
ATOM     13  H   UNL     1      32.910 -24.387 -18.682  0.00  0.00    +0.267 HD
ENDBRANCH  11  12
ENDBRANCH   4  11
TORSDOF 4
ENDMDL
MODEL 9
REMARK VINA RESULT:      -5.9      4.056      6.288
REMARK  Name = 446140
REMARK  4 active torsions:
REMARK  status: ('A' for Active; 'I' for Inactive)
REMARK    1  A    between atoms: C_1  and  O_7
REMARK    2  A    between atoms: C_2  and  O_9
REMARK    3  A    between atoms: C_4  and  O_11
REMARK    4  A    between atoms: O_11  and  O_12
REMARK                            x       y       z     vdW  Elec       q    Type
REMARK                         _______ _______ _______ _____ _____    ______ ____
ROOT
ATOM      1  C   UNL     1      34.300 -15.928 -23.800  0.00  0.00    +0.175 C 
ATOM      2  C   UNL     1      34.655 -17.023 -24.585  0.00  0.00    +0.168 C 
ATOM      3  C   UNL     1      34.530 -15.952 -22.424  0.00  0.00    +0.081 C 
ATOM      4  C   UNL     1      35.116 -17.073 -21.835  0.00  0.00    +0.186 C 
ATOM      5  C   UNL     1      35.241 -18.144 -23.997  0.00  0.00    +0.043 C 
ATOM      6  C   UNL     1      35.471 -18.169 -22.621  0.00  0.00    +0.044 C 
ENDROOT
BRANCH   1   7
ATOM      7  O   UNL     1      33.729 -14.827 -24.362  0.00  0.00    -0.468 OA
ATOM      8  C   UNL     1      33.907 -13.585 -23.683  0.00  0.00    +0.253 C 
ENDBRANCH   1   7
BRANCH   2   9
ATOM      9  O   UNL     1      34.437 -17.011 -25.931  0.00  0.00    -0.503 OA
ATOM     10  H   UNL     1      33.685 -16.574 -26.279  0.00  0.00    +0.292 HD
ENDBRANCH   2   9
BRANCH   4  11
ATOM     11  O   UNL     1      35.342 -17.097 -20.492  0.00  0.00    -0.337 OA
BRANCH  11  12
ATOM     12  O   UNL     1      34.986 -15.799 -19.931  0.00  0.00    -0.201 OA
ATOM     13  H   UNL     1      34.979 -15.133 -20.636  0.00  0.00    +0.267 HD
ENDBRANCH  11  12
ENDBRANCH   4  11
TORSDOF 4
ENDMDL
