MODEL 1
REMARK VINA RESULT:      -7.1      0.000      0.000
REMARK  Name = 4086
REMARK  7 active torsions:
REMARK  status: ('A' for Active; 'I' for Inactive)
REMARK    1  A    between atoms: C_1  and  C_2
REMARK    2  A    between atoms: C_1  and  O_12
REMARK    3  A    between atoms: C_1  and  C_14
REMARK    4  A    between atoms: C_5  and  O_8
REMARK    5  A    between atoms: C_6  and  O_10
REMARK    6  A    between atoms: C_14  and  N_15
REMARK    7  A    between atoms: N_15  and  C_18
REMARK                            x       y       z     vdW  Elec       q    Type
REMARK                         _______ _______ _______ _____ _____    ______ ____
ROOT
ATOM      1  C   UNL     1      36.006 -17.954 -21.909  0.00  0.00    +0.112 C 
ENDROOT
BRANCH   1   2
ATOM      2  C   UNL     1      35.527 -19.141 -21.102  0.00  0.00    +0.008 C 
ATOM      3  C   UNL     1      34.182 -19.467 -21.114  0.00  0.00    +0.035 C 
ATOM      4  C   UNL     1      36.444 -19.875 -20.370  0.00  0.00    +0.035 C 
ATOM      5  C   UNL     1      36.002 -20.969 -19.626  0.00  0.00    +0.136 C 
ATOM      6  C   UNL     1      33.740 -20.561 -20.370  0.00  0.00    +0.136 C 
ATOM      7  C   UNL     1      34.651 -21.312 -19.626  0.00  0.00    +0.073 C 
BRANCH   5   8
ATOM      8  O   UNL     1      36.891 -21.702 -18.900  0.00  0.00    -0.505 OA
ATOM      9  H   UNL     1      36.630 -22.520 -18.528  0.00  0.00    +0.292 HD
ENDBRANCH   5   8
BRANCH   6  10
ATOM     10  O   UNL     1      32.421 -20.898 -20.371  0.00  0.00    -0.505 OA
ATOM     11  H   UNL     1      32.045 -21.322 -19.625  0.00  0.00    +0.292 HD
ENDBRANCH   6  10
ENDBRANCH   1   2
BRANCH   1  12
ATOM     12  O   UNL     1      37.083 -18.385 -22.741  0.00  0.00    -0.382 OA
ATOM     13  H   UNL     1      36.796 -19.144 -23.273  0.00  0.00    +0.211 HD
ENDBRANCH   1  12
BRANCH   1  14
ATOM     14  C   UNL     1      34.878 -17.363 -22.763  0.00  0.00    -0.047 C 
BRANCH  14  15
ATOM     15  N   UNL     1      35.415 -16.508 -23.811  0.00  0.00    +0.387 N 
ATOM     16  H   UNL     1      36.427 -16.631 -23.857  0.00  0.00    -0.084 HD
ATOM     17  H   UNL     1      35.185 -15.539 -23.592  0.00  0.00    -0.084 HD
BRANCH  15  18
ATOM     18  C   UNL     1      34.831 -16.849 -25.108  0.00  0.00    -0.062 C 
ATOM     19  C   UNL     1      33.717 -15.867 -25.459  0.00  0.00    -0.023 C 
ATOM     20  C   UNL     1      34.309 -18.281 -25.069  0.00  0.00    -0.023 C 
ENDBRANCH  15  18
ENDBRANCH  14  15
ENDBRANCH   1  14
TORSDOF 7
ENDMDL
MODEL 2
REMARK VINA RESULT:      -7.1      2.614      5.926
REMARK  Name = 4086
REMARK  7 active torsions:
REMARK  status: ('A' for Active; 'I' for Inactive)
REMARK    1  A    between atoms: C_1  and  C_2
REMARK    2  A    between atoms: C_1  and  O_12
REMARK    3  A    between atoms: C_1  and  C_14
REMARK    4  A    between atoms: C_5  and  O_8
REMARK    5  A    between atoms: C_6  and  O_10
REMARK    6  A    between atoms: C_14  and  N_15
REMARK    7  A    between atoms: N_15  and  C_18
REMARK                            x       y       z     vdW  Elec       q    Type
REMARK                         _______ _______ _______ _____ _____    ______ ____
ROOT
ATOM      1  C   UNL     1      35.381 -18.473 -23.454  0.00  0.00    +0.112 C 
ENDROOT
BRANCH   1   2
ATOM      2  C   UNL     1      34.757 -17.144 -23.822  0.00  0.00    +0.008 C 
ATOM      3  C   UNL     1      34.327 -16.937 -25.121  0.00  0.00    +0.035 C 
ATOM      4  C   UNL     1      34.631 -16.165 -22.851  0.00  0.00    +0.035 C 
ATOM      5  C   UNL     1      34.056 -14.941 -23.191  0.00  0.00    +0.136 C 
ATOM      6  C   UNL     1      33.752 -15.712 -25.460  0.00  0.00    +0.136 C 
ATOM      7  C   UNL     1      33.617 -14.714 -24.494  0.00  0.00    +0.073 C 
BRANCH   5   8
ATOM      8  O   UNL     1      33.925 -13.967 -22.249  0.00  0.00    -0.505 OA
ATOM      9  H   UNL     1      33.094 -13.558 -22.110  0.00  0.00    +0.292 HD
ENDBRANCH   5   8
BRANCH   6  10
ATOM     10  O   UNL     1      33.320 -15.491 -26.732  0.00  0.00    -0.505 OA
ATOM     11  H   UNL     1      33.201 -14.614 -27.041  0.00  0.00    +0.292 HD
ENDBRANCH   6  10
ENDBRANCH   1   2
BRANCH   1  12
ATOM     12  O   UNL     1      36.627 -18.217 -22.806  0.00  0.00    -0.382 OA
ATOM     13  H   UNL     1      36.621 -18.620 -21.924  0.00  0.00    +0.211 HD
ENDBRANCH   1  12
BRANCH   1  14
ATOM     14  C   UNL     1      34.463 -19.290 -22.537  0.00  0.00    -0.047 C 
BRANCH  14  15
ATOM     15  N   UNL     1      35.211 -19.853 -21.423  0.00  0.00    +0.387 N 
ATOM     16  H   UNL     1      35.934 -19.192 -21.137  0.00  0.00    -0.084 HD
ATOM     17  H   UNL     1      35.634 -20.731 -21.725  0.00  0.00    -0.084 HD
BRANCH  15  18
ATOM     18  C   UNL     1      34.329 -20.121 -20.289  0.00  0.00    -0.062 C 
ATOM     19  C   UNL     1      34.681 -21.462 -19.651  0.00  0.00    -0.023 C 
ATOM     20  C   UNL     1      32.878 -20.101 -20.758  0.00  0.00    -0.023 C 
ENDBRANCH  15  18
ENDBRANCH  14  15
ENDBRANCH   1  14
TORSDOF 7
ENDMDL
MODEL 3
REMARK VINA RESULT:      -7.1      2.598      6.050
REMARK  Name = 4086
REMARK  7 active torsions:
REMARK  status: ('A' for Active; 'I' for Inactive)
REMARK    1  A    between atoms: C_1  and  C_2
REMARK    2  A    between atoms: C_1  and  O_12
REMARK    3  A    between atoms: C_1  and  C_14
REMARK    4  A    between atoms: C_5  and  O_8
REMARK    5  A    between atoms: C_6  and  O_10
REMARK    6  A    between atoms: C_14  and  N_15
REMARK    7  A    between atoms: N_15  and  C_18
REMARK                            x       y       z     vdW  Elec       q    Type
REMARK                         _______ _______ _______ _____ _____    ______ ____
ROOT
ATOM      1  C   UNL     1      35.439 -18.501 -23.444  0.00  0.00    +0.112 C 
ENDROOT
BRANCH   1   2
ATOM      2  C   UNL     1      34.818 -17.173 -23.818  0.00  0.00    +0.008 C 
ATOM      3  C   UNL     1      34.745 -16.169 -22.868  0.00  0.00    +0.035 C 
ATOM      4  C   UNL     1      34.336 -16.991 -25.103  0.00  0.00    +0.035 C 
ATOM      5  C   UNL     1      33.763 -15.766 -25.447  0.00  0.00    +0.136 C 
ATOM      6  C   UNL     1      34.173 -14.945 -23.213  0.00  0.00    +0.136 C 
ATOM      7  C   UNL     1      33.682 -14.744 -24.503  0.00  0.00    +0.073 C 
BRANCH   5   8
ATOM      8  O   UNL     1      33.284 -15.570 -26.707  0.00  0.00    -0.505 OA
ATOM      9  H   UNL     1      33.840 -15.710 -27.447  0.00  0.00    +0.292 HD
ENDBRANCH   5   8
BRANCH   6  10
ATOM     10  O   UNL     1      34.095 -13.946 -22.291  0.00  0.00    -0.505 OA
ATOM     11  H   UNL     1      33.545 -14.044 -21.538  0.00  0.00    +0.292 HD
ENDBRANCH   6  10
ENDBRANCH   1   2
BRANCH   1  12
ATOM     12  O   UNL     1      36.676 -18.245 -22.781  0.00  0.00    -0.382 OA
ATOM     13  H   UNL     1      36.607 -18.515 -21.851  0.00  0.00    +0.211 HD
ENDBRANCH   1  12
BRANCH   1  14
ATOM     14  C   UNL     1      34.509 -19.320 -22.538  0.00  0.00    -0.047 C 
BRANCH  14  15
ATOM     15  N   UNL     1      35.234 -19.844 -21.391  0.00  0.00    +0.387 N 
ATOM     16  H   UNL     1      35.932 -19.161 -21.095  0.00  0.00    -0.084 HD
ATOM     17  H   UNL     1      35.687 -20.717 -21.662  0.00  0.00    -0.084 HD
BRANCH  15  18
ATOM     18  C   UNL     1      34.323 -20.112 -20.280  0.00  0.00    -0.062 C 
ATOM     19  C   UNL     1      34.636 -21.469 -19.656  0.00  0.00    -0.023 C 
ATOM     20  C   UNL     1      32.884 -20.057 -20.780  0.00  0.00    -0.023 C 
ENDBRANCH  15  18
ENDBRANCH  14  15
ENDBRANCH   1  14
TORSDOF 7
ENDMDL
MODEL 4
REMARK VINA RESULT:      -7.0      3.235      6.353
REMARK  Name = 4086
REMARK  7 active torsions:
REMARK  status: ('A' for Active; 'I' for Inactive)
REMARK    1  A    between atoms: C_1  and  C_2
REMARK    2  A    between atoms: C_1  and  O_12
REMARK    3  A    between atoms: C_1  and  C_14
REMARK    4  A    between atoms: C_5  and  O_8
REMARK    5  A    between atoms: C_6  and  O_10
REMARK    6  A    between atoms: C_14  and  N_15
REMARK    7  A    between atoms: N_15  and  C_18
REMARK                            x       y       z     vdW  Elec       q    Type
REMARK                         _______ _______ _______ _____ _____    ______ ____
ROOT
ATOM      1  C   UNL     1      34.941 -16.463 -21.530  0.00  0.00    +0.112 C 
ENDROOT
BRANCH   1   2
ATOM      2  C   UNL     1      34.199 -15.680 -22.591  0.00  0.00    +0.008 C 
ATOM      3  C   UNL     1      34.368 -16.018 -23.922  0.00  0.00    +0.035 C 
ATOM      4  C   UNL     1      33.368 -14.642 -22.207  0.00  0.00    +0.035 C 
ATOM      5  C   UNL     1      32.684 -13.920 -23.185  0.00  0.00    +0.136 C 
ATOM      6  C   UNL     1      33.684 -15.296 -24.901  0.00  0.00    +0.136 C 
ATOM      7  C   UNL     1      32.842 -14.246 -24.531  0.00  0.00    +0.073 C 
BRANCH   5   8
ATOM      8  O   UNL     1      31.862 -12.896 -22.825  0.00  0.00    -0.505 OA
ATOM      9  H   UNL     1      31.466 -12.889 -21.976  0.00  0.00    +0.292 HD
ENDBRANCH   5   8
BRANCH   6  10
ATOM     10  O   UNL     1      33.836 -15.616 -26.215  0.00  0.00    -0.505 OA
ATOM     11  H   UNL     1      33.107 -15.940 -26.706  0.00  0.00    +0.292 HD
ENDBRANCH   6  10
ENDBRANCH   1   2
BRANCH   1  12
ATOM     12  O   UNL     1      34.933 -15.700 -20.324  0.00  0.00    -0.382 OA
ATOM     13  H   UNL     1      35.721 -15.913 -19.801  0.00  0.00    +0.211 HD
ENDBRANCH   1  12
BRANCH   1  14
ATOM     14  C   UNL     1      34.300 -17.837 -21.294  0.00  0.00    -0.047 C 
BRANCH  14  15
ATOM     15  N   UNL     1      35.267 -18.771 -20.739  0.00  0.00    +0.387 N 
ATOM     16  H   UNL     1      35.457 -18.519 -19.769  0.00  0.00    -0.084 HD
ATOM     17  H   UNL     1      36.123 -18.723 -21.293  0.00  0.00    -0.084 HD
BRANCH  15  18
ATOM     18  C   UNL     1      34.752 -20.139 -20.788  0.00  0.00    -0.062 C 
ATOM     19  C   UNL     1      33.264 -20.156 -20.450  0.00  0.00    -0.023 C 
ATOM     20  C   UNL     1      35.544 -21.013 -19.821  0.00  0.00    -0.023 C 
ENDBRANCH  15  18
ENDBRANCH  14  15
ENDBRANCH   1  14
TORSDOF 7
ENDMDL
MODEL 5
REMARK VINA RESULT:      -7.0      3.227      6.247
REMARK  Name = 4086
REMARK  7 active torsions:
REMARK  status: ('A' for Active; 'I' for Inactive)
REMARK    1  A    between atoms: C_1  and  C_2
REMARK    2  A    between atoms: C_1  and  O_12
REMARK    3  A    between atoms: C_1  and  C_14
REMARK    4  A    between atoms: C_5  and  O_8
REMARK    5  A    between atoms: C_6  and  O_10
REMARK    6  A    between atoms: C_14  and  N_15
REMARK    7  A    between atoms: N_15  and  C_18
REMARK                            x       y       z     vdW  Elec       q    Type
REMARK                         _______ _______ _______ _____ _____    ______ ____
ROOT
ATOM      1  C   UNL     1      34.957 -16.458 -21.517  0.00  0.00    +0.112 C 
ENDROOT
BRANCH   1   2
ATOM      2  C   UNL     1      34.211 -15.684 -22.582  0.00  0.00    +0.008 C 
ATOM      3  C   UNL     1      33.376 -14.648 -22.204  0.00  0.00    +0.035 C 
ATOM      4  C   UNL     1      34.382 -16.030 -23.912  0.00  0.00    +0.035 C 
ATOM      5  C   UNL     1      33.694 -15.316 -24.893  0.00  0.00    +0.136 C 
ATOM      6  C   UNL     1      32.688 -13.934 -23.186  0.00  0.00    +0.136 C 
ATOM      7  C   UNL     1      32.848 -14.269 -24.531  0.00  0.00    +0.073 C 
BRANCH   5   8
ATOM      8  O   UNL     1      33.850 -15.642 -26.206  0.00  0.00    -0.505 OA
ATOM      9  H   UNL     1      33.116 -15.611 -26.787  0.00  0.00    +0.292 HD
ENDBRANCH   5   8
BRANCH   6  10
ATOM     10  O   UNL     1      31.863 -12.911 -22.832  0.00  0.00    -0.505 OA
ATOM     11  H   UNL     1      30.974 -13.086 -22.595  0.00  0.00    +0.292 HD
ENDBRANCH   6  10
ENDBRANCH   1   2
BRANCH   1  12
ATOM     12  O   UNL     1      34.907 -15.710 -20.303  0.00  0.00    -0.382 OA
ATOM     13  H   UNL     1      33.986 -15.481 -20.101  0.00  0.00    +0.211 HD
ENDBRANCH   1  12
BRANCH   1  14
ATOM     14  C   UNL     1      34.350 -17.851 -21.307  0.00  0.00    -0.047 C 
BRANCH  14  15
ATOM     15  N   UNL     1      35.338 -18.770 -20.763  0.00  0.00    +0.387 N 
ATOM     16  H   UNL     1      35.545 -18.506 -19.799  0.00  0.00    -0.084 HD
ATOM     17  H   UNL     1      36.182 -18.717 -21.333  0.00  0.00    -0.084 HD
BRANCH  15  18
ATOM     18  C   UNL     1      34.838 -20.144 -20.788  0.00  0.00    -0.062 C 
ATOM     19  C   UNL     1      33.348 -20.170 -20.459  0.00  0.00    -0.023 C 
ATOM     20  C   UNL     1      35.633 -20.992 -19.801  0.00  0.00    -0.023 C 
ENDBRANCH  15  18
ENDBRANCH  14  15
ENDBRANCH   1  14
TORSDOF 7
ENDMDL
MODEL 6
REMARK VINA RESULT:      -7.0      1.777      3.195
REMARK  Name = 4086
REMARK  7 active torsions:
REMARK  status: ('A' for Active; 'I' for Inactive)
REMARK    1  A    between atoms: C_1  and  C_2
REMARK    2  A    between atoms: C_1  and  O_12
REMARK    3  A    between atoms: C_1  and  C_14
REMARK    4  A    between atoms: C_5  and  O_8
REMARK    5  A    between atoms: C_6  and  O_10
REMARK    6  A    between atoms: C_14  and  N_15
REMARK    7  A    between atoms: N_15  and  C_18
REMARK                            x       y       z     vdW  Elec       q    Type
REMARK                         _______ _______ _______ _____ _____    ______ ____
ROOT
ATOM      1  C   UNL     1      35.913 -17.977 -22.124  0.00  0.00    +0.112 C 
ENDROOT
BRANCH   1   2
ATOM      2  C   UNL     1      35.471 -19.137 -21.260  0.00  0.00    +0.008 C 
ATOM      3  C   UNL     1      36.411 -19.812 -20.502  0.00  0.00    +0.035 C 
ATOM      4  C   UNL     1      34.135 -19.500 -21.249  0.00  0.00    +0.035 C 
ATOM      5  C   UNL     1      33.727 -20.570 -20.452  0.00  0.00    +0.136 C 
ATOM      6  C   UNL     1      36.003 -20.882 -19.705  0.00  0.00    +0.136 C 
ATOM      7  C   UNL     1      34.661 -21.261 -19.681  0.00  0.00    +0.073 C 
BRANCH   5   8
ATOM      8  O   UNL     1      32.417 -20.940 -20.429  0.00  0.00    -0.505 OA
ATOM      9  H   UNL     1      32.064 -21.461 -21.123  0.00  0.00    +0.292 HD
ENDBRANCH   5   8
BRANCH   6  10
ATOM     10  O   UNL     1      36.915 -21.555 -18.951  0.00  0.00    -0.505 OA
ATOM     11  H   UNL     1      37.280 -22.360 -19.264  0.00  0.00    +0.292 HD
ENDBRANCH   6  10
ENDBRANCH   1   2
BRANCH   1  12
ATOM     12  O   UNL     1      36.083 -18.452 -23.459  0.00  0.00    -0.382 OA
ATOM     13  H   UNL     1      35.470 -19.186 -23.621  0.00  0.00    +0.211 HD
ENDBRANCH   1  12
BRANCH   1  14
ATOM     14  C   UNL     1      34.892 -16.833 -22.094  0.00  0.00    -0.047 C 
BRANCH  14  15
ATOM     15  N   UNL     1      34.891 -16.173 -20.798  0.00  0.00    +0.387 N 
ATOM     16  H   UNL     1      35.854 -16.055 -20.482  0.00  0.00    -0.084 HD
ATOM     17  H   UNL     1      34.370 -16.751 -20.138  0.00  0.00    -0.084 HD
BRANCH  15  18
ATOM     18  C   UNL     1      34.249 -14.862 -20.884  0.00  0.00    -0.062 C 
ATOM     19  C   UNL     1      32.807 -14.947 -20.391  0.00  0.00    -0.023 C 
ATOM     20  C   UNL     1      34.308 -14.361 -22.322  0.00  0.00    -0.023 C 
ENDBRANCH  15  18
ENDBRANCH  14  15
ENDBRANCH   1  14
TORSDOF 7
ENDMDL
MODEL 7
REMARK VINA RESULT:      -6.9      1.791      2.365
REMARK  Name = 4086
REMARK  7 active torsions:
REMARK  status: ('A' for Active; 'I' for Inactive)
REMARK    1  A    between atoms: C_1  and  C_2
REMARK    2  A    between atoms: C_1  and  O_12
REMARK    3  A    between atoms: C_1  and  C_14
REMARK    4  A    between atoms: C_5  and  O_8
REMARK    5  A    between atoms: C_6  and  O_10
REMARK    6  A    between atoms: C_14  and  N_15
REMARK    7  A    between atoms: N_15  and  C_18
REMARK                            x       y       z     vdW  Elec       q    Type
REMARK                         _______ _______ _______ _____ _____    ______ ____
ROOT
ATOM      1  C   UNL     1      35.850 -17.900 -22.129  0.00  0.00    +0.112 C 
ENDROOT
BRANCH   1   2
ATOM      2  C   UNL     1      35.442 -19.081 -21.276  0.00  0.00    +0.008 C 
ATOM      3  C   UNL     1      34.106 -19.434 -21.205  0.00  0.00    +0.035 C 
ATOM      4  C   UNL     1      36.415 -19.782 -20.584  0.00  0.00    +0.035 C 
ATOM      5  C   UNL     1      36.038 -20.871 -19.797  0.00  0.00    +0.136 C 
ATOM      6  C   UNL     1      33.730 -20.522 -20.418  0.00  0.00    +0.136 C 
ATOM      7  C   UNL     1      34.697 -21.241 -19.713  0.00  0.00    +0.073 C 
BRANCH   5   8
ATOM      8  O   UNL     1      36.982 -21.572 -19.109  0.00  0.00    -0.505 OA
ATOM      9  H   UNL     1      36.773 -21.946 -18.277  0.00  0.00    +0.292 HD
ENDBRANCH   5   8
BRANCH   6  10
ATOM     10  O   UNL     1      32.420 -20.885 -20.338  0.00  0.00    -0.505 OA
ATOM     11  H   UNL     1      31.904 -20.950 -21.118  0.00  0.00    +0.292 HD
ENDBRANCH   6  10
ENDBRANCH   1   2
BRANCH   1  12
ATOM     12  O   UNL     1      36.031 -18.358 -23.468  0.00  0.00    -0.382 OA
ATOM     13  H   UNL     1      36.903 -18.078 -23.791  0.00  0.00    +0.211 HD
ENDBRANCH   1  12
BRANCH   1  14
ATOM     14  C   UNL     1      34.797 -16.785 -22.086  0.00  0.00    -0.047 C 
BRANCH  14  15
ATOM     15  N   UNL     1      34.904 -16.019 -20.854  0.00  0.00    +0.387 N 
ATOM     16  H   UNL     1      35.883 -15.783 -20.691  0.00  0.00    -0.084 HD
ATOM     17  H   UNL     1      34.543 -16.585 -20.086  0.00  0.00    -0.084 HD
BRANCH  15  18
ATOM     18  C   UNL     1      34.120 -14.788 -20.940  0.00  0.00    -0.062 C 
ATOM     19  C   UNL     1      32.678 -15.050 -20.515  0.00  0.00    -0.023 C 
ATOM     20  C   UNL     1      34.182 -14.245 -22.363  0.00  0.00    -0.023 C 
ENDBRANCH  15  18
ENDBRANCH  14  15
ENDBRANCH   1  14
TORSDOF 7
ENDMDL
MODEL 8
REMARK VINA RESULT:      -6.9      1.298      2.437
REMARK  Name = 4086
REMARK  7 active torsions:
REMARK  status: ('A' for Active; 'I' for Inactive)
REMARK    1  A    between atoms: C_1  and  C_2
REMARK    2  A    between atoms: C_1  and  O_12
REMARK    3  A    between atoms: C_1  and  C_14
REMARK    4  A    between atoms: C_5  and  O_8
REMARK    5  A    between atoms: C_6  and  O_10
REMARK    6  A    between atoms: C_14  and  N_15
REMARK    7  A    between atoms: N_15  and  C_18
REMARK                            x       y       z     vdW  Elec       q    Type
REMARK                         _______ _______ _______ _____ _____    ______ ____
ROOT
ATOM      1  C   UNL     1      34.200 -18.436 -21.661  0.00  0.00    +0.112 C 
ENDROOT
BRANCH   1   2
ATOM      2  C   UNL     1      34.438 -19.658 -20.801  0.00  0.00    +0.008 C 
ATOM      3  C   UNL     1      35.733 -20.106 -20.607  0.00  0.00    +0.035 C 
ATOM      4  C   UNL     1      33.355 -20.303 -20.229  0.00  0.00    +0.035 C 
ATOM      5  C   UNL     1      33.575 -21.430 -19.437  0.00  0.00    +0.136 C 
ATOM      6  C   UNL     1      35.953 -21.233 -19.815  0.00  0.00    +0.136 C 
ATOM      7  C   UNL     1      34.872 -21.895 -19.230  0.00  0.00    +0.073 C 
BRANCH   5   8
ATOM      8  O   UNL     1      32.521 -22.076 -18.866  0.00  0.00    -0.505 OA
ATOM      9  H   UNL     1      31.703 -22.130 -19.319  0.00  0.00    +0.292 HD
ENDBRANCH   5   8
BRANCH   6  10
ATOM     10  O   UNL     1      37.220 -21.686 -19.612  0.00  0.00    -0.505 OA
ATOM     11  H   UNL     1      37.947 -21.101 -19.705  0.00  0.00    +0.292 HD
ENDBRANCH   6  10
ENDBRANCH   1   2
BRANCH   1  12
ATOM     12  O   UNL     1      34.649 -17.289 -20.941  0.00  0.00    -0.382 OA
ATOM     13  H   UNL     1      34.054 -16.544 -21.116  0.00  0.00    +0.211 HD
ENDBRANCH   1  12
BRANCH   1  14
ATOM     14  C   UNL     1      34.934 -18.542 -23.003  0.00  0.00    -0.047 C 
BRANCH  14  15
ATOM     15  N   UNL     1      35.560 -17.276 -23.353  0.00  0.00    +0.387 N 
ATOM     16  H   UNL     1      36.545 -17.437 -23.564  0.00  0.00    -0.084 HD
ATOM     17  H   UNL     1      35.467 -16.636 -22.563  0.00  0.00    -0.084 HD
BRANCH  15  18
ATOM     18  C   UNL     1      34.910 -16.680 -24.519  0.00  0.00    -0.062 C 
ATOM     19  C   UNL     1      33.926 -15.599 -24.081  0.00  0.00    -0.023 C 
ATOM     20  C   UNL     1      34.207 -17.771 -25.320  0.00  0.00    -0.023 C 
ENDBRANCH  15  18
ENDBRANCH  14  15
ENDBRANCH   1  14
TORSDOF 7
ENDMDL
MODEL 9
REMARK VINA RESULT:      -6.8      8.224      9.949
REMARK  Name = 4086
REMARK  7 active torsions:
REMARK  status: ('A' for Active; 'I' for Inactive)
REMARK    1  A    between atoms: C_1  and  C_2
REMARK    2  A    between atoms: C_1  and  O_12
REMARK    3  A    between atoms: C_1  and  C_14
REMARK    4  A    between atoms: C_5  and  O_8
REMARK    5  A    between atoms: C_6  and  O_10
REMARK    6  A    between atoms: C_14  and  N_15
REMARK    7  A    between atoms: N_15  and  C_18
REMARK                            x       y       z     vdW  Elec       q    Type
REMARK                         _______ _______ _______ _____ _____    ______ ____
ROOT
ATOM      1  C   UNL     1      32.742 -23.826 -13.972  0.00  0.00    +0.112 C 
ENDROOT
BRANCH   1   2
ATOM      2  C   UNL     1      31.367 -23.894 -14.598  0.00  0.00    +0.008 C 
ATOM      3  C   UNL     1      30.462 -24.836 -14.142  0.00  0.00    +0.035 C 
ATOM      4  C   UNL     1      31.044 -23.012 -15.616  0.00  0.00    +0.035 C 
ATOM      5  C   UNL     1      29.776 -23.075 -16.193  0.00  0.00    +0.136 C 
ATOM      6  C   UNL     1      29.194 -24.899 -14.720  0.00  0.00    +0.136 C 
ATOM      7  C   UNL     1      28.851 -24.017 -15.746  0.00  0.00    +0.073 C 
BRANCH   5   8
ATOM      8  O   UNL     1      29.441 -22.215 -17.195  0.00  0.00    -0.505 OA
ATOM      9  H   UNL     1      28.607 -22.285 -17.615  0.00  0.00    +0.292 HD
ENDBRANCH   5   8
BRANCH   6  10
ATOM     10  O   UNL     1      28.290 -25.818 -14.282  0.00  0.00    -0.505 OA
ATOM     11  H   UNL     1      27.681 -26.199 -14.883  0.00  0.00    +0.292 HD
ENDBRANCH   6  10
ENDBRANCH   1   2
BRANCH   1  12
ATOM     12  O   UNL     1      32.925 -24.991 -13.168  0.00  0.00    -0.382 OA
ATOM     13  H   UNL     1      32.909 -25.779 -13.733  0.00  0.00    +0.211 HD
ENDBRANCH   1  12
BRANCH   1  14
ATOM     14  C   UNL     1      33.841 -23.739 -15.038  0.00  0.00    -0.047 C 
BRANCH  14  15
ATOM     15  N   UNL     1      34.842 -22.749 -14.671  0.00  0.00    +0.387 N 
ATOM     16  H   UNL     1      34.674 -22.444 -13.712  0.00  0.00    -0.084 HD
ATOM     17  H   UNL     1      34.770 -21.959 -15.312  0.00  0.00    -0.084 HD
BRANCH  15  18
ATOM     18  C   UNL     1      36.188 -23.312 -14.768  0.00  0.00    -0.062 C 
ATOM     19  C   UNL     1      36.975 -22.613 -15.873  0.00  0.00    -0.023 C 
ATOM     20  C   UNL     1      36.093 -24.812 -15.026  0.00  0.00    -0.023 C 
ENDBRANCH  15  18
ENDBRANCH  14  15
ENDBRANCH   1  14
TORSDOF 7
ENDMDL
