MODEL 1
REMARK VINA RESULT:      -8.0      0.000      0.000
REMARK  Name = 4725
REMARK  7 active torsions:
REMARK  status: ('A' for Active; 'I' for Inactive)
REMARK    1  A    between atoms: N_2  and  C_15
REMARK    2  A    between atoms: C_15  and  C_16
REMARK    3  A    between atoms: C_16  and  C_17
REMARK    4  A    between atoms: C_17  and  C_18
REMARK    5  A    between atoms: C_17  and  C_21
REMARK    6  A    between atoms: C_18  and  O_19
REMARK    7  A    between atoms: C_21  and  O_22
REMARK                            x       y       z     vdW  Elec       q    Type
REMARK                         _______ _______ _______ _____ _____    ______ ____
ROOT
ATOM      1  O   UNL     1      33.010 -15.682 -26.705  0.00  0.00    -0.208 OA
ATOM      2  N   UNL     1      35.218 -17.903 -23.468  0.00  0.00    -0.232 NA
ATOM      3  N   UNL     1      34.793 -15.547 -23.060  0.00  0.00    -0.279 N 
ATOM      4  N   UNL     1      34.257 -18.053 -25.473  0.00  0.00    -0.241 NA
ATOM      5  N   UNL     1      33.611 -14.447 -24.838  0.00  0.00    -0.301 NA
ATOM      6  N   UNL     1      34.277 -13.301 -22.890  0.00  0.00    -0.320 N 
ATOM      7  C   UNL     1      34.744 -16.682 -23.763  0.00  0.00    +0.189 C 
ATOM      8  C   UNL     1      34.157 -16.779 -24.991  0.00  0.00    +0.183 C 
ATOM      9  C   UNL     1      34.906 -18.710 -24.526  0.00  0.00    +0.203 C 
ATOM     10  C   UNL     1      33.542 -15.618 -25.603  0.00  0.00    +0.224 C 
ATOM     11  C   UNL     1      34.199 -14.436 -23.655  0.00  0.00    +0.245 C 
ATOM     12  H   UNL     1      35.222 -15.498 -22.175  0.00  0.00    +0.152 HD
ATOM     13  H   UNL     1      34.722 -13.328 -22.012  0.00  0.00    +0.146 HD
ATOM     14  H   UNL     1      33.887 -12.457 -23.217  0.00  0.00    +0.146 HD
ENDROOT
BRANCH   2  15
ATOM     15  C   UNL     1      35.929 -18.313 -22.262  0.00  0.00    +0.076 C 
BRANCH  15  16
ATOM     16  C   UNL     1      35.014 -18.557 -21.055  0.00  0.00    +0.022 C 
BRANCH  16  17
ATOM     17  C   UNL     1      34.385 -19.968 -20.977  0.00  0.00    +0.060 C 
BRANCH  17  18
ATOM     18  C   UNL     1      32.892 -19.858 -20.621  0.00  0.00    +0.140 C 
BRANCH  18  19
ATOM     19  O   UNL     1      32.594 -20.694 -19.509  0.00  0.00    -0.382 OA
ATOM     20  H   UNL     1      32.063 -20.199 -18.866  0.00  0.00    +0.210 HD
ENDBRANCH  18  19
ENDBRANCH  17  18
BRANCH  17  21
ATOM     21  C   UNL     1      35.094 -20.885 -19.969  0.00  0.00    +0.140 C 
BRANCH  21  22
ATOM     22  O   UNL     1      36.327 -20.317 -19.549  0.00  0.00    -0.382 OA
ATOM     23  H   UNL     1      36.255 -20.035 -18.624  0.00  0.00    +0.210 HD
ENDBRANCH  21  22
ENDBRANCH  17  21
ENDBRANCH  16  17
ENDBRANCH  15  16
ENDBRANCH   2  15
TORSDOF 7
ENDMDL
MODEL 2
REMARK VINA RESULT:      -7.8      6.012      8.865
REMARK  Name = 4725
REMARK  7 active torsions:
REMARK  status: ('A' for Active; 'I' for Inactive)
REMARK    1  A    between atoms: N_2  and  C_15
REMARK    2  A    between atoms: C_15  and  C_16
REMARK    3  A    between atoms: C_16  and  C_17
REMARK    4  A    between atoms: C_17  and  C_18
REMARK    5  A    between atoms: C_17  and  C_21
REMARK    6  A    between atoms: C_18  and  O_19
REMARK    7  A    between atoms: C_21  and  O_22
REMARK                            x       y       z     vdW  Elec       q    Type
REMARK                         _______ _______ _______ _____ _____    ______ ____
ROOT
ATOM      1  O   UNL     1      32.960 -22.457 -19.519  0.00  0.00    -0.208 OA
ATOM      2  N   UNL     1      36.103 -22.836 -16.314  0.00  0.00    -0.232 NA
ATOM      3  N   UNL     1      36.632 -21.365 -18.173  0.00  0.00    -0.279 N 
ATOM      4  N   UNL     1      34.079 -23.480 -16.990  0.00  0.00    -0.241 NA
ATOM      5  N   UNL     1      34.899 -21.225 -19.830  0.00  0.00    -0.301 NA
ATOM      6  N   UNL     1      36.915 -20.022 -20.032  0.00  0.00    -0.320 N 
ATOM      7  C   UNL     1      35.867 -22.214 -17.481  0.00  0.00    +0.189 C 
ATOM      8  C   UNL     1      34.628 -22.611 -17.890  0.00  0.00    +0.183 C 
ATOM      9  C   UNL     1      34.999 -23.595 -16.046  0.00  0.00    +0.203 C 
ATOM     10  C   UNL     1      34.071 -22.113 -19.132  0.00  0.00    +0.224 C 
ATOM     11  C   UNL     1      36.089 -20.890 -19.365  0.00  0.00    +0.245 C 
ATOM     12  H   UNL     1      37.524 -21.091 -17.860  0.00  0.00    +0.152 HD
ATOM     13  H   UNL     1      37.796 -19.793 -19.657  0.00  0.00    +0.146 HD
ATOM     14  H   UNL     1      36.627 -19.626 -20.887  0.00  0.00    +0.146 HD
ENDROOT
BRANCH   2  15
ATOM     15  C   UNL     1      37.294 -22.736 -15.478  0.00  0.00    +0.076 C 
BRANCH  15  16
ATOM     16  C   UNL     1      38.348 -23.811 -15.768  0.00  0.00    +0.022 C 
BRANCH  16  17
ATOM     17  C   UNL     1      38.631 -24.790 -14.602  0.00  0.00    +0.060 C 
BRANCH  17  18
ATOM     18  C   UNL     1      40.066 -25.333 -14.710  0.00  0.00    +0.140 C 
BRANCH  18  19
ATOM     19  O   UNL     1      40.289 -25.860 -16.012  0.00  0.00    -0.382 OA
ATOM     20  H   UNL     1      39.870 -26.732 -16.084  0.00  0.00    +0.210 HD
ENDBRANCH  18  19
ENDBRANCH  17  18
BRANCH  17  21
ATOM     21  C   UNL     1      37.635 -25.958 -14.545  0.00  0.00    +0.140 C 
BRANCH  21  22
ATOM     22  O   UNL     1      37.422 -26.503 -15.839  0.00  0.00    -0.382 OA
ATOM     23  H   UNL     1      38.265 -26.540 -16.317  0.00  0.00    +0.210 HD
ENDBRANCH  21  22
ENDBRANCH  17  21
ENDBRANCH  16  17
ENDBRANCH  15  16
ENDBRANCH   2  15
TORSDOF 7
ENDMDL
MODEL 3
REMARK VINA RESULT:      -7.7      2.037      6.345
REMARK  Name = 4725
REMARK  7 active torsions:
REMARK  status: ('A' for Active; 'I' for Inactive)
REMARK    1  A    between atoms: N_2  and  C_15
REMARK    2  A    between atoms: C_15  and  C_16
REMARK    3  A    between atoms: C_16  and  C_17
REMARK    4  A    between atoms: C_17  and  C_18
REMARK    5  A    between atoms: C_17  and  C_21
REMARK    6  A    between atoms: C_18  and  O_19
REMARK    7  A    between atoms: C_21  and  O_22
REMARK                            x       y       z     vdW  Elec       q    Type
REMARK                         _______ _______ _______ _____ _____    ______ ____
ROOT
ATOM      1  O   UNL     1      36.194 -18.766 -20.365  0.00  0.00    -0.208 OA
ATOM      2  N   UNL     1      33.903 -15.305 -22.115  0.00  0.00    -0.232 NA
ATOM      3  N   UNL     1      34.255 -17.213 -23.576  0.00  0.00    -0.279 N 
ATOM      4  N   UNL     1      34.952 -16.092 -20.312  0.00  0.00    -0.241 NA
ATOM      5  N   UNL     1      35.483 -19.007 -22.557  0.00  0.00    -0.301 NA
ATOM      6  N   UNL     1      34.707 -19.133 -24.779  0.00  0.00    -0.320 N 
ATOM      7  C   UNL     1      34.359 -16.526 -22.434  0.00  0.00    +0.189 C 
ATOM      8  C   UNL     1      34.999 -17.004 -21.328  0.00  0.00    +0.183 C 
ATOM      9  C   UNL     1      34.280 -15.073 -20.821  0.00  0.00    +0.203 C 
ATOM     10  C   UNL     1      35.613 -18.317 -21.345  0.00  0.00    +0.224 C 
ATOM     11  C   UNL     1      34.846 -18.474 -23.584  0.00  0.00    +0.245 C 
ATOM     12  H   UNL     1      33.788 -16.849 -24.363  0.00  0.00    +0.152 HD
ATOM     13  H   UNL     1      34.225 -18.706 -25.524  0.00  0.00    +0.146 HD
ATOM     14  H   UNL     1      35.088 -20.034 -24.892  0.00  0.00    +0.146 HD
ENDROOT
BRANCH   2  15
ATOM     15  C   UNL     1      33.150 -14.387 -22.963  0.00  0.00    +0.076 C 
BRANCH  15  16
ATOM     16  C   UNL     1      33.878 -13.996 -24.254  0.00  0.00    +0.022 C 
BRANCH  16  17
ATOM     17  C   UNL     1      32.988 -13.923 -25.518  0.00  0.00    +0.060 C 
BRANCH  17  18
ATOM     18  C   UNL     1      32.890 -15.313 -26.171  0.00  0.00    +0.140 C 
BRANCH  18  19
ATOM     19  O   UNL     1      34.143 -15.981 -26.084  0.00  0.00    -0.382 OA
ATOM     20  H   UNL     1      34.788 -15.532 -26.653  0.00  0.00    +0.210 HD
ENDBRANCH  18  19
ENDBRANCH  17  18
BRANCH  17  21
ATOM     21  C   UNL     1      33.491 -12.899 -26.547  0.00  0.00    +0.140 C 
BRANCH  21  22
ATOM     22  O   UNL     1      33.879 -13.543 -27.752  0.00  0.00    -0.382 OA
ATOM     23  H   UNL     1      33.223 -13.361 -28.442  0.00  0.00    +0.210 HD
ENDBRANCH  21  22
ENDBRANCH  17  21
ENDBRANCH  16  17
ENDBRANCH  15  16
ENDBRANCH   2  15
TORSDOF 7
ENDMDL
MODEL 4
REMARK VINA RESULT:      -7.7      9.451     11.351
REMARK  Name = 4725
REMARK  7 active torsions:
REMARK  status: ('A' for Active; 'I' for Inactive)
REMARK    1  A    between atoms: N_2  and  C_15
REMARK    2  A    between atoms: C_15  and  C_16
REMARK    3  A    between atoms: C_16  and  C_17
REMARK    4  A    between atoms: C_17  and  C_18
REMARK    5  A    between atoms: C_17  and  C_21
REMARK    6  A    between atoms: C_18  and  O_19
REMARK    7  A    between atoms: C_21  and  O_22
REMARK                            x       y       z     vdW  Elec       q    Type
REMARK                         _______ _______ _______ _____ _____    ______ ____
ROOT
ATOM      1  O   UNL     1      31.798 -22.805 -17.227  0.00  0.00    -0.208 OA
ATOM      2  N   UNL     1      35.088 -24.091 -14.432  0.00  0.00    -0.232 NA
ATOM      3  N   UNL     1      32.828 -24.708 -13.791  0.00  0.00    -0.279 N 
ATOM      4  N   UNL     1      34.598 -23.031 -16.331  0.00  0.00    -0.241 NA
ATOM      5  N   UNL     1      31.143 -23.982 -15.341  0.00  0.00    -0.301 NA
ATOM      6  N   UNL     1      30.604 -25.184 -13.387  0.00  0.00    -0.320 N 
ATOM      7  C   UNL     1      33.754 -24.150 -14.576  0.00  0.00    +0.189 C 
ATOM      8  C   UNL     1      33.460 -23.500 -15.739  0.00  0.00    +0.183 C 
ATOM      9  C   UNL     1      35.568 -23.406 -15.513  0.00  0.00    +0.203 C 
ATOM     10  C   UNL     1      32.086 -23.385 -16.187  0.00  0.00    +0.224 C 
ATOM     11  C   UNL     1      31.510 -24.593 -14.229  0.00  0.00    +0.245 C 
ATOM     12  H   UNL     1      33.062 -25.172 -12.955  0.00  0.00    +0.152 HD
ATOM     13  H   UNL     1      30.912 -25.632 -12.566  0.00  0.00    +0.146 HD
ATOM     14  H   UNL     1      29.643 -25.162 -13.603  0.00  0.00    +0.146 HD
ENDROOT
BRANCH   2  15
ATOM     15  C   UNL     1      35.890 -24.642 -13.346  0.00  0.00    +0.076 C 
BRANCH  15  16
ATOM     16  C   UNL     1      37.396 -24.392 -13.497  0.00  0.00    +0.022 C 
BRANCH  16  17
ATOM     17  C   UNL     1      38.245 -25.647 -13.813  0.00  0.00    +0.060 C 
BRANCH  17  18
ATOM     18  C   UNL     1      39.413 -25.269 -14.740  0.00  0.00    +0.140 C 
BRANCH  18  19
ATOM     19  O   UNL     1      39.060 -24.142 -15.533  0.00  0.00    -0.382 OA
ATOM     20  H   UNL     1      39.846 -23.596 -15.687  0.00  0.00    +0.210 HD
ENDBRANCH  18  19
ENDBRANCH  17  18
BRANCH  17  21
ATOM     21  C   UNL     1      37.426 -26.782 -14.444  0.00  0.00    +0.140 C 
BRANCH  21  22
ATOM     22  O   UNL     1      37.382 -26.648 -15.857  0.00  0.00    -0.382 OA
ATOM     23  H   UNL     1      37.413 -27.527 -16.267  0.00  0.00    +0.210 HD
ENDBRANCH  21  22
ENDBRANCH  17  21
ENDBRANCH  16  17
ENDBRANCH  15  16
ENDBRANCH   2  15
TORSDOF 7
ENDMDL
MODEL 5
REMARK VINA RESULT:      -7.7      9.448     11.307
REMARK  Name = 4725
REMARK  7 active torsions:
REMARK  status: ('A' for Active; 'I' for Inactive)
REMARK    1  A    between atoms: N_2  and  C_15
REMARK    2  A    between atoms: C_15  and  C_16
REMARK    3  A    between atoms: C_16  and  C_17
REMARK    4  A    between atoms: C_17  and  C_18
REMARK    5  A    between atoms: C_17  and  C_21
REMARK    6  A    between atoms: C_18  and  O_19
REMARK    7  A    between atoms: C_21  and  O_22
REMARK                            x       y       z     vdW  Elec       q    Type
REMARK                         _______ _______ _______ _____ _____    ______ ____
ROOT
ATOM      1  O   UNL     1      38.213 -23.100 -15.721  0.00  0.00    -0.208 OA
ATOM      2  N   UNL     1      33.819 -23.535 -14.829  0.00  0.00    -0.232 NA
ATOM      3  N   UNL     1      35.307 -23.475 -12.911  0.00  0.00    -0.279 N 
ATOM      4  N   UNL     1      35.360 -23.332 -16.428  0.00  0.00    -0.241 NA
ATOM      5  N   UNL     1      37.628 -23.240 -13.483  0.00  0.00    -0.301 NA
ATOM      6  N   UNL     1      36.906 -23.394 -11.245  0.00  0.00    -0.320 N 
ATOM      7  C   UNL     1      35.009 -23.450 -14.213  0.00  0.00    +0.189 C 
ATOM      8  C   UNL     1      35.948 -23.326 -15.195  0.00  0.00    +0.183 C 
ATOM      9  C   UNL     1      34.069 -23.460 -16.171  0.00  0.00    +0.203 C 
ATOM     10  C   UNL     1      37.353 -23.211 -14.856  0.00  0.00    +0.224 C 
ATOM     11  C   UNL     1      36.659 -23.364 -12.594  0.00  0.00    +0.245 C 
ATOM     12  H   UNL     1      34.614 -23.566 -12.218  0.00  0.00    +0.152 HD
ATOM     13  H   UNL     1      36.161 -23.486 -10.609  0.00  0.00    +0.146 HD
ATOM     14  H   UNL     1      37.831 -23.321 -10.912  0.00  0.00    +0.146 HD
ENDROOT
BRANCH   2  15
ATOM     15  C   UNL     1      32.506 -23.678 -14.211  0.00  0.00    +0.076 C 
BRANCH  15  16
ATOM     16  C   UNL     1      31.378 -22.981 -14.982  0.00  0.00    +0.022 C 
BRANCH  16  17
ATOM     17  C   UNL     1      30.398 -23.926 -15.718  0.00  0.00    +0.060 C 
BRANCH  17  18
ATOM     18  C   UNL     1      29.041 -23.228 -15.909  0.00  0.00    +0.140 C 
BRANCH  18  19
ATOM     19  O   UNL     1      29.097 -22.353 -17.030  0.00  0.00    -0.382 OA
ATOM     20  H   UNL     1      28.613 -21.538 -16.828  0.00  0.00    +0.210 HD
ENDBRANCH  18  19
ENDBRANCH  17  18
BRANCH  17  21
ATOM     21  C   UNL     1      30.198 -25.264 -14.992  0.00  0.00    +0.140 C 
BRANCH  21  22
ATOM     22  O   UNL     1      28.916 -25.321 -14.382  0.00  0.00    -0.382 OA
ATOM     23  H   UNL     1      28.964 -25.861 -13.578  0.00  0.00    +0.210 HD
ENDBRANCH  21  22
ENDBRANCH  17  21
ENDBRANCH  16  17
ENDBRANCH  15  16
ENDBRANCH   2  15
TORSDOF 7
ENDMDL
MODEL 6
REMARK VINA RESULT:      -7.5      9.499     11.292
REMARK  Name = 4725
REMARK  7 active torsions:
REMARK  status: ('A' for Active; 'I' for Inactive)
REMARK    1  A    between atoms: N_2  and  C_15
REMARK    2  A    between atoms: C_15  and  C_16
REMARK    3  A    between atoms: C_16  and  C_17
REMARK    4  A    between atoms: C_17  and  C_18
REMARK    5  A    between atoms: C_17  and  C_21
REMARK    6  A    between atoms: C_18  and  O_19
REMARK    7  A    between atoms: C_21  and  O_22
REMARK                            x       y       z     vdW  Elec       q    Type
REMARK                         _______ _______ _______ _____ _____    ______ ____
ROOT
ATOM      1  O   UNL     1      38.139 -23.022 -15.733  0.00  0.00    -0.208 OA
ATOM      2  N   UNL     1      33.795 -23.660 -14.725  0.00  0.00    -0.232 NA
ATOM      3  N   UNL     1      35.324 -23.492 -12.845  0.00  0.00    -0.279 N 
ATOM      4  N   UNL     1      35.285 -23.408 -16.364  0.00  0.00    -0.241 NA
ATOM      5  N   UNL     1      37.615 -23.151 -13.479  0.00  0.00    -0.301 NA
ATOM      6  N   UNL     1      36.956 -23.301 -11.221  0.00  0.00    -0.320 N 
ATOM      7  C   UNL     1      34.994 -23.505 -14.140  0.00  0.00    +0.189 C 
ATOM      8  C   UNL     1      35.901 -23.351 -15.147  0.00  0.00    +0.183 C 
ATOM      9  C   UNL     1      34.008 -23.596 -16.074  0.00  0.00    +0.203 C 
ATOM     10  C   UNL     1      37.306 -23.161 -14.845  0.00  0.00    +0.224 C 
ATOM     11  C   UNL     1      36.676 -23.307 -12.564  0.00  0.00    +0.245 C 
ATOM     12  H   UNL     1      34.653 -23.605 -12.134  0.00  0.00    +0.152 HD
ATOM     13  H   UNL     1      36.232 -23.419 -10.566  0.00  0.00    +0.146 HD
ATOM     14  H   UNL     1      37.884 -23.176 -10.912  0.00  0.00    +0.146 HD
ENDROOT
BRANCH   2  15
ATOM     15  C   UNL     1      32.506 -23.857 -14.072  0.00  0.00    +0.076 C 
BRANCH  15  16
ATOM     16  C   UNL     1      31.439 -22.834 -14.481  0.00  0.00    +0.022 C 
BRANCH  16  17
ATOM     17  C   UNL     1      30.105 -23.435 -14.984  0.00  0.00    +0.060 C 
BRANCH  17  18
ATOM     18  C   UNL     1      30.217 -24.967 -15.062  0.00  0.00    +0.140 C 
BRANCH  18  19
ATOM     19  O   UNL     1      29.281 -25.569 -14.176  0.00  0.00    -0.382 OA
ATOM     20  H   UNL     1      29.308 -25.114 -13.320  0.00  0.00    +0.210 HD
ENDBRANCH  18  19
ENDBRANCH  17  18
BRANCH  17  21
ATOM     21  C   UNL     1      29.670 -22.874 -16.346  0.00  0.00    +0.140 C 
BRANCH  21  22
ATOM     22  O   UNL     1      30.800 -22.513 -17.127  0.00  0.00    -0.382 OA
ATOM     23  H   UNL     1      30.562 -22.526 -18.067  0.00  0.00    +0.210 HD
ENDBRANCH  21  22
ENDBRANCH  17  21
ENDBRANCH  16  17
ENDBRANCH  15  16
ENDBRANCH   2  15
TORSDOF 7
ENDMDL
MODEL 7
REMARK VINA RESULT:      -7.5      5.955      8.746
REMARK  Name = 4725
REMARK  7 active torsions:
REMARK  status: ('A' for Active; 'I' for Inactive)
REMARK    1  A    between atoms: N_2  and  C_15
REMARK    2  A    between atoms: C_15  and  C_16
REMARK    3  A    between atoms: C_16  and  C_17
REMARK    4  A    between atoms: C_17  and  C_18
REMARK    5  A    between atoms: C_17  and  C_21
REMARK    6  A    between atoms: C_18  and  O_19
REMARK    7  A    between atoms: C_21  and  O_22
REMARK                            x       y       z     vdW  Elec       q    Type
REMARK                         _______ _______ _______ _____ _____    ______ ____
ROOT
ATOM      1  O   UNL     1      36.762 -21.649 -18.905  0.00  0.00    -0.208 OA
ATOM      2  N   UNL     1      33.057 -23.249 -16.903  0.00  0.00    -0.232 NA
ATOM      3  N   UNL     1      32.708 -21.866 -18.868  0.00  0.00    -0.279 N 
ATOM      4  N   UNL     1      35.285 -23.175 -16.859  0.00  0.00    -0.241 NA
ATOM      5  N   UNL     1      34.737 -21.061 -19.868  0.00  0.00    -0.301 NA
ATOM      6  N   UNL     1      32.618 -20.531 -20.752  0.00  0.00    -0.320 N 
ATOM      7  C   UNL     1      33.441 -22.491 -17.943  0.00  0.00    +0.189 C 
ATOM      8  C   UNL     1      34.804 -22.449 -17.912  0.00  0.00    +0.183 C 
ATOM      9  C   UNL     1      34.200 -23.647 -16.267  0.00  0.00    +0.203 C 
ATOM     10  C   UNL     1      35.538 -21.702 -18.914  0.00  0.00    +0.224 C 
ATOM     11  C   UNL     1      33.420 -21.151 -19.828  0.00  0.00    +0.245 C 
ATOM     12  H   UNL     1      31.724 -21.909 -18.872  0.00  0.00    +0.152 HD
ATOM     13  H   UNL     1      31.639 -20.620 -20.694  0.00  0.00    +0.146 HD
ATOM     14  H   UNL     1      33.021 -19.999 -21.477  0.00  0.00    +0.146 HD
ENDROOT
BRANCH   2  15
ATOM     15  C   UNL     1      31.696 -23.595 -16.508  0.00  0.00    +0.076 C 
BRANCH  15  16
ATOM     16  C   UNL     1      31.217 -22.880 -15.240  0.00  0.00    +0.022 C 
BRANCH  16  17
ATOM     17  C   UNL     1      29.883 -23.400 -14.652  0.00  0.00    +0.060 C 
BRANCH  17  18
ATOM     18  C   UNL     1      30.038 -24.867 -14.216  0.00  0.00    +0.140 C 
BRANCH  18  19
ATOM     19  O   UNL     1      30.692 -24.933 -12.955  0.00  0.00    -0.382 OA
ATOM     20  H   UNL     1      30.086 -24.630 -12.261  0.00  0.00    +0.210 HD
ENDBRANCH  18  19
ENDBRANCH  17  18
BRANCH  17  21
ATOM     21  C   UNL     1      28.706 -23.269 -15.631  0.00  0.00    +0.140 C 
BRANCH  21  22
ATOM     22  O   UNL     1      28.191 -21.945 -15.627  0.00  0.00    -0.382 OA
ATOM     23  H   UNL     1      27.401 -21.906 -15.066  0.00  0.00    +0.210 HD
ENDBRANCH  21  22
ENDBRANCH  17  21
ENDBRANCH  16  17
ENDBRANCH  15  16
ENDBRANCH   2  15
TORSDOF 7
ENDMDL
MODEL 8
REMARK VINA RESULT:      -7.5      1.925      3.174
REMARK  Name = 4725
REMARK  7 active torsions:
REMARK  status: ('A' for Active; 'I' for Inactive)
REMARK    1  A    between atoms: N_2  and  C_15
REMARK    2  A    between atoms: C_15  and  C_16
REMARK    3  A    between atoms: C_16  and  C_17
REMARK    4  A    between atoms: C_17  and  C_18
REMARK    5  A    between atoms: C_17  and  C_21
REMARK    6  A    between atoms: C_18  and  O_19
REMARK    7  A    between atoms: C_21  and  O_22
REMARK                            x       y       z     vdW  Elec       q    Type
REMARK                         _______ _______ _______ _____ _____    ______ ____
ROOT
ATOM      1  O   UNL     1      32.170 -12.812 -22.247  0.00  0.00    -0.208 OA
ATOM      2  N   UNL     1      34.770 -16.475 -21.904  0.00  0.00    -0.232 NA
ATOM      3  N   UNL     1      34.052 -15.870 -24.143  0.00  0.00    -0.279 N 
ATOM      4  N   UNL     1      33.765 -14.823 -20.795  0.00  0.00    -0.241 NA
ATOM      5  N   UNL     1      32.672 -13.906 -24.228  0.00  0.00    -0.301 NA
ATOM      6  N   UNL     1      33.252 -15.106 -26.172  0.00  0.00    -0.320 N 
ATOM      7  C   UNL     1      34.129 -15.728 -22.817  0.00  0.00    +0.189 C 
ATOM      8  C   UNL     1      33.516 -14.719 -22.134  0.00  0.00    +0.183 C 
ATOM      9  C   UNL     1      34.528 -15.898 -20.688  0.00  0.00    +0.203 C 
ATOM     10  C   UNL     1      32.730 -13.726 -22.840  0.00  0.00    +0.224 C 
ATOM     11  C   UNL     1      33.295 -14.912 -24.815  0.00  0.00    +0.245 C 
ATOM     12  H   UNL     1      34.502 -16.606 -24.617  0.00  0.00    +0.152 HD
ATOM     13  H   UNL     1      33.729 -15.866 -26.577  0.00  0.00    +0.146 HD
ATOM     14  H   UNL     1      32.744 -14.483 -26.743  0.00  0.00    +0.146 HD
ENDROOT
BRANCH   2  15
ATOM     15  C   UNL     1      35.574 -17.669 -22.137  0.00  0.00    +0.076 C 
BRANCH  15  16
ATOM     16  C   UNL     1      34.757 -18.967 -22.188  0.00  0.00    +0.022 C 
BRANCH  16  17
ATOM     17  C   UNL     1      34.372 -19.560 -20.812  0.00  0.00    +0.060 C 
BRANCH  17  18
ATOM     18  C   UNL     1      35.415 -20.606 -20.382  0.00  0.00    +0.140 C 
BRANCH  18  19
ATOM     19  O   UNL     1      36.531 -19.961 -19.780  0.00  0.00    -0.382 OA
ATOM     20  H   UNL     1      36.361 -19.839 -18.833  0.00  0.00    +0.210 HD
ENDBRANCH  18  19
ENDBRANCH  17  18
BRANCH  17  21
ATOM     21  C   UNL     1      32.970 -20.188 -20.801  0.00  0.00    +0.140 C 
BRANCH  21  22
ATOM     22  O   UNL     1      32.637 -20.657 -19.503  0.00  0.00    -0.382 OA
ATOM     23  H   UNL     1      33.379 -20.496 -18.900  0.00  0.00    +0.210 HD
ENDBRANCH  21  22
ENDBRANCH  17  21
ENDBRANCH  16  17
ENDBRANCH  15  16
ENDBRANCH   2  15
TORSDOF 7
ENDMDL
MODEL 9
REMARK VINA RESULT:      -7.5      6.135      8.823
REMARK  Name = 4725
REMARK  7 active torsions:
REMARK  status: ('A' for Active; 'I' for Inactive)
REMARK    1  A    between atoms: N_2  and  C_15
REMARK    2  A    between atoms: C_15  and  C_16
REMARK    3  A    between atoms: C_16  and  C_17
REMARK    4  A    between atoms: C_17  and  C_18
REMARK    5  A    between atoms: C_17  and  C_21
REMARK    6  A    between atoms: C_18  and  O_19
REMARK    7  A    between atoms: C_21  and  O_22
REMARK                            x       y       z     vdW  Elec       q    Type
REMARK                         _______ _______ _______ _____ _____    ______ ____
ROOT
ATOM      1  O   UNL     1      36.767 -21.653 -18.935  0.00  0.00    -0.208 OA
ATOM      2  N   UNL     1      33.062 -23.209 -16.898  0.00  0.00    -0.232 NA
ATOM      3  N   UNL     1      32.711 -21.847 -18.878  0.00  0.00    -0.279 N 
ATOM      4  N   UNL     1      35.290 -23.147 -16.865  0.00  0.00    -0.241 NA
ATOM      5  N   UNL     1      34.741 -21.065 -19.896  0.00  0.00    -0.301 NA
ATOM      6  N   UNL     1      32.621 -20.534 -20.777  0.00  0.00    -0.320 N 
ATOM      7  C   UNL     1      33.445 -22.466 -17.948  0.00  0.00    +0.189 C 
ATOM      8  C   UNL     1      34.809 -22.431 -17.924  0.00  0.00    +0.183 C 
ATOM      9  C   UNL     1      34.206 -23.606 -16.263  0.00  0.00    +0.203 C 
ATOM     10  C   UNL     1      35.542 -21.699 -18.938  0.00  0.00    +0.224 C 
ATOM     11  C   UNL     1      33.424 -21.147 -19.849  0.00  0.00    +0.245 C 
ATOM     12  H   UNL     1      31.727 -21.885 -18.877  0.00  0.00    +0.152 HD
ATOM     13  H   UNL     1      31.642 -20.616 -20.713  0.00  0.00    +0.146 HD
ATOM     14  H   UNL     1      33.024 -20.012 -21.509  0.00  0.00    +0.146 HD
ENDROOT
BRANCH   2  15
ATOM     15  C   UNL     1      31.701 -23.542 -16.494  0.00  0.00    +0.076 C 
BRANCH  15  16
ATOM     16  C   UNL     1      31.321 -23.022 -15.102  0.00  0.00    +0.022 C 
BRANCH  16  17
ATOM     17  C   UNL     1      30.247 -23.850 -14.357  0.00  0.00    +0.060 C 
BRANCH  17  18
ATOM     18  C   UNL     1      30.850 -24.468 -13.085  0.00  0.00    +0.140 C 
BRANCH  18  19
ATOM     19  O   UNL     1      32.077 -25.119 -13.395  0.00  0.00    -0.382 OA
ATOM     20  H   UNL     1      32.036 -26.042 -13.099  0.00  0.00    +0.210 HD
ENDBRANCH  18  19
ENDBRANCH  17  18
BRANCH  17  21
ATOM     21  C   UNL     1      29.629 -24.953 -15.230  0.00  0.00    +0.140 C 
BRANCH  21  22
ATOM     22  O   UNL     1      29.778 -26.225 -14.616  0.00  0.00    -0.382 OA
ATOM     23  H   UNL     1      30.241 -26.124 -13.770  0.00  0.00    +0.210 HD
ENDBRANCH  21  22
ENDBRANCH  17  21
ENDBRANCH  16  17
ENDBRANCH  15  16
ENDBRANCH   2  15
TORSDOF 7
ENDMDL
