MODEL 1
REMARK VINA RESULT:      -8.1      0.000      0.000
REMARK  Name = 68310
REMARK  6 active torsions:
REMARK  status: ('A' for Active; 'I' for Inactive)
REMARK    1  A    between atoms: CA_1  and  N_3
REMARK    2  A    between atoms: CA_1  and  C_8
REMARK    3  A    between atoms: CA_1  and  CB_11
REMARK    4  A    between atoms: C_8  and  O_9
REMARK    5  A    between atoms: CB_11  and  CG_12
REMARK    6  A    between atoms: CZ_17  and  OH_18
REMARK                            x       y       z     vdW  Elec       q    Type
REMARK                         _______ _______ _______ _____ _____    ______ ____
ROOT
ATOM      1  CA  TYR A   1      34.696 -17.710 -21.546  0.00  0.00    +0.176 C 
ENDROOT
BRANCH   1   3
ATOM      2  O   UNK A   0      34.982 -15.238 -20.052  0.00  0.00    -0.275 OA
ATOM      3  N   TYR A   1      33.681 -16.718 -21.292  0.00  0.00    -0.297 N 
ATOM      4  C   UNK A   0      33.914 -15.562 -20.563  0.00  0.00    +0.223 C 
ATOM      5  C   UNK A   0      32.691 -14.688 -20.471  0.00  0.00    +0.095 C 
ATOM      6  H   TYR A   1      32.779 -16.870 -21.655  0.00  0.00    +0.150 HD
ENDBRANCH   1   3
BRANCH   1   8
ATOM      7  OXT TYR A   1      35.467 -16.228 -23.296  0.00  0.00    -0.248 OA
ATOM      8  C   TYR A   1      35.612 -17.280 -22.682  0.00  0.00    +0.332 C 
BRANCH   8   9
ATOM      9  O   TYR A   1      36.612 -18.149 -22.966  0.00  0.00    -0.479 OA
ATOM     10  H   TYR A   1      36.527 -18.742 -23.686  0.00  0.00    +0.295 HD
ENDBRANCH   8   9
ENDBRANCH   1   8
BRANCH   1  11
ATOM     11  CB  TYR A   1      34.069 -19.074 -21.866  0.00  0.00    +0.057 C 
BRANCH  11  12
ATOM     12  CG  TYR A   1      34.311 -20.101 -20.786  0.00  0.00    -0.020 C 
ATOM     13  CD1 TYR A   1      33.229 -20.714 -20.177  0.00  0.00    -0.001 C 
ATOM     14  CD2 TYR A   1      35.613 -20.411 -20.425  0.00  0.00    -0.001 C 
ATOM     15  CE1 TYR A   1      33.453 -21.662 -19.179  0.00  0.00    +0.036 C 
ATOM     16  CE2 TYR A   1      35.837 -21.360 -19.427  0.00  0.00    +0.036 C 
ATOM     17  CZ  TYR A   1      34.757 -21.985 -18.804  0.00  0.00    +0.134 C 
BRANCH  17  18
ATOM     18  OH  TYR A   1      34.975 -22.910 -17.830  0.00  0.00    -0.506 OA
ATOM     19  HH  TYR A   1      34.539 -23.739 -17.864  0.00  0.00    +0.292 HD
ENDBRANCH  17  18
ENDBRANCH  11  12
ENDBRANCH   1  11
TORSDOF 6
ENDMDL
MODEL 2
REMARK VINA RESULT:      -8.0      0.418      1.450
REMARK  Name = 68310
REMARK  6 active torsions:
REMARK  status: ('A' for Active; 'I' for Inactive)
REMARK    1  A    between atoms: CA_1  and  N_3
REMARK    2  A    between atoms: CA_1  and  C_8
REMARK    3  A    between atoms: CA_1  and  CB_11
REMARK    4  A    between atoms: C_8  and  O_9
REMARK    5  A    between atoms: CB_11  and  CG_12
REMARK    6  A    between atoms: CZ_17  and  OH_18
REMARK                            x       y       z     vdW  Elec       q    Type
REMARK                         _______ _______ _______ _____ _____    ______ ____
ROOT
ATOM      1  CA  TYR A   1      34.546 -17.784 -21.746  0.00  0.00    +0.176 C 
ENDROOT
BRANCH   1   3
ATOM      2  O   UNK A   0      35.029 -15.426 -20.124  0.00  0.00    -0.275 OA
ATOM      3  N   TYR A   1      33.615 -16.728 -21.437  0.00  0.00    -0.297 N 
ATOM      4  C   UNK A   0      33.939 -15.636 -20.648  0.00  0.00    +0.223 C 
ATOM      5  C   UNK A   0      32.791 -14.672 -20.506  0.00  0.00    +0.095 C 
ATOM      6  H   TYR A   1      32.703 -16.787 -21.804  0.00  0.00    +0.150 HD
ENDBRANCH   1   3
BRANCH   1   8
ATOM      7  OXT TYR A   1      35.573 -18.350 -23.862  0.00  0.00    -0.248 OA
ATOM      8  C   TYR A   1      35.306 -17.488 -23.031  0.00  0.00    +0.332 C 
BRANCH   8   9
ATOM      9  O   TYR A   1      35.664 -16.192 -23.194  0.00  0.00    -0.479 OA
ATOM     10  H   TYR A   1      36.448 -15.978 -23.660  0.00  0.00    +0.295 HD
ENDBRANCH   8   9
ENDBRANCH   1   8
BRANCH   1  11
ATOM     11  CB  TYR A   1      33.831 -19.137 -21.861  0.00  0.00    +0.057 C 
BRANCH  11  12
ATOM     12  CG  TYR A   1      34.236 -20.111 -20.780  0.00  0.00    -0.020 C 
ATOM     13  CD1 TYR A   1      35.580 -20.298 -20.502  0.00  0.00    -0.001 C 
ATOM     14  CD2 TYR A   1      33.254 -20.799 -20.085  0.00  0.00    -0.001 C 
ATOM     15  CE1 TYR A   1      35.954 -21.197 -19.505  0.00  0.00    +0.036 C 
ATOM     16  CE2 TYR A   1      33.627 -21.699 -19.086  0.00  0.00    +0.036 C 
ATOM     17  CZ  TYR A   1      34.977 -21.898 -18.796  0.00  0.00    +0.134 C 
BRANCH  17  18
ATOM     18  OH  TYR A   1      35.342 -22.776 -17.823  0.00  0.00    -0.506 OA
ATOM     19  HH  TYR A   1      34.692 -23.295 -17.391  0.00  0.00    +0.292 HD
ENDBRANCH  17  18
ENDBRANCH  11  12
ENDBRANCH   1  11
TORSDOF 6
ENDMDL
MODEL 3
REMARK VINA RESULT:      -7.7      1.544      3.188
REMARK  Name = 68310
REMARK  6 active torsions:
REMARK  status: ('A' for Active; 'I' for Inactive)
REMARK    1  A    between atoms: CA_1  and  N_3
REMARK    2  A    between atoms: CA_1  and  C_8
REMARK    3  A    between atoms: CA_1  and  CB_11
REMARK    4  A    between atoms: C_8  and  O_9
REMARK    5  A    between atoms: CB_11  and  CG_12
REMARK    6  A    between atoms: CZ_17  and  OH_18
REMARK                            x       y       z     vdW  Elec       q    Type
REMARK                         _______ _______ _______ _____ _____    ______ ____
ROOT
ATOM      1  CA  TYR A   1      34.434 -17.459 -21.778  0.00  0.00    +0.176 C 
ENDROOT
BRANCH   1   3
ATOM      2  O   UNK A   0      34.353 -18.983 -24.247  0.00  0.00    -0.275 OA
ATOM      3  N   TYR A   1      34.671 -16.973 -23.114  0.00  0.00    -0.297 N 
ATOM      4  C   UNK A   0      34.610 -17.782 -24.238  0.00  0.00    +0.223 C 
ATOM      5  C   UNK A   0      34.873 -17.017 -25.508  0.00  0.00    +0.095 C 
ATOM      6  H   TYR A   1      34.887 -16.020 -23.233  0.00  0.00    +0.150 HD
ENDBRANCH   1   3
BRANCH   1   8
ATOM      7  OXT TYR A   1      35.069 -15.984 -19.968  0.00  0.00    -0.248 OA
ATOM      8  C   TYR A   1      34.231 -16.308 -20.803  0.00  0.00    +0.332 C 
BRANCH   8   9
ATOM      9  O   TYR A   1      33.049 -15.658 -20.929  0.00  0.00    -0.479 OA
ATOM     10  H   TYR A   1      32.270 -16.026 -20.560  0.00  0.00    +0.295 HD
ENDBRANCH   8   9
ENDBRANCH   1   8
BRANCH   1  11
ATOM     11  CB  TYR A   1      35.587 -18.351 -21.300  0.00  0.00    +0.057 C 
BRANCH  11  12
ATOM     12  CG  TYR A   1      35.113 -19.643 -20.677  0.00  0.00    -0.020 C 
ATOM     13  CD1 TYR A   1      36.044 -20.540 -20.181  0.00  0.00    -0.001 C 
ATOM     14  CD2 TYR A   1      33.754 -19.907 -20.615  0.00  0.00    -0.001 C 
ATOM     15  CE1 TYR A   1      35.607 -21.732 -19.606  0.00  0.00    +0.036 C 
ATOM     16  CE2 TYR A   1      33.315 -21.100 -20.040  0.00  0.00    +0.036 C 
ATOM     17  CZ  TYR A   1      34.242 -22.012 -19.536  0.00  0.00    +0.134 C 
BRANCH  17  18
ATOM     18  OH  TYR A   1      33.815 -23.177 -18.976  0.00  0.00    -0.506 OA
ATOM     19  HH  TYR A   1      33.469 -23.859 -19.518  0.00  0.00    +0.292 HD
ENDBRANCH  17  18
ENDBRANCH  11  12
ENDBRANCH   1  11
TORSDOF 6
ENDMDL
MODEL 4
REMARK VINA RESULT:      -7.7      2.268      5.921
REMARK  Name = 68310
REMARK  6 active torsions:
REMARK  status: ('A' for Active; 'I' for Inactive)
REMARK    1  A    between atoms: CA_1  and  N_3
REMARK    2  A    between atoms: CA_1  and  C_8
REMARK    3  A    between atoms: CA_1  and  CB_11
REMARK    4  A    between atoms: C_8  and  O_9
REMARK    5  A    between atoms: CB_11  and  CG_12
REMARK    6  A    between atoms: CZ_17  and  OH_18
REMARK                            x       y       z     vdW  Elec       q    Type
REMARK                         _______ _______ _______ _____ _____    ______ ____
ROOT
ATOM      1  CA  TYR A   1      34.516 -18.383 -21.631  0.00  0.00    +0.176 C 
ENDROOT
BRANCH   1   3
ATOM      2  O   UNK A   0      32.512 -20.350 -20.896  0.00  0.00    -0.275 OA
ATOM      3  N   TYR A   1      34.655 -19.465 -20.689  0.00  0.00    -0.297 N 
ATOM      4  C   UNK A   0      33.636 -20.359 -20.402  0.00  0.00    +0.223 C 
ATOM      5  C   UNK A   0      34.055 -21.405 -19.403  0.00  0.00    +0.095 C 
ATOM      6  H   TYR A   1      35.518 -19.574 -20.227  0.00  0.00    +0.150 HD
ENDBRANCH   1   3
BRANCH   1   8
ATOM      7  OXT TYR A   1      34.807 -19.329 -23.839  0.00  0.00    -0.248 OA
ATOM      8  C   TYR A   1      35.278 -18.672 -22.917  0.00  0.00    +0.332 C 
BRANCH   8   9
ATOM      9  O   TYR A   1      36.524 -18.142 -22.971  0.00  0.00    -0.479 OA
ATOM     10  H   TYR A   1      36.782 -17.627 -23.710  0.00  0.00    +0.295 HD
ENDBRANCH   8   9
ENDBRANCH   1   8
BRANCH   1  11
ATOM     11  CB  TYR A   1      34.995 -17.057 -21.026  0.00  0.00    +0.057 C 
BRANCH  11  12
ATOM     12  CG  TYR A   1      34.152 -15.878 -21.449  0.00  0.00    -0.020 C 
ATOM     13  CD1 TYR A   1      33.103 -15.468 -20.643  0.00  0.00    -0.001 C 
ATOM     14  CD2 TYR A   1      34.444 -15.228 -22.638  0.00  0.00    -0.001 C 
ATOM     15  CE1 TYR A   1      32.324 -14.380 -21.034  0.00  0.00    +0.036 C 
ATOM     16  CE2 TYR A   1      33.664 -14.139 -23.030  0.00  0.00    +0.036 C 
ATOM     17  CZ  TYR A   1      32.605 -13.715 -22.228  0.00  0.00    +0.134 C 
BRANCH  17  18
ATOM     18  OH  TYR A   1      31.843 -12.654 -22.610  0.00  0.00    -0.506 OA
ATOM     19  HH  TYR A   1      30.959 -12.787 -22.889  0.00  0.00    +0.292 HD
ENDBRANCH  17  18
ENDBRANCH  11  12
ENDBRANCH   1  11
TORSDOF 6
ENDMDL
MODEL 5
REMARK VINA RESULT:      -7.5      2.627      6.162
REMARK  Name = 68310
REMARK  6 active torsions:
REMARK  status: ('A' for Active; 'I' for Inactive)
REMARK    1  A    between atoms: CA_1  and  N_3
REMARK    2  A    between atoms: CA_1  and  C_8
REMARK    3  A    between atoms: CA_1  and  CB_11
REMARK    4  A    between atoms: C_8  and  O_9
REMARK    5  A    between atoms: CB_11  and  CG_12
REMARK    6  A    between atoms: CZ_17  and  OH_18
REMARK                            x       y       z     vdW  Elec       q    Type
REMARK                         _______ _______ _______ _____ _____    ______ ____
ROOT
ATOM      1  CA  TYR A   1      34.790 -22.054 -18.313  0.00  0.00    +0.176 C 
ENDROOT
BRANCH   1   3
ATOM      2  O   UNK A   0      37.194 -20.795 -17.282  0.00  0.00    -0.275 OA
ATOM      3  N   TYR A   1      35.703 -22.583 -17.331  0.00  0.00    -0.297 N 
ATOM      4  C   UNK A   0      36.831 -21.904 -16.899  0.00  0.00    +0.223 C 
ATOM      5  C   UNK A   0      37.596 -22.671 -15.853  0.00  0.00    +0.095 C 
ATOM      6  H   TYR A   1      35.515 -23.471 -16.950  0.00  0.00    +0.150 HD
ENDBRANCH   1   3
BRANCH   1   8
ATOM      7  OXT TYR A   1      32.417 -22.490 -18.128  0.00  0.00    -0.248 OA
ATOM      8  C   TYR A   1      33.535 -22.909 -18.413  0.00  0.00    +0.332 C 
BRANCH   8   9
ATOM      9  O   TYR A   1      33.742 -24.175 -18.847  0.00  0.00    -0.479 OA
ATOM     10  H   TYR A   1      34.555 -24.604 -18.668  0.00  0.00    +0.295 HD
ENDBRANCH   8   9
ENDBRANCH   1   8
BRANCH   1  11
ATOM     11  CB  TYR A   1      35.459 -21.944 -19.690  0.00  0.00    +0.057 C 
BRANCH  11  12
ATOM     12  CG  TYR A   1      35.283 -20.584 -20.323  0.00  0.00    -0.020 C 
ATOM     13  CD1 TYR A   1      34.006 -20.116 -20.583  0.00  0.00    -0.001 C 
ATOM     14  CD2 TYR A   1      36.404 -19.830 -20.632  0.00  0.00    -0.001 C 
ATOM     15  CE1 TYR A   1      33.843 -18.861 -21.168  0.00  0.00    +0.036 C 
ATOM     16  CE2 TYR A   1      36.242 -18.574 -21.218  0.00  0.00    +0.036 C 
ATOM     17  CZ  TYR A   1      34.961 -18.090 -21.485  0.00  0.00    +0.134 C 
BRANCH  17  18
ATOM     18  OH  TYR A   1      34.803 -16.865 -22.057  0.00  0.00    -0.506 OA
ATOM     19  HH  TYR A   1      34.214 -16.757 -22.778  0.00  0.00    +0.292 HD
ENDBRANCH  17  18
ENDBRANCH  11  12
ENDBRANCH   1  11
TORSDOF 6
ENDMDL
MODEL 6
REMARK VINA RESULT:      -7.4      3.356      5.066
REMARK  Name = 68310
REMARK  6 active torsions:
REMARK  status: ('A' for Active; 'I' for Inactive)
REMARK    1  A    between atoms: CA_1  and  N_3
REMARK    2  A    between atoms: CA_1  and  C_8
REMARK    3  A    between atoms: CA_1  and  CB_11
REMARK    4  A    between atoms: C_8  and  O_9
REMARK    5  A    between atoms: CB_11  and  CG_12
REMARK    6  A    between atoms: CZ_17  and  OH_18
REMARK                            x       y       z     vdW  Elec       q    Type
REMARK                         _______ _______ _______ _____ _____    ______ ____
ROOT
ATOM      1  CA  TYR A   1      33.226 -14.699 -23.802  0.00  0.00    +0.176 C 
ENDROOT
BRANCH   1   3
ATOM      2  O   UNK A   0      33.341 -15.586 -26.564  0.00  0.00    -0.275 OA
ATOM      3  N   TYR A   1      33.196 -13.879 -24.987  0.00  0.00    -0.297 N 
ATOM      4  C   UNK A   0      33.257 -14.396 -26.271  0.00  0.00    +0.223 C 
ATOM      5  C   UNK A   0      33.182 -13.322 -27.324  0.00  0.00    +0.095 C 
ATOM      6  H   TYR A   1      33.130 -12.903 -24.877  0.00  0.00    +0.150 HD
ENDBRANCH   1   3
BRANCH   1   8
ATOM      7  OXT TYR A   1      32.094 -14.631 -21.665  0.00  0.00    -0.248 OA
ATOM      8  C   TYR A   1      32.509 -14.020 -22.645  0.00  0.00    +0.332 C 
BRANCH   8   9
ATOM      9  O   TYR A   1      32.365 -12.679 -22.773  0.00  0.00    -0.479 OA
ATOM     10  H   TYR A   1      33.117 -12.140 -22.922  0.00  0.00    +0.295 HD
ENDBRANCH   8   9
ENDBRANCH   1   8
BRANCH   1  11
ATOM     11  CB  TYR A   1      34.668 -15.036 -23.398  0.00  0.00    +0.057 C 
BRANCH  11  12
ATOM     12  CG  TYR A   1      34.818 -16.444 -22.873  0.00  0.00    -0.020 C 
ATOM     13  CD1 TYR A   1      34.829 -17.504 -23.763  0.00  0.00    -0.001 C 
ATOM     14  CD2 TYR A   1      34.943 -16.648 -21.507  0.00  0.00    -0.001 C 
ATOM     15  CE1 TYR A   1      34.967 -18.804 -23.278  0.00  0.00    +0.036 C 
ATOM     16  CE2 TYR A   1      35.081 -17.949 -21.021  0.00  0.00    +0.036 C 
ATOM     17  CZ  TYR A   1      35.094 -19.027 -21.907  0.00  0.00    +0.134 C 
BRANCH  17  18
ATOM     18  OH  TYR A   1      35.228 -20.295 -21.433  0.00  0.00    -0.506 OA
ATOM     19  HH  TYR A   1      35.861 -20.483 -20.769  0.00  0.00    +0.292 HD
ENDBRANCH  17  18
ENDBRANCH  11  12
ENDBRANCH   1  11
TORSDOF 6
ENDMDL
MODEL 7
REMARK VINA RESULT:      -7.4      2.553      6.052
REMARK  Name = 68310
REMARK  6 active torsions:
REMARK  status: ('A' for Active; 'I' for Inactive)
REMARK    1  A    between atoms: CA_1  and  N_3
REMARK    2  A    between atoms: CA_1  and  C_8
REMARK    3  A    between atoms: CA_1  and  CB_11
REMARK    4  A    between atoms: C_8  and  O_9
REMARK    5  A    between atoms: CB_11  and  CG_12
REMARK    6  A    between atoms: CZ_17  and  OH_18
REMARK                            x       y       z     vdW  Elec       q    Type
REMARK                         _______ _______ _______ _____ _____    ______ ____
ROOT
ATOM      1  CA  TYR A   1      34.572 -18.137 -23.085  0.00  0.00    +0.176 C 
ENDROOT
BRANCH   1   3
ATOM      2  O   UNK A   0      33.236 -19.437 -20.860  0.00  0.00    -0.275 OA
ATOM      3  N   TYR A   1      35.146 -19.057 -22.136  0.00  0.00    -0.297 N 
ATOM      4  C   UNK A   0      34.425 -19.630 -21.101  0.00  0.00    +0.223 C 
ATOM      5  C   UNK A   0      35.259 -20.572 -20.274  0.00  0.00    +0.095 C 
ATOM      6  H   TYR A   1      36.098 -19.290 -22.229  0.00  0.00    +0.150 HD
ENDBRANCH   1   3
BRANCH   1   8
ATOM      7  OXT TYR A   1      34.923 -19.844 -24.763  0.00  0.00    -0.248 OA
ATOM      8  C   TYR A   1      34.691 -18.667 -24.506  0.00  0.00    +0.332 C 
BRANCH   8   9
ATOM      9  O   TYR A   1      34.516 -17.738 -25.477  0.00  0.00    -0.479 OA
ATOM     10  H   TYR A   1      34.059 -17.963 -26.263  0.00  0.00    +0.295 HD
ENDBRANCH   8   9
ENDBRANCH   1   8
BRANCH   1  11
ATOM     11  CB  TYR A   1      35.232 -16.755 -22.985  0.00  0.00    +0.057 C 
BRANCH  11  12
ATOM     12  CG  TYR A   1      34.243 -15.650 -22.700  0.00  0.00    -0.020 C 
ATOM     13  CD1 TYR A   1      33.545 -15.655 -21.504  0.00  0.00    -0.001 C 
ATOM     14  CD2 TYR A   1      34.054 -14.650 -23.641  0.00  0.00    -0.001 C 
ATOM     15  CE1 TYR A   1      32.632 -14.635 -21.240  0.00  0.00    +0.036 C 
ATOM     16  CE2 TYR A   1      33.140 -13.628 -23.377  0.00  0.00    +0.036 C 
ATOM     17  CZ  TYR A   1      32.429 -13.621 -22.177  0.00  0.00    +0.134 C 
BRANCH  17  18
ATOM     18  OH  TYR A   1      31.538 -12.626 -21.920  0.00  0.00    -0.506 OA
ATOM     19  HH  TYR A   1      30.646 -12.714 -22.193  0.00  0.00    +0.292 HD
ENDBRANCH  17  18
ENDBRANCH  11  12
ENDBRANCH   1  11
TORSDOF 6
ENDMDL
MODEL 8
REMARK VINA RESULT:      -7.3      3.427      7.181
REMARK  Name = 68310
REMARK  6 active torsions:
REMARK  status: ('A' for Active; 'I' for Inactive)
REMARK    1  A    between atoms: CA_1  and  N_3
REMARK    2  A    between atoms: CA_1  and  C_8
REMARK    3  A    between atoms: CA_1  and  CB_11
REMARK    4  A    between atoms: C_8  and  O_9
REMARK    5  A    between atoms: CB_11  and  CG_12
REMARK    6  A    between atoms: CZ_17  and  OH_18
REMARK                            x       y       z     vdW  Elec       q    Type
REMARK                         _______ _______ _______ _____ _____    ______ ____
ROOT
ATOM      1  CA  TYR A   1      33.444 -22.968 -16.899  0.00  0.00    +0.176 C 
ENDROOT
BRANCH   1   3
ATOM      2  O   UNK A   0      36.046 -22.222 -15.851  0.00  0.00    -0.275 OA
ATOM      3  N   TYR A   1      34.330 -23.776 -16.100  0.00  0.00    -0.297 N 
ATOM      4  C   UNK A   0      35.561 -23.331 -15.644  0.00  0.00    +0.223 C 
ATOM      5  C   UNK A   0      36.271 -24.365 -14.812  0.00  0.00    +0.095 C 
ATOM      6  H   TYR A   1      34.047 -24.690 -15.868  0.00  0.00    +0.150 HD
ENDBRANCH   1   3
BRANCH   1   8
ATOM      7  OXT TYR A   1      31.656 -23.927 -15.581  0.00  0.00    -0.248 OA
ATOM      8  C   TYR A   1      31.993 -23.173 -16.488  0.00  0.00    +0.332 C 
BRANCH   8   9
ATOM      9  O   TYR A   1      31.093 -22.453 -17.200  0.00  0.00    -0.479 OA
ATOM     10  H   TYR A   1      30.216 -22.355 -16.883  0.00  0.00    +0.295 HD
ENDBRANCH   8   9
ENDBRANCH   1   8
BRANCH   1  11
ATOM     11  CB  TYR A   1      33.612 -23.272 -18.394  0.00  0.00    +0.057 C 
BRANCH  11  12
ATOM     12  CG  TYR A   1      34.141 -22.095 -19.178  0.00  0.00    -0.020 C 
ATOM     13  CD1 TYR A   1      35.509 -21.908 -19.283  0.00  0.00    -0.001 C 
ATOM     14  CD2 TYR A   1      33.246 -21.222 -19.778  0.00  0.00    -0.001 C 
ATOM     15  CE1 TYR A   1      35.998 -20.821 -20.007  0.00  0.00    +0.036 C 
ATOM     16  CE2 TYR A   1      33.735 -20.134 -20.502  0.00  0.00    +0.036 C 
ATOM     17  CZ  TYR A   1      35.110 -19.934 -20.617  0.00  0.00    +0.134 C 
BRANCH  17  18
ATOM     18  OH  TYR A   1      35.587 -18.872 -21.322  0.00  0.00    -0.506 OA
ATOM     19  HH  TYR A   1      35.232 -18.017 -21.179  0.00  0.00    +0.292 HD
ENDBRANCH  17  18
ENDBRANCH  11  12
ENDBRANCH   1  11
TORSDOF 6
ENDMDL
MODEL 9
REMARK VINA RESULT:      -7.3      8.125      9.692
REMARK  Name = 68310
REMARK  6 active torsions:
REMARK  status: ('A' for Active; 'I' for Inactive)
REMARK    1  A    between atoms: CA_1  and  N_3
REMARK    2  A    between atoms: CA_1  and  C_8
REMARK    3  A    between atoms: CA_1  and  CB_11
REMARK    4  A    between atoms: C_8  and  O_9
REMARK    5  A    between atoms: CB_11  and  CG_12
REMARK    6  A    between atoms: CZ_17  and  OH_18
REMARK                            x       y       z     vdW  Elec       q    Type
REMARK                         _______ _______ _______ _____ _____    ______ ____
ROOT
ATOM      1  CA  TYR A   1      35.095 -24.400 -14.221  0.00  0.00    +0.176 C 
ENDROOT
BRANCH   1   3
ATOM      2  O   UNK A   0      35.180 -24.915 -11.365  0.00  0.00    -0.275 OA
ATOM      3  N   TYR A   1      35.861 -23.693 -13.226  0.00  0.00    -0.297 N 
ATOM      4  C   UNK A   0      35.837 -24.013 -11.878  0.00  0.00    +0.223 C 
ATOM      5  C   UNK A   0      36.748 -23.133 -11.064  0.00  0.00    +0.095 C 
ATOM      6  H   TYR A   1      36.430 -22.944 -13.520  0.00  0.00    +0.150 HD
ENDBRANCH   1   3
BRANCH   1   8
ATOM      7  OXT TYR A   1      35.824 -26.229 -15.628  0.00  0.00    -0.248 OA
ATOM      8  C   TYR A   1      36.005 -25.081 -15.233  0.00  0.00    +0.332 C 
BRANCH   8   9
ATOM      9  O   TYR A   1      37.034 -24.320 -15.675  0.00  0.00    -0.479 OA
ATOM     10  H   TYR A   1      37.700 -24.041 -15.078  0.00  0.00    +0.295 HD
ENDBRANCH   8   9
ENDBRANCH   1   8
BRANCH   1  11
ATOM     11  CB  TYR A   1      34.121 -23.459 -14.943  0.00  0.00    +0.057 C 
BRANCH  11  12
ATOM     12  CG  TYR A   1      32.682 -23.905 -14.833  0.00  0.00    -0.020 C 
ATOM     13  CD1 TYR A   1      32.303 -24.726 -13.784  0.00  0.00    -0.001 C 
ATOM     14  CD2 TYR A   1      31.768 -23.483 -15.786  0.00  0.00    -0.001 C 
ATOM     15  CE1 TYR A   1      30.975 -25.138 -13.684  0.00  0.00    +0.036 C 
ATOM     16  CE2 TYR A   1      30.438 -23.895 -15.685  0.00  0.00    +0.036 C 
ATOM     17  CZ  TYR A   1      30.042 -24.722 -14.634  0.00  0.00    +0.134 C 
BRANCH  17  18
ATOM     18  OH  TYR A   1      28.746 -25.124 -14.536  0.00  0.00    -0.506 OA
ATOM     19  HH  TYR A   1      28.334 -25.180 -13.696  0.00  0.00    +0.292 HD
ENDBRANCH  17  18
ENDBRANCH  11  12
ENDBRANCH   1  11
TORSDOF 6
ENDMDL
