MODEL 1
REMARK VINA RESULT:      -8.9      0.000      0.000
REMARK  Name = 5287586
REMARK  10 active torsions:
REMARK  status: ('A' for Active; 'I' for Inactive)
REMARK    1  A    between atoms: C_8  and  N_16
REMARK    2  A    between atoms: N_16  and  C_18
REMARK    3  A    between atoms: C_18  and  C_19
REMARK    4  A    between atoms: C_19  and  C_20
REMARK    5  A    between atoms: C_20  and  C_21
REMARK    6  A    between atoms: C_21  and  C_22
REMARK    7  A    between atoms: C_22  and  C_23
REMARK    8  A    between atoms: C_23  and  C_24
REMARK    9  A    between atoms: C_24  and  C_25
REMARK   10  A    between atoms: C_25  and  N_26
REMARK                            x       y       z     vdW  Elec       q    Type
REMARK                         _______ _______ _______ _____ _____    ______ ____
ROOT
ATOM      1  N   UNL     1      34.219 -16.950 -24.842  0.00  0.00    -0.316 N 
ATOM      2  C   UNL     1      34.625 -16.628 -22.528  0.00  0.00    -0.000 C 
ATOM      3  C   UNL     1      34.991 -17.170 -21.171  0.00  0.00    +0.029 C 
ATOM      4  C   UNL     1      34.575 -17.461 -23.652  0.00  0.00    +0.022 C 
ATOM      5  C   UNL     1      35.696 -18.527 -21.237  0.00  0.00    +0.005 C 
ATOM      6  C   UNL     1      34.960 -18.908 -23.606  0.00  0.00    +0.041 C 
ATOM      7  C   UNL     1      34.964 -19.471 -22.186  0.00  0.00    +0.006 C 
ATOM      8  C   UNL     1      34.269 -15.286 -22.673  0.00  0.00    +0.039 C 
ATOM      9  C   UNL     1      33.894 -14.782 -23.925  0.00  0.00    +0.008 C 
ATOM     10  C   UNL     1      33.877 -15.661 -25.027  0.00  0.00    +0.046 C 
ATOM     11  C   UNL     1      33.534 -13.439 -24.122  0.00  0.00    +0.055 C 
ATOM     12  C   UNL     1      33.510 -15.199 -26.294  0.00  0.00    +0.014 C 
ATOM     13  C   UNL     1      33.168 -12.985 -25.390  0.00  0.00    -0.021 C 
ATOM     14  C   UNL     1      33.156 -13.862 -26.473  0.00  0.00    -0.003 C 
ATOM     15  H   UNL     1      34.205 -17.551 -25.623  0.00  0.00    +0.152 HD
ENDROOT
BRANCH   8  16
ATOM     16  N   UNL     1      34.281 -14.454 -21.565  0.00  0.00    -0.333 N 
ATOM     17  H   UNL     1      35.075 -13.889 -21.416  0.00  0.00    +0.147 HD
BRANCH  16  18
ATOM     18  C   UNL     1      33.198 -14.369 -20.614  0.00  0.00    +0.087 C 
BRANCH  18  19
ATOM     19  C   UNL     1      32.144 -13.365 -21.074  0.00  0.00    +0.021 C 
BRANCH  19  20
ATOM     20  C   UNL     1      32.026 -12.163 -20.131  0.00  0.00    +0.002 C 
BRANCH  20  21
ATOM     21  C   UNL     1      30.910 -11.215 -20.580  0.00  0.00    +0.000 C 
BRANCH  21  22
ATOM     22  C   UNL     1      31.026 -10.885 -22.068  0.00  0.00    -0.000 C 
BRANCH  22  23
ATOM     23  C   UNL     1      32.200  -9.944 -22.340  0.00  0.00    -0.002 C 
BRANCH  23  24
ATOM     24  C   UNL     1      31.827  -8.490 -22.049  0.00  0.00    -0.024 C 
BRANCH  24  25
ATOM     25  C   UNL     1      32.913  -7.799 -21.236  0.00  0.00    -0.086 C 
BRANCH  25  26
ATOM     26  N   UNL     1      32.767  -8.178 -19.810  0.00  0.00    +0.380 N 
ATOM     27  H   UNL     1      32.937  -7.362 -19.222  0.00  0.00    -0.089 HD
ATOM     28  H   UNL     1      33.442  -8.908 -19.582  0.00  0.00    -0.089 HD
ATOM     29  H   UNL     1      31.822  -8.525 -19.644  0.00  0.00    -0.089 HD
ENDBRANCH  25  26
ENDBRANCH  24  25
ENDBRANCH  23  24
ENDBRANCH  22  23
ENDBRANCH  21  22
ENDBRANCH  20  21
ENDBRANCH  19  20
ENDBRANCH  18  19
ENDBRANCH  16  18
ENDBRANCH   8  16
TORSDOF 10
ENDMDL
MODEL 2
REMARK VINA RESULT:      -8.9      0.986      3.916
REMARK  Name = 5287586
REMARK  10 active torsions:
REMARK  status: ('A' for Active; 'I' for Inactive)
REMARK    1  A    between atoms: C_8  and  N_16
REMARK    2  A    between atoms: N_16  and  C_18
REMARK    3  A    between atoms: C_18  and  C_19
REMARK    4  A    between atoms: C_19  and  C_20
REMARK    5  A    between atoms: C_20  and  C_21
REMARK    6  A    between atoms: C_21  and  C_22
REMARK    7  A    between atoms: C_22  and  C_23
REMARK    8  A    between atoms: C_23  and  C_24
REMARK    9  A    between atoms: C_24  and  C_25
REMARK   10  A    between atoms: C_25  and  N_26
REMARK                            x       y       z     vdW  Elec       q    Type
REMARK                         _______ _______ _______ _____ _____    ______ ____
ROOT
ATOM      1  N   UNL     1      33.877 -16.465 -25.588  0.00  0.00    -0.316 N 
ATOM      2  C   UNL     1      34.056 -14.523 -24.238  0.00  0.00    -0.000 C 
ATOM      3  C   UNL     1      33.949 -13.031 -24.062  0.00  0.00    +0.029 C 
ATOM      4  C   UNL     1      33.744 -15.134 -25.458  0.00  0.00    +0.022 C 
ATOM      5  C   UNL     1      33.086 -12.362 -25.134  0.00  0.00    +0.005 C 
ATOM      6  C   UNL     1      33.204 -14.373 -26.630  0.00  0.00    +0.041 C 
ATOM      7  C   UNL     1      33.458 -12.871 -26.523  0.00  0.00    +0.006 C 
ATOM      8  C   UNL     1      34.531 -15.319 -23.193  0.00  0.00    +0.039 C 
ATOM      9  C   UNL     1      34.668 -16.703 -23.360  0.00  0.00    +0.008 C 
ATOM     10  C   UNL     1      34.322 -17.269 -24.605  0.00  0.00    +0.046 C 
ATOM     11  C   UNL     1      35.135 -17.546 -22.339  0.00  0.00    +0.055 C 
ATOM     12  C   UNL     1      34.442 -18.646 -24.814  0.00  0.00    +0.014 C 
ATOM     13  C   UNL     1      35.252 -18.920 -22.554  0.00  0.00    -0.021 C 
ATOM     14  C   UNL     1      34.907 -19.468 -23.788  0.00  0.00    -0.003 C 
ATOM     15  H   UNL     1      33.636 -16.875 -26.452  0.00  0.00    +0.152 HD
ENDROOT
BRANCH   8  16
ATOM     16  N   UNL     1      34.877 -14.728 -21.989  0.00  0.00    -0.333 N 
ATOM     17  H   UNL     1      35.656 -14.125 -21.974  0.00  0.00    +0.147 HD
BRANCH  16  18
ATOM     18  C   UNL     1      34.162 -14.947 -20.754  0.00  0.00    +0.087 C 
BRANCH  18  19
ATOM     19  C   UNL     1      32.668 -14.690 -20.934  0.00  0.00    +0.021 C 
BRANCH  19  20
ATOM     20  C   UNL     1      32.255 -13.280 -20.499  0.00  0.00    +0.002 C 
BRANCH  20  21
ATOM     21  C   UNL     1      31.714 -12.472 -21.681  0.00  0.00    +0.000 C 
BRANCH  21  22
ATOM     22  C   UNL     1      31.155 -11.124 -21.224  0.00  0.00    -0.000 C 
BRANCH  22  23
ATOM     23  C   UNL     1      31.115 -11.027 -19.698  0.00  0.00    -0.002 C 
BRANCH  23  24
ATOM     24  C   UNL     1      31.832  -9.772 -19.200  0.00  0.00    -0.024 C 
BRANCH  24  25
ATOM     25  C   UNL     1      32.276  -8.898 -20.365  0.00  0.00    -0.086 C 
BRANCH  25  26
ATOM     26  N   UNL     1      32.967  -7.698 -19.836  0.00  0.00    +0.380 N 
ATOM     27  H   UNL     1      32.942  -6.956 -20.534  0.00  0.00    -0.089 HD
ATOM     28  H   UNL     1      33.937  -7.932 -19.622  0.00  0.00    -0.089 HD
ATOM     29  H   UNL     1      32.499  -7.382 -18.987  0.00  0.00    -0.089 HD
ENDBRANCH  25  26
ENDBRANCH  24  25
ENDBRANCH  23  24
ENDBRANCH  22  23
ENDBRANCH  21  22
ENDBRANCH  20  21
ENDBRANCH  19  20
ENDBRANCH  18  19
ENDBRANCH  16  18
ENDBRANCH   8  16
TORSDOF 10
ENDMDL
MODEL 3
REMARK VINA RESULT:      -8.7      7.841     11.667
REMARK  Name = 5287586
REMARK  10 active torsions:
REMARK  status: ('A' for Active; 'I' for Inactive)
REMARK    1  A    between atoms: C_8  and  N_16
REMARK    2  A    between atoms: N_16  and  C_18
REMARK    3  A    between atoms: C_18  and  C_19
REMARK    4  A    between atoms: C_19  and  C_20
REMARK    5  A    between atoms: C_20  and  C_21
REMARK    6  A    between atoms: C_21  and  C_22
REMARK    7  A    between atoms: C_22  and  C_23
REMARK    8  A    between atoms: C_23  and  C_24
REMARK    9  A    between atoms: C_24  and  C_25
REMARK   10  A    between atoms: C_25  and  N_26
REMARK                            x       y       z     vdW  Elec       q    Type
REMARK                         _______ _______ _______ _____ _____    ______ ____
ROOT
ATOM      1  N   UNL     1      33.758 -23.885 -13.048  0.00  0.00    -0.316 N 
ATOM      2  C   UNL     1      35.896 -23.708 -14.061  0.00  0.00    -0.000 C 
ATOM      3  C   UNL     1      37.398 -23.714 -13.966  0.00  0.00    +0.029 C 
ATOM      4  C   UNL     1      35.097 -23.925 -12.932  0.00  0.00    +0.022 C 
ATOM      5  C   UNL     1      37.916 -24.391 -12.694  0.00  0.00    +0.005 C 
ATOM      6  C   UNL     1      35.667 -24.262 -11.588  0.00  0.00    +0.041 C 
ATOM      7  C   UNL     1      37.146 -23.902 -11.470  0.00  0.00    +0.006 C 
ATOM      8  C   UNL     1      35.272 -23.422 -15.277  0.00  0.00    +0.039 C 
ATOM      9  C   UNL     1      33.875 -23.379 -15.367  0.00  0.00    +0.008 C 
ATOM     10  C   UNL     1      33.118 -23.622 -14.202  0.00  0.00    +0.046 C 
ATOM     11  C   UNL     1      33.202 -23.102 -16.568  0.00  0.00    +0.055 C 
ATOM     12  C   UNL     1      31.721 -23.590 -14.247  0.00  0.00    +0.014 C 
ATOM     13  C   UNL     1      31.807 -23.072 -16.605  0.00  0.00    -0.021 C 
ATOM     14  C   UNL     1      31.068 -23.315 -15.448  0.00  0.00    -0.003 C 
ATOM     15  H   UNL     1      33.216 -24.056 -12.243  0.00  0.00    +0.152 HD
ENDROOT
BRANCH   8  16
ATOM     16  N   UNL     1      36.047 -23.172 -16.398  0.00  0.00    -0.333 N 
ATOM     17  H   UNL     1      36.058 -23.846 -17.116  0.00  0.00    +0.147 HD
BRANCH  16  18
ATOM     18  C   UNL     1      36.842 -21.980 -16.573  0.00  0.00    +0.087 C 
BRANCH  18  19
ATOM     19  C   UNL     1      36.720 -21.444 -17.998  0.00  0.00    +0.021 C 
BRANCH  19  20
ATOM     20  C   UNL     1      35.555 -22.075 -18.766  0.00  0.00    +0.002 C 
BRANCH  20  21
ATOM     21  C   UNL     1      34.998 -21.111 -19.817  0.00  0.00    +0.000 C 
BRANCH  21  22
ATOM     22  C   UNL     1      33.474 -21.020 -19.737  0.00  0.00    -0.000 C 
BRANCH  22  23
ATOM     23  C   UNL     1      32.923 -20.009 -20.743  0.00  0.00    -0.002 C 
BRANCH  23  24
ATOM     24  C   UNL     1      34.039 -19.416 -21.604  0.00  0.00    -0.024 C 
BRANCH  24  25
ATOM     25  C   UNL     1      34.086 -17.900 -21.471  0.00  0.00    -0.086 C 
BRANCH  25  26
ATOM     26  N   UNL     1      35.320 -17.514 -20.747  0.00  0.00    +0.380 N 
ATOM     27  H   UNL     1      35.382 -18.039 -19.875  0.00  0.00    -0.089 HD
ATOM     28  H   UNL     1      35.295 -16.515 -20.542  0.00  0.00    -0.089 HD
ATOM     29  H   UNL     1      36.134 -17.722 -21.326  0.00  0.00    -0.089 HD
ENDBRANCH  25  26
ENDBRANCH  24  25
ENDBRANCH  23  24
ENDBRANCH  22  23
ENDBRANCH  21  22
ENDBRANCH  20  21
ENDBRANCH  19  20
ENDBRANCH  18  19
ENDBRANCH  16  18
ENDBRANCH   8  16
TORSDOF 10
ENDMDL
MODEL 4
REMARK VINA RESULT:      -8.7      7.465     11.394
REMARK  Name = 5287586
REMARK  10 active torsions:
REMARK  status: ('A' for Active; 'I' for Inactive)
REMARK    1  A    between atoms: C_8  and  N_16
REMARK    2  A    between atoms: N_16  and  C_18
REMARK    3  A    between atoms: C_18  and  C_19
REMARK    4  A    between atoms: C_19  and  C_20
REMARK    5  A    between atoms: C_20  and  C_21
REMARK    6  A    between atoms: C_21  and  C_22
REMARK    7  A    between atoms: C_22  and  C_23
REMARK    8  A    between atoms: C_23  and  C_24
REMARK    9  A    between atoms: C_24  and  C_25
REMARK   10  A    between atoms: C_25  and  N_26
REMARK                            x       y       z     vdW  Elec       q    Type
REMARK                         _______ _______ _______ _____ _____    ______ ____
ROOT
ATOM      1  N   UNL     1      33.355 -24.629 -13.840  0.00  0.00    -0.316 N 
ATOM      2  C   UNL     1      32.031 -23.692 -15.571  0.00  0.00    -0.000 C 
ATOM      3  C   UNL     1      30.694 -23.470 -16.229  0.00  0.00    +0.029 C 
ATOM      4  C   UNL     1      32.143 -24.427 -14.385  0.00  0.00    +0.022 C 
ATOM      5  C   UNL     1      29.514 -23.720 -15.286  0.00  0.00    +0.005 C 
ATOM      6  C   UNL     1      30.953 -24.961 -13.648  0.00  0.00    +0.041 C 
ATOM      7  C   UNL     1      29.701 -25.026 -14.519  0.00  0.00    +0.006 C 
ATOM      8  C   UNL     1      33.196 -23.214 -16.175  0.00  0.00    +0.039 C 
ATOM      9  C   UNL     1      34.447 -23.447 -15.589  0.00  0.00    +0.008 C 
ATOM     10  C   UNL     1      34.500 -24.179 -14.385  0.00  0.00    +0.046 C 
ATOM     11  C   UNL     1      35.645 -22.982 -16.155  0.00  0.00    +0.055 C 
ATOM     12  C   UNL     1      35.728 -24.432 -13.765  0.00  0.00    +0.014 C 
ATOM     13  C   UNL     1      36.867 -23.239 -15.531  0.00  0.00    -0.021 C 
ATOM     14  C   UNL     1      36.908 -23.962 -14.340  0.00  0.00    -0.003 C 
ATOM     15  H   UNL     1      33.408 -25.135 -12.997  0.00  0.00    +0.152 HD
ENDROOT
BRANCH   8  16
ATOM     16  N   UNL     1      33.107 -22.513 -17.367  0.00  0.00    -0.333 N 
ATOM     17  H   UNL     1      32.630 -21.652 -17.366  0.00  0.00    +0.147 HD
BRANCH  16  18
ATOM     18  C   UNL     1      33.673 -22.975 -18.612  0.00  0.00    +0.087 C 
BRANCH  18  19
ATOM     19  C   UNL     1      34.145 -21.802 -19.468  0.00  0.00    +0.021 C 
BRANCH  19  20
ATOM     20  C   UNL     1      33.016 -20.819 -19.794  0.00  0.00    +0.002 C 
BRANCH  20  21
ATOM     21  C   UNL     1      33.465 -19.784 -20.828  0.00  0.00    +0.000 C 
BRANCH  21  22
ATOM     22  C   UNL     1      34.983 -19.798 -21.008  0.00  0.00    -0.000 C 
BRANCH  22  23
ATOM     23  C   UNL     1      35.425 -18.805 -22.084  0.00  0.00    -0.002 C 
BRANCH  23  24
ATOM     24  C   UNL     1      34.691 -19.051 -23.404  0.00  0.00    -0.024 C 
BRANCH  24  25
ATOM     25  C   UNL     1      34.866 -17.875 -24.353  0.00  0.00    -0.086 C 
BRANCH  25  26
ATOM     26  N   UNL     1      35.569 -16.779 -23.645  0.00  0.00    +0.380 N 
ATOM     27  H   UNL     1      35.787 -17.073 -22.693  0.00  0.00    -0.089 HD
ATOM     28  H   UNL     1      34.970 -15.953 -23.617  0.00  0.00    -0.089 HD
ATOM     29  H   UNL     1      36.434 -16.554 -24.137  0.00  0.00    -0.089 HD
ENDBRANCH  25  26
ENDBRANCH  24  25
ENDBRANCH  23  24
ENDBRANCH  22  23
ENDBRANCH  21  22
ENDBRANCH  20  21
ENDBRANCH  19  20
ENDBRANCH  18  19
ENDBRANCH  16  18
ENDBRANCH   8  16
TORSDOF 10
ENDMDL
MODEL 5
REMARK VINA RESULT:      -8.6      7.477     11.284
REMARK  Name = 5287586
REMARK  10 active torsions:
REMARK  status: ('A' for Active; 'I' for Inactive)
REMARK    1  A    between atoms: C_8  and  N_16
REMARK    2  A    between atoms: N_16  and  C_18
REMARK    3  A    between atoms: C_18  and  C_19
REMARK    4  A    between atoms: C_19  and  C_20
REMARK    5  A    between atoms: C_20  and  C_21
REMARK    6  A    between atoms: C_21  and  C_22
REMARK    7  A    between atoms: C_22  and  C_23
REMARK    8  A    between atoms: C_23  and  C_24
REMARK    9  A    between atoms: C_24  and  C_25
REMARK   10  A    between atoms: C_25  and  N_26
REMARK                            x       y       z     vdW  Elec       q    Type
REMARK                         _______ _______ _______ _____ _____    ______ ____
ROOT
ATOM      1  N   UNL     1      33.870 -24.680 -13.689  0.00  0.00    -0.316 N 
ATOM      2  C   UNL     1      35.387 -23.727 -15.243  0.00  0.00    -0.000 C 
ATOM      3  C   UNL     1      36.792 -23.389 -15.669  0.00  0.00    +0.029 C 
ATOM      4  C   UNL     1      35.137 -24.420 -14.053  0.00  0.00    +0.022 C 
ATOM      5  C   UNL     1      37.853 -24.227 -14.951  0.00  0.00    +0.005 C 
ATOM      6  C   UNL     1      36.232 -24.946 -13.176  0.00  0.00    +0.041 C 
ATOM      7  C   UNL     1      37.578 -24.279 -13.452  0.00  0.00    +0.006 C 
ATOM      8  C   UNL     1      34.301 -23.295 -16.007  0.00  0.00    +0.039 C 
ATOM      9  C   UNL     1      32.990 -23.573 -15.600  0.00  0.00    +0.008 C 
ATOM     10  C   UNL     1      32.796 -24.290 -14.401  0.00  0.00    +0.046 C 
ATOM     11  C   UNL     1      31.867 -23.165 -16.336  0.00  0.00    +0.055 C 
ATOM     12  C   UNL     1      31.504 -24.590 -13.958  0.00  0.00    +0.014 C 
ATOM     13  C   UNL     1      30.580 -23.468 -15.888  0.00  0.00    -0.021 C 
ATOM     14  C   UNL     1      30.399 -24.179 -14.703  0.00  0.00    -0.003 C 
ATOM     15  H   UNL     1      33.718 -25.183 -12.856  0.00  0.00    +0.152 HD
ENDROOT
BRANCH   8  16
ATOM     16  N   UNL     1      34.529 -22.578 -17.171  0.00  0.00    -0.333 N 
ATOM     17  H   UNL     1      35.158 -21.822 -17.136  0.00  0.00    +0.147 HD
BRANCH  16  18
ATOM     18  C   UNL     1      33.894 -22.877 -18.433  0.00  0.00    +0.087 C 
BRANCH  18  19
ATOM     19  C   UNL     1      34.217 -21.808 -19.475  0.00  0.00    +0.021 C 
BRANCH  19  20
ATOM     20  C   UNL     1      33.031 -20.883 -19.757  0.00  0.00    +0.002 C 
BRANCH  20  21
ATOM     21  C   UNL     1      33.374 -19.855 -20.838  0.00  0.00    +0.000 C 
BRANCH  21  22
ATOM     22  C   UNL     1      34.880 -19.805 -21.100  0.00  0.00    -0.000 C 
BRANCH  22  23
ATOM     23  C   UNL     1      35.232 -18.717 -22.115  0.00  0.00    -0.002 C 
BRANCH  23  24
ATOM     24  C   UNL     1      34.841 -19.131 -23.534  0.00  0.00    -0.024 C 
BRANCH  24  25
ATOM     25  C   UNL     1      34.836 -17.932 -24.472  0.00  0.00    -0.086 C 
BRANCH  25  26
ATOM     26  N   UNL     1      35.432 -16.767 -23.774  0.00  0.00    +0.380 N 
ATOM     27  H   UNL     1      36.068 -17.095 -23.047  0.00  0.00    -0.089 HD
ATOM     28  H   UNL     1      34.691 -16.208 -23.352  0.00  0.00    -0.089 HD
ATOM     29  H   UNL     1      35.949 -16.197 -24.444  0.00  0.00    -0.089 HD
ENDBRANCH  25  26
ENDBRANCH  24  25
ENDBRANCH  23  24
ENDBRANCH  22  23
ENDBRANCH  21  22
ENDBRANCH  20  21
ENDBRANCH  19  20
ENDBRANCH  18  19
ENDBRANCH  16  18
ENDBRANCH   8  16
TORSDOF 10
ENDMDL
MODEL 6
REMARK VINA RESULT:      -8.5      7.734     11.954
REMARK  Name = 5287586
REMARK  10 active torsions:
REMARK  status: ('A' for Active; 'I' for Inactive)
REMARK    1  A    between atoms: C_8  and  N_16
REMARK    2  A    between atoms: N_16  and  C_18
REMARK    3  A    between atoms: C_18  and  C_19
REMARK    4  A    between atoms: C_19  and  C_20
REMARK    5  A    between atoms: C_20  and  C_21
REMARK    6  A    between atoms: C_21  and  C_22
REMARK    7  A    between atoms: C_22  and  C_23
REMARK    8  A    between atoms: C_23  and  C_24
REMARK    9  A    between atoms: C_24  and  C_25
REMARK   10  A    between atoms: C_25  and  N_26
REMARK                            x       y       z     vdW  Elec       q    Type
REMARK                         _______ _______ _______ _____ _____    ______ ____
ROOT
ATOM      1  N   UNL     1      33.680 -23.861 -13.096  0.00  0.00    -0.316 N 
ATOM      2  C   UNL     1      33.814 -23.376 -15.415  0.00  0.00    -0.000 C 
ATOM      3  C   UNL     1      33.157 -23.171 -16.754  0.00  0.00    +0.029 C 
ATOM      4  C   UNL     1      33.058 -23.655 -14.270  0.00  0.00    +0.022 C 
ATOM      5  C   UNL     1      31.661 -22.864 -16.645  0.00  0.00    +0.005 C 
ATOM      6  C   UNL     1      31.560 -23.681 -14.275  0.00  0.00    +0.041 C 
ATOM      7  C   UNL     1      30.979 -23.828 -15.680  0.00  0.00    +0.006 C 
ATOM      8  C   UNL     1      35.206 -23.352 -15.307  0.00  0.00    +0.039 C 
ATOM      9  C   UNL     1      35.828 -23.577 -14.072  0.00  0.00    +0.008 C 
ATOM     10  C   UNL     1      35.017 -23.837 -12.948  0.00  0.00    +0.046 C 
ATOM     11  C   UNL     1      37.223 -23.557 -13.913  0.00  0.00    +0.055 C 
ATOM     12  C   UNL     1      35.597 -24.066 -11.696  0.00  0.00    +0.014 C 
ATOM     13  C   UNL     1      37.794 -23.787 -12.660  0.00  0.00    -0.021 C 
ATOM     14  C   UNL     1      36.983 -24.041 -11.555  0.00  0.00    -0.003 C 
ATOM     15  H   UNL     1      33.126 -24.040 -12.301  0.00  0.00    +0.152 HD
ENDROOT
BRANCH   8  16
ATOM     16  N   UNL     1      35.973 -23.110 -16.436  0.00  0.00    -0.333 N 
ATOM     17  H   UNL     1      36.017 -23.811 -17.126  0.00  0.00    +0.147 HD
BRANCH  16  18
ATOM     18  C   UNL     1      36.712 -21.890 -16.657  0.00  0.00    +0.087 C 
BRANCH  18  19
ATOM     19  C   UNL     1      36.757 -21.538 -18.142  0.00  0.00    +0.021 C 
BRANCH  19  20
ATOM     20  C   UNL     1      35.451 -21.875 -18.867  0.00  0.00    +0.002 C 
BRANCH  20  21
ATOM     21  C   UNL     1      35.241 -20.967 -20.081  0.00  0.00    +0.000 C 
BRANCH  21  22
ATOM     22  C   UNL     1      33.767 -20.598 -20.251  0.00  0.00    -0.000 C 
BRANCH  22  23
ATOM     23  C   UNL     1      33.609 -19.254 -20.964  0.00  0.00    -0.002 C 
BRANCH  23  24
ATOM     24  C   UNL     1      34.632 -19.097 -22.090  0.00  0.00    -0.024 C 
BRANCH  24  25
ATOM     25  C   UNL     1      35.001 -17.635 -22.293  0.00  0.00    -0.086 C 
BRANCH  25  26
ATOM     26  N   UNL     1      35.656 -17.479 -23.614  0.00  0.00    +0.380 N 
ATOM     27  H   UNL     1      35.436 -18.283 -24.200  0.00  0.00    -0.089 HD
ATOM     28  H   UNL     1      36.667 -17.417 -23.487  0.00  0.00    -0.089 HD
ATOM     29  H   UNL     1      35.318 -16.628 -24.064  0.00  0.00    -0.089 HD
ENDBRANCH  25  26
ENDBRANCH  24  25
ENDBRANCH  23  24
ENDBRANCH  22  23
ENDBRANCH  21  22
ENDBRANCH  20  21
ENDBRANCH  19  20
ENDBRANCH  18  19
ENDBRANCH  16  18
ENDBRANCH   8  16
TORSDOF 10
ENDMDL
MODEL 7
REMARK VINA RESULT:      -8.5      1.647      3.834
REMARK  Name = 5287586
REMARK  10 active torsions:
REMARK  status: ('A' for Active; 'I' for Inactive)
REMARK    1  A    between atoms: C_8  and  N_16
REMARK    2  A    between atoms: N_16  and  C_18
REMARK    3  A    between atoms: C_18  and  C_19
REMARK    4  A    between atoms: C_19  and  C_20
REMARK    5  A    between atoms: C_20  and  C_21
REMARK    6  A    between atoms: C_21  and  C_22
REMARK    7  A    between atoms: C_22  and  C_23
REMARK    8  A    between atoms: C_23  and  C_24
REMARK    9  A    between atoms: C_24  and  C_25
REMARK   10  A    between atoms: C_25  and  N_26
REMARK                            x       y       z     vdW  Elec       q    Type
REMARK                         _______ _______ _______ _____ _____    ______ ____
ROOT
ATOM      1  N   UNL     1      33.589 -15.577 -21.485  0.00  0.00    -0.316 N 
ATOM      2  C   UNL     1      33.753 -15.567 -23.851  0.00  0.00    -0.000 C 
ATOM      3  C   UNL     1      34.228 -16.190 -25.137  0.00  0.00    +0.029 C 
ATOM      4  C   UNL     1      34.003 -16.175 -22.615  0.00  0.00    +0.022 C 
ATOM      5  C   UNL     1      34.578 -17.673 -24.991  0.00  0.00    +0.005 C 
ATOM      6  C   UNL     1      34.671 -17.510 -22.489  0.00  0.00    +0.041 C 
ATOM      7  C   UNL     1      35.434 -17.907 -23.750  0.00  0.00    +0.006 C 
ATOM      8  C   UNL     1      33.103 -14.331 -23.870  0.00  0.00    +0.039 C 
ATOM      9  C   UNL     1      32.690 -13.727 -22.676  0.00  0.00    +0.008 C 
ATOM     10  C   UNL     1      32.953 -14.391 -21.459  0.00  0.00    +0.046 C 
ATOM     11  C   UNL     1      32.029 -12.489 -22.643  0.00  0.00    +0.055 C 
ATOM     12  C   UNL     1      32.556 -13.825 -20.245  0.00  0.00    +0.014 C 
ATOM     13  C   UNL     1      31.636 -11.929 -21.427  0.00  0.00    -0.021 C 
ATOM     14  C   UNL     1      31.899 -12.595 -20.231  0.00  0.00    -0.003 C 
ATOM     15  H   UNL     1      33.762 -16.031 -20.628  0.00  0.00    +0.152 HD
ENDROOT
BRANCH   8  16
ATOM     16  N   UNL     1      32.877 -13.699 -25.082  0.00  0.00    -0.333 N 
ATOM     17  H   UNL     1      32.014 -13.852 -25.532  0.00  0.00    +0.147 HD
BRANCH  16  18
ATOM     18  C   UNL     1      33.834 -12.829 -25.724  0.00  0.00    +0.087 C 
BRANCH  18  19
ATOM     19  C   UNL     1      33.722 -11.403 -25.191  0.00  0.00    +0.021 C 
BRANCH  19  20
ATOM     20  C   UNL     1      35.025 -10.613 -25.344  0.00  0.00    +0.002 C 
BRANCH  20  21
ATOM     21  C   UNL     1      35.041  -9.388 -24.426  0.00  0.00    +0.000 C 
BRANCH  21  22
ATOM     22  C   UNL     1      33.766  -9.306 -23.586  0.00  0.00    -0.000 C 
BRANCH  22  23
ATOM     23  C   UNL     1      33.611  -7.926 -22.946  0.00  0.00    -0.002 C 
BRANCH  23  24
ATOM     24  C   UNL     1      32.258  -7.786 -22.245  0.00  0.00    -0.024 C 
BRANCH  24  25
ATOM     25  C   UNL     1      32.276  -8.464 -20.883  0.00  0.00    -0.086 C 
BRANCH  25  26
ATOM     26  N   UNL     1      33.136  -7.683 -19.962  0.00  0.00    +0.380 N 
ATOM     27  H   UNL     1      32.682  -6.797 -19.741  0.00  0.00    -0.089 HD
ATOM     28  H   UNL     1      34.035  -7.503 -20.409  0.00  0.00    -0.089 HD
ATOM     29  H   UNL     1      33.284  -8.212 -19.102  0.00  0.00    -0.089 HD
ENDBRANCH  25  26
ENDBRANCH  24  25
ENDBRANCH  23  24
ENDBRANCH  22  23
ENDBRANCH  21  22
ENDBRANCH  20  21
ENDBRANCH  19  20
ENDBRANCH  18  19
ENDBRANCH  16  18
ENDBRANCH   8  16
TORSDOF 10
ENDMDL
MODEL 8
REMARK VINA RESULT:      -8.4      9.278     13.333
REMARK  Name = 5287586
REMARK  10 active torsions:
REMARK  status: ('A' for Active; 'I' for Inactive)
REMARK    1  A    between atoms: C_8  and  N_16
REMARK    2  A    between atoms: N_16  and  C_18
REMARK    3  A    between atoms: C_18  and  C_19
REMARK    4  A    between atoms: C_19  and  C_20
REMARK    5  A    between atoms: C_20  and  C_21
REMARK    6  A    between atoms: C_21  and  C_22
REMARK    7  A    between atoms: C_22  and  C_23
REMARK    8  A    between atoms: C_23  and  C_24
REMARK    9  A    between atoms: C_24  and  C_25
REMARK   10  A    between atoms: C_25  and  N_26
REMARK                            x       y       z     vdW  Elec       q    Type
REMARK                         _______ _______ _______ _____ _____    ______ ____
ROOT
ATOM      1  N   UNL     1      32.219 -22.800 -17.651  0.00  0.00    -0.316 N 
ATOM      2  C   UNL     1      33.114 -23.532 -15.579  0.00  0.00    -0.000 C 
ATOM      3  C   UNL     1      32.930 -24.093 -14.194  0.00  0.00    +0.029 C 
ATOM      4  C   UNL     1      32.022 -23.329 -16.431  0.00  0.00    +0.022 C 
ATOM      5  C   UNL     1      31.582 -24.796 -14.007  0.00  0.00    +0.005 C 
ATOM      6  C   UNL     1      30.625 -23.732 -16.068  0.00  0.00    +0.041 C 
ATOM      7  C   UNL     1      30.446 -23.945 -14.566  0.00  0.00    +0.006 C 
ATOM      8  C   UNL     1      34.383 -23.145 -16.015  0.00  0.00    +0.039 C 
ATOM      9  C   UNL     1      34.558 -22.589 -17.288  0.00  0.00    +0.008 C 
ATOM     10  C   UNL     1      33.425 -22.423 -18.112  0.00  0.00    +0.046 C 
ATOM     11  C   UNL     1      35.814 -22.190 -17.773  0.00  0.00    +0.055 C 
ATOM     12  C   UNL     1      33.556 -21.873 -19.391  0.00  0.00    +0.014 C 
ATOM     13  C   UNL     1      35.937 -21.642 -19.051  0.00  0.00    -0.021 C 
ATOM     14  C   UNL     1      34.811 -21.483 -19.857  0.00  0.00    -0.003 C 
ATOM     15  H   UNL     1      31.437 -22.681 -18.239  0.00  0.00    +0.152 HD
ENDROOT
BRANCH   8  16
ATOM     16  N   UNL     1      35.471 -23.308 -15.173  0.00  0.00    -0.333 N 
ATOM     17  H   UNL     1      35.527 -22.739 -14.370  0.00  0.00    +0.147 HD
BRANCH  16  18
ATOM     18  C   UNL     1      36.529 -24.262 -15.405  0.00  0.00    +0.087 C 
BRANCH  18  19
ATOM     19  C   UNL     1      36.072 -25.679 -15.069  0.00  0.00    +0.021 C 
BRANCH  19  20
ATOM     20  C   UNL     1      37.177 -26.514 -14.415  0.00  0.00    +0.002 C 
BRANCH  20  21
ATOM     21  C   UNL     1      38.558 -25.911 -14.680  0.00  0.00    +0.000 C 
BRANCH  21  22
ATOM     22  C   UNL     1      39.203 -25.408 -13.387  0.00  0.00    -0.000 C 
BRANCH  22  23
ATOM     23  C   UNL     1      38.167 -25.259 -12.271  0.00  0.00    -0.002 C 
BRANCH  23  24
ATOM     24  C   UNL     1      37.995 -23.795 -11.863  0.00  0.00    -0.024 C 
BRANCH  24  25
ATOM     25  C   UNL     1      36.522 -23.431 -11.745  0.00  0.00    -0.086 C 
BRANCH  25  26
ATOM     26  N   UNL     1      35.728 -24.669 -11.559  0.00  0.00    +0.380 N 
ATOM     27  H   UNL     1      34.823 -24.565 -12.017  0.00  0.00    -0.089 HD
ATOM     28  H   UNL     1      35.588 -24.835 -10.562  0.00  0.00    -0.089 HD
ATOM     29  H   UNL     1      36.227 -25.458 -11.969  0.00  0.00    -0.089 HD
ENDBRANCH  25  26
ENDBRANCH  24  25
ENDBRANCH  23  24
ENDBRANCH  22  23
ENDBRANCH  21  22
ENDBRANCH  20  21
ENDBRANCH  19  20
ENDBRANCH  18  19
ENDBRANCH  16  18
ENDBRANCH   8  16
TORSDOF 10
ENDMDL
MODEL 9
REMARK VINA RESULT:      -8.3      9.476     13.625
REMARK  Name = 5287586
REMARK  10 active torsions:
REMARK  status: ('A' for Active; 'I' for Inactive)
REMARK    1  A    between atoms: C_8  and  N_16
REMARK    2  A    between atoms: N_16  and  C_18
REMARK    3  A    between atoms: C_18  and  C_19
REMARK    4  A    between atoms: C_19  and  C_20
REMARK    5  A    between atoms: C_20  and  C_21
REMARK    6  A    between atoms: C_21  and  C_22
REMARK    7  A    between atoms: C_22  and  C_23
REMARK    8  A    between atoms: C_23  and  C_24
REMARK    9  A    between atoms: C_24  and  C_25
REMARK   10  A    between atoms: C_25  and  N_26
REMARK                            x       y       z     vdW  Elec       q    Type
REMARK                         _______ _______ _______ _____ _____    ______ ____
ROOT
ATOM      1  N   UNL     1      31.828 -22.566 -17.652  0.00  0.00    -0.316 N 
ATOM      2  C   UNL     1      34.097 -22.912 -17.053  0.00  0.00    -0.000 C 
ATOM      3  C   UNL     1      35.567 -22.808 -17.361  0.00  0.00    +0.029 C 
ATOM      4  C   UNL     1      33.132 -22.431 -17.946  0.00  0.00    +0.022 C 
ATOM      5  C   UNL     1      35.879 -21.782 -18.454  0.00  0.00    +0.005 C 
ATOM      6  C   UNL     1      33.487 -21.710 -19.210  0.00  0.00    +0.041 C 
ATOM      7  C   UNL     1      34.933 -21.951 -19.639  0.00  0.00    +0.006 C 
ATOM      8  C   UNL     1      33.669 -23.552 -15.888  0.00  0.00    +0.039 C 
ATOM      9  C   UNL     1      32.303 -23.686 -15.611  0.00  0.00    +0.008 C 
ATOM     10  C   UNL     1      31.374 -23.168 -16.537  0.00  0.00    +0.046 C 
ATOM     11  C   UNL     1      31.824 -24.316 -14.450  0.00  0.00    +0.055 C 
ATOM     12  C   UNL     1      30.001 -23.278 -16.299  0.00  0.00    +0.014 C 
ATOM     13  C   UNL     1      30.452 -24.423 -14.219  0.00  0.00    -0.021 C 
ATOM     14  C   UNL     1      29.543 -23.906 -15.141  0.00  0.00    -0.003 C 
ATOM     15  H   UNL     1      31.167 -22.206 -18.288  0.00  0.00    +0.152 HD
ENDROOT
BRANCH   8  16
ATOM     16  N   UNL     1      34.609 -24.064 -15.007  0.00  0.00    -0.333 N 
ATOM     17  H   UNL     1      34.913 -24.991 -15.140  0.00  0.00    +0.147 HD
BRANCH  16  18
ATOM     18  C   UNL     1      35.167 -23.316 -13.906  0.00  0.00    +0.087 C 
BRANCH  18  19
ATOM     19  C   UNL     1      34.967 -24.055 -12.585  0.00  0.00    +0.021 C 
BRANCH  19  20
ATOM     20  C   UNL     1      35.969 -23.624 -11.510  0.00  0.00    +0.002 C 
BRANCH  20  21
ATOM     21  C   UNL     1      37.291 -23.171 -12.136  0.00  0.00    +0.000 C 
BRANCH  21  22
ATOM     22  C   UNL     1      38.355 -24.265 -12.040  0.00  0.00    -0.000 C 
BRANCH  22  23
ATOM     23  C   UNL     1      38.588 -24.935 -13.395  0.00  0.00    -0.002 C 
BRANCH  23  24
ATOM     24  C   UNL     1      37.733 -26.193 -13.548  0.00  0.00    -0.024 C 
BRANCH  24  25
ATOM     25  C   UNL     1      37.446 -26.484 -15.015  0.00  0.00    -0.086 C 
BRANCH  25  26
ATOM     26  N   UNL     1      36.091 -27.073 -15.137  0.00  0.00    +0.380 N 
ATOM     27  H   UNL     1      35.617 -27.025 -14.235  0.00  0.00    -0.089 HD
ATOM     28  H   UNL     1      36.169 -28.047 -15.429  0.00  0.00    -0.089 HD
ATOM     29  H   UNL     1      35.554 -26.552 -15.830  0.00  0.00    -0.089 HD
ENDBRANCH  25  26
ENDBRANCH  24  25
ENDBRANCH  23  24
ENDBRANCH  22  23
ENDBRANCH  21  22
ENDBRANCH  20  21
ENDBRANCH  19  20
ENDBRANCH  18  19
ENDBRANCH  16  18
ENDBRANCH   8  16
TORSDOF 10
ENDMDL
