MODEL 1
REMARK VINA RESULT:     -10.0      0.000      0.000
REMARK  Name = 448979
REMARK  7 active torsions:
REMARK  status: ('A' for Active; 'I' for Inactive)
REMARK    1  A    between atoms: C_1  and  O_7
REMARK    2  A    between atoms: C_2  and  O_14
REMARK    3  A    between atoms: O_7  and  C_8
REMARK    4  A    between atoms: C_8  and  C_11
REMARK    5  A    between atoms: C_11  and  O_12
REMARK    6  A    between atoms: O_14  and  C_18
REMARK    7  A    between atoms: C_17  and  C_25
REMARK                            x       y       z     vdW  Elec       q    Type
REMARK                         _______ _______ _______ _____ _____    ______ ____
ROOT
ATOM      1  C   UNL     1      33.917 -22.052 -19.143  0.00  0.00    +0.139 C 
ATOM      2  C   UNL     1      35.319 -20.134 -20.605  0.00  0.00    +0.147 C 
ATOM      3  C   UNL     1      33.223 -21.099 -19.888  0.00  0.00    +0.040 C 
ATOM      4  C   UNL     1      35.313 -22.048 -19.130  0.00  0.00    +0.040 C 
ATOM      5  C   UNL     1      33.925 -20.139 -20.618  0.00  0.00    +0.041 C 
ATOM      6  C   UNL     1      36.013 -21.089 -19.860  0.00  0.00    +0.041 C 
ENDROOT
BRANCH   1   7
ATOM      7  O   UNL     1      33.233 -22.989 -18.429  0.00  0.00    -0.468 OA
BRANCH   7   8
ATOM      8  C   UNL     1      33.141 -22.791 -17.019  0.00  0.00    +0.263 C 
ATOM      9  C   UNL     1      34.163 -23.694 -16.351  0.00  0.00    +0.060 C 
BRANCH   8  11
ATOM     10  O   UNL     1      31.454 -23.945 -15.706  0.00  0.00    -0.246 OA
ATOM     11  C   UNL     1      31.734 -23.133 -16.578  0.00  0.00    +0.354 C 
BRANCH  11  12
ATOM     12  O   UNL     1      30.796 -22.417 -17.251  0.00  0.00    -0.478 OA
ATOM     13  H   UNL     1      31.057 -21.808 -17.913  0.00  0.00    +0.295 HD
ENDBRANCH  11  12
ENDBRANCH   8  11
ENDBRANCH   7   8
ENDBRANCH   1   7
BRANCH   2  14
ATOM     14  O   UNL     1      36.004 -19.200 -21.319  0.00  0.00    -0.435 OA
BRANCH  14  18
ATOM     15 CL   UNL     1      34.956 -18.879 -24.113  0.00  0.00    -0.077 Cl
ATOM     16  N   UNL     1      35.322 -17.141 -20.530  0.00  0.00    -0.209 NA
ATOM     17  C   UNL     1      34.152 -15.603 -21.982  0.00  0.00    +0.092 C 
ATOM     18  C   UNL     1      35.372 -17.993 -21.571  0.00  0.00    +0.240 C 
ATOM     19  C   UNL     1      34.230 -16.517 -23.026  0.00  0.00    +0.022 C 
ATOM     20  C   UNL     1      34.854 -17.745 -22.824  0.00  0.00    +0.111 C 
ATOM     21  C   UNL     1      34.708 -15.960 -20.765  0.00  0.00    +0.106 C 
BRANCH  17  25
ATOM     22  F   UNL     1      32.342 -14.339 -22.904  0.00  0.00    -0.166 F 
ATOM     23  F   UNL     1      33.130 -13.680 -20.993  0.00  0.00    -0.166 F 
ATOM     24  F   UNL     1      34.290 -13.378 -22.806  0.00  0.00    -0.166 F 
ATOM     25  C   UNL     1      33.493 -14.283 -22.166  0.00  0.00    +0.420 C 
ENDBRANCH  17  25
ENDBRANCH  14  18
ENDBRANCH   2  14
TORSDOF 7
ENDMDL
MODEL 2
REMARK VINA RESULT:      -9.9      5.072      8.397
REMARK  Name = 448979
REMARK  7 active torsions:
REMARK  status: ('A' for Active; 'I' for Inactive)
REMARK    1  A    between atoms: C_1  and  O_7
REMARK    2  A    between atoms: C_2  and  O_14
REMARK    3  A    between atoms: O_7  and  C_8
REMARK    4  A    between atoms: C_8  and  C_11
REMARK    5  A    between atoms: C_11  and  O_12
REMARK    6  A    between atoms: O_14  and  C_18
REMARK    7  A    between atoms: C_17  and  C_25
REMARK                            x       y       z     vdW  Elec       q    Type
REMARK                         _______ _______ _______ _____ _____    ______ ____
ROOT
ATOM      1  C   UNL     1      35.350 -19.508 -20.629  0.00  0.00    +0.139 C 
ATOM      2  C   UNL     1      34.800 -21.955 -19.408  0.00  0.00    +0.147 C 
ATOM      3  C   UNL     1      34.029 -19.929 -20.475  0.00  0.00    +0.040 C 
ATOM      4  C   UNL     1      36.396 -20.310 -20.173  0.00  0.00    +0.040 C 
ATOM      5  C   UNL     1      33.755 -21.153 -19.865  0.00  0.00    +0.041 C 
ATOM      6  C   UNL     1      36.121 -21.533 -19.563  0.00  0.00    +0.041 C 
ENDROOT
BRANCH   1   7
ATOM      7  O   UNL     1      35.619 -18.314 -21.226  0.00  0.00    -0.468 OA
BRANCH   7   8
ATOM      8  C   UNL     1      34.811 -17.950 -22.345  0.00  0.00    +0.263 C 
ATOM      9  C   UNL     1      35.308 -18.724 -23.553  0.00  0.00    +0.060 C 
BRANCH   8  11
ATOM     10  O   UNL     1      34.439 -15.604 -21.833  0.00  0.00    -0.246 OA
ATOM     11  C   UNL     1      34.935 -16.456 -22.559  0.00  0.00    +0.354 C 
BRANCH  11  12
ATOM     12  O   UNL     1      35.684 -16.154 -23.650  0.00  0.00    -0.478 OA
ATOM     13  H   UNL     1      35.876 -16.816 -24.286  0.00  0.00    +0.295 HD
ENDBRANCH  11  12
ENDBRANCH   8  11
ENDBRANCH   7   8
ENDBRANCH   1   7
BRANCH   2  14
ATOM     14  O   UNL     1      34.532 -23.148 -18.811  0.00  0.00    -0.435 OA
BRANCH  14  18
ATOM     15 CL   UNL     1      36.043 -23.167 -16.218  0.00  0.00    -0.077 Cl
ATOM     16  N   UNL     1      32.414 -23.117 -17.896  0.00  0.00    -0.209 NA
ATOM     17  C   UNL     1      32.119 -23.110 -15.497  0.00  0.00    +0.092 C 
ATOM     18  C   UNL     1      33.741 -23.135 -17.674  0.00  0.00    +0.240 C 
ATOM     19  C   UNL     1      33.498 -23.129 -15.320  0.00  0.00    +0.022 C 
ATOM     20  C   UNL     1      34.336 -23.141 -16.430  0.00  0.00    +0.111 C 
ATOM     21  C   UNL     1      31.632 -23.105 -16.794  0.00  0.00    +0.106 C 
BRANCH  17  25
ATOM     22  F   UNL     1      30.630 -24.312 -14.061  0.00  0.00    -0.166 F 
ATOM     23  F   UNL     1      31.795 -22.720 -13.160  0.00  0.00    -0.166 F 
ATOM     24  F   UNL     1      30.149 -22.236 -14.495  0.00  0.00    -0.166 F 
ATOM     25  C   UNL     1      31.197 -23.096 -14.331  0.00  0.00    +0.420 C 
ENDBRANCH  17  25
ENDBRANCH  14  18
ENDBRANCH   2  14
TORSDOF 7
ENDMDL
MODEL 3
REMARK VINA RESULT:      -9.7      5.449      8.809
REMARK  Name = 448979
REMARK  7 active torsions:
REMARK  status: ('A' for Active; 'I' for Inactive)
REMARK    1  A    between atoms: C_1  and  O_7
REMARK    2  A    between atoms: C_2  and  O_14
REMARK    3  A    between atoms: O_7  and  C_8
REMARK    4  A    between atoms: C_8  and  C_11
REMARK    5  A    between atoms: C_11  and  O_12
REMARK    6  A    between atoms: O_14  and  C_18
REMARK    7  A    between atoms: C_17  and  C_25
REMARK                            x       y       z     vdW  Elec       q    Type
REMARK                         _______ _______ _______ _____ _____    ______ ____
ROOT
ATOM      1  C   UNL     1      35.004 -19.840 -20.778  0.00  0.00    +0.139 C 
ATOM      2  C   UNL     1      33.799 -21.883 -19.309  0.00  0.00    +0.147 C 
ATOM      3  C   UNL     1      35.783 -20.861 -20.235  0.00  0.00    +0.040 C 
ATOM      4  C   UNL     1      33.621 -19.840 -20.588  0.00  0.00    +0.040 C 
ATOM      5  C   UNL     1      35.181 -21.882 -19.500  0.00  0.00    +0.041 C 
ATOM      6  C   UNL     1      33.020 -20.861 -19.853  0.00  0.00    +0.041 C 
ENDROOT
BRANCH   1   7
ATOM      7  O   UNL     1      35.591 -18.842 -21.495  0.00  0.00    -0.468 OA
BRANCH   7   8
ATOM      8  C   UNL     1      34.778 -18.163 -22.451  0.00  0.00    +0.263 C 
ATOM      9  C   UNL     1      35.084 -18.739 -23.822  0.00  0.00    +0.060 C 
BRANCH   8  11
ATOM     10  O   UNL     1      34.840 -15.951 -21.446  0.00  0.00    -0.246 OA
ATOM     11  C   UNL     1      35.101 -16.685 -22.391  0.00  0.00    +0.354 C 
BRANCH  11  12
ATOM     12  O   UNL     1      35.741 -16.253 -23.508  0.00  0.00    -0.478 OA
ATOM     13  H   UNL     1      36.677 -16.198 -23.521  0.00  0.00    +0.295 HD
ENDBRANCH  11  12
ENDBRANCH   8  11
ENDBRANCH   7   8
ENDBRANCH   1   7
BRANCH   2  14
ATOM     14  O   UNL     1      33.211 -22.880 -18.594  0.00  0.00    -0.435 OA
BRANCH  14  18
ATOM     15 CL   UNL     1      31.066 -23.136 -16.511  0.00  0.00    -0.077 Cl
ATOM     16  N   UNL     1      35.009 -23.177 -17.178  0.00  0.00    -0.209 NA
ATOM     17  C   UNL     1      34.654 -23.546 -14.816  0.00  0.00    +0.092 C 
ATOM     18  C   UNL     1      33.671 -23.106 -17.308  0.00  0.00    +0.240 C 
ATOM     19  C   UNL     1      33.279 -23.464 -15.002  0.00  0.00    +0.022 C 
ATOM     20  C   UNL     1      32.767 -23.240 -16.275  0.00  0.00    +0.111 C 
ATOM     21  C   UNL     1      35.468 -23.396 -15.926  0.00  0.00    +0.106 C 
BRANCH  17  25
ATOM     22  F   UNL     1      34.336 -23.627 -12.445  0.00  0.00    -0.166 F 
ATOM     23  F   UNL     1      35.739 -25.044 -13.299  0.00  0.00    -0.166 F 
ATOM     24  F   UNL     1      36.265 -22.939 -13.176  0.00  0.00    -0.166 F 
ATOM     25  C   UNL     1      35.233 -23.784 -13.466  0.00  0.00    +0.420 C 
ENDBRANCH  17  25
ENDBRANCH  14  18
ENDBRANCH   2  14
TORSDOF 7
ENDMDL
MODEL 4
REMARK VINA RESULT:      -9.5      4.844      7.165
REMARK  Name = 448979
REMARK  7 active torsions:
REMARK  status: ('A' for Active; 'I' for Inactive)
REMARK    1  A    between atoms: C_1  and  O_7
REMARK    2  A    between atoms: C_2  and  O_14
REMARK    3  A    between atoms: O_7  and  C_8
REMARK    4  A    between atoms: C_8  and  C_11
REMARK    5  A    between atoms: C_11  and  O_12
REMARK    6  A    between atoms: O_14  and  C_18
REMARK    7  A    between atoms: C_17  and  C_25
REMARK                            x       y       z     vdW  Elec       q    Type
REMARK                         _______ _______ _______ _____ _____    ______ ____
ROOT
ATOM      1  C   UNL     1      34.447 -15.979 -21.452  0.00  0.00    +0.139 C 
ATOM      2  C   UNL     1      32.813 -14.030 -22.597  0.00  0.00    +0.147 C 
ATOM      3  C   UNL     1      33.524 -15.292 -20.663  0.00  0.00    +0.040 C 
ATOM      4  C   UNL     1      34.553 -15.692 -22.813  0.00  0.00    +0.040 C 
ATOM      5  C   UNL     1      32.707 -14.317 -21.236  0.00  0.00    +0.041 C 
ATOM      6  C   UNL     1      33.736 -14.718 -23.385  0.00  0.00    +0.041 C 
ENDROOT
BRANCH   1   7
ATOM      7  O   UNL     1      35.245 -16.930 -20.893  0.00  0.00    -0.468 OA
BRANCH   7   8
ATOM      8  C   UNL     1      35.216 -18.230 -21.480  0.00  0.00    +0.263 C 
ATOM      9  C   UNL     1      33.922 -18.906 -21.060  0.00  0.00    +0.060 C 
BRANCH   8  11
ATOM     10  O   UNL     1      36.425 -19.763 -20.034  0.00  0.00    -0.246 OA
ATOM     11  C   UNL     1      36.423 -19.003 -20.994  0.00  0.00    +0.354 C 
BRANCH  11  12
ATOM     12  O   UNL     1      37.522 -18.777 -21.760  0.00  0.00    -0.478 OA
ATOM     13  H   UNL     1      37.430 -18.391 -22.609  0.00  0.00    +0.295 HD
ENDBRANCH  11  12
ENDBRANCH   8  11
ENDBRANCH   7   8
ENDBRANCH   1   7
BRANCH   2  14
ATOM     14  O   UNL     1      32.014 -13.080 -23.157  0.00  0.00    -0.435 OA
BRANCH  14  18
ATOM     15 CL   UNL     1      30.613 -11.310 -21.180  0.00  0.00    -0.077 Cl
ATOM     16  N   UNL     1      33.451 -11.479 -23.992  0.00  0.00    -0.209 NA
ATOM     17  C   UNL     1      33.387  -9.218 -23.139  0.00  0.00    +0.092 C 
ATOM     18  C   UNL     1      32.459 -11.769 -23.129  0.00  0.00    +0.240 C 
ATOM     19  C   UNL     1      32.362  -9.567 -22.267  0.00  0.00    +0.022 C 
ATOM     20  C   UNL     1      31.881 -10.872 -22.255  0.00  0.00    +0.111 C 
ATOM     21  C   UNL     1      33.892 -10.201 -23.974  0.00  0.00    +0.106 C 
BRANCH  17  25
ATOM     22  F   UNL     1      35.289  -7.766 -23.157  0.00  0.00    -0.166 F 
ATOM     23  F   UNL     1      33.553  -7.127 -24.291  0.00  0.00    -0.166 F 
ATOM     24  F   UNL     1      33.508  -7.074 -22.118  0.00  0.00    -0.166 F 
ATOM     25  C   UNL     1      33.923  -7.830 -23.177  0.00  0.00    +0.420 C 
ENDBRANCH  17  25
ENDBRANCH  14  18
ENDBRANCH   2  14
TORSDOF 7
ENDMDL
MODEL 5
REMARK VINA RESULT:      -9.4      2.165      2.688
REMARK  Name = 448979
REMARK  7 active torsions:
REMARK  status: ('A' for Active; 'I' for Inactive)
REMARK    1  A    between atoms: C_1  and  O_7
REMARK    2  A    between atoms: C_2  and  O_14
REMARK    3  A    between atoms: O_7  and  C_8
REMARK    4  A    between atoms: C_8  and  C_11
REMARK    5  A    between atoms: C_11  and  O_12
REMARK    6  A    between atoms: O_14  and  C_18
REMARK    7  A    between atoms: C_17  and  C_25
REMARK                            x       y       z     vdW  Elec       q    Type
REMARK                         _______ _______ _______ _____ _____    ______ ____
ROOT
ATOM      1  C   UNL     1      33.537 -20.984 -19.883  0.00  0.00    +0.139 C 
ATOM      2  C   UNL     1      35.036 -19.066 -21.245  0.00  0.00    +0.147 C 
ATOM      3  C   UNL     1      32.893 -19.974 -20.597  0.00  0.00    +0.040 C 
ATOM      4  C   UNL     1      34.931 -21.036 -19.850  0.00  0.00    +0.040 C 
ATOM      5  C   UNL     1      33.643 -19.015 -21.278  0.00  0.00    +0.041 C 
ATOM      6  C   UNL     1      35.680 -20.077 -20.530  0.00  0.00    +0.041 C 
ENDROOT
BRANCH   1   7
ATOM      7  O   UNL     1      32.805 -21.920 -19.217  0.00  0.00    -0.468 OA
BRANCH   7   8
ATOM      8  C   UNL     1      33.483 -22.688 -18.223  0.00  0.00    +0.263 C 
ATOM      9  C   UNL     1      33.929 -23.991 -18.862  0.00  0.00    +0.060 C 
BRANCH   8  11
ATOM     10  O   UNL     1      32.827 -23.489 -16.025  0.00  0.00    -0.246 OA
ATOM     11  C   UNL     1      32.527 -22.936 -17.076  0.00  0.00    +0.354 C 
BRANCH  11  12
ATOM     12  O   UNL     1      31.282 -22.455 -17.329  0.00  0.00    -0.478 OA
ATOM     13  H   UNL     1      30.617 -23.027 -17.658  0.00  0.00    +0.295 HD
ENDBRANCH  11  12
ENDBRANCH   8  11
ENDBRANCH   7   8
ENDBRANCH   1   7
BRANCH   2  14
ATOM     14  O   UNL     1      35.768 -18.132 -21.911  0.00  0.00    -0.435 OA
BRANCH  14  18
ATOM     15 CL   UNL     1      34.697 -15.525 -20.881  0.00  0.00    -0.077 Cl
ATOM     16  N   UNL     1      35.054 -17.881 -24.091  0.00  0.00    -0.209 NA
ATOM     17  C   UNL     1      33.850 -15.896 -24.761  0.00  0.00    +0.092 C 
ATOM     18  C   UNL     1      35.115 -17.355 -22.854  0.00  0.00    +0.240 C 
ATOM     19  C   UNL     1      33.938 -15.396 -23.467  0.00  0.00    +0.022 C 
ATOM     20  C   UNL     1      34.586 -16.137 -22.484  0.00  0.00    +0.111 C 
ATOM     21  C   UNL     1      34.418 -17.132 -25.019  0.00  0.00    +0.106 C 
BRANCH  17  25
ATOM     22  F   UNL     1      32.364 -14.120 -25.368  0.00  0.00    -0.166 F 
ATOM     23  F   UNL     1      34.021 -14.521 -26.711  0.00  0.00    -0.166 F 
ATOM     24  F   UNL     1      32.350 -15.908 -26.606  0.00  0.00    -0.166 F 
ATOM     25  C   UNL     1      33.164 -15.128 -25.835  0.00  0.00    +0.420 C 
ENDBRANCH  17  25
ENDBRANCH  14  18
ENDBRANCH   2  14
TORSDOF 7
ENDMDL
MODEL 6
REMARK VINA RESULT:      -9.4      6.361      8.522
REMARK  Name = 448979
REMARK  7 active torsions:
REMARK  status: ('A' for Active; 'I' for Inactive)
REMARK    1  A    between atoms: C_1  and  O_7
REMARK    2  A    between atoms: C_2  and  O_14
REMARK    3  A    between atoms: O_7  and  C_8
REMARK    4  A    between atoms: C_8  and  C_11
REMARK    5  A    between atoms: C_11  and  O_12
REMARK    6  A    between atoms: O_14  and  C_18
REMARK    7  A    between atoms: C_17  and  C_25
REMARK                            x       y       z     vdW  Elec       q    Type
REMARK                         _______ _______ _______ _____ _____    ______ ____
ROOT
ATOM      1  C   UNL     1      34.210 -14.905 -22.755  0.00  0.00    +0.139 C 
ATOM      2  C   UNL     1      32.243 -13.177 -21.792  0.00  0.00    +0.147 C 
ATOM      3  C   UNL     1      33.531 -14.063 -23.635  0.00  0.00    +0.040 C 
ATOM      4  C   UNL     1      33.907 -14.883 -21.393  0.00  0.00    +0.040 C 
ATOM      5  C   UNL     1      32.547 -13.199 -23.153  0.00  0.00    +0.041 C 
ATOM      6  C   UNL     1      32.924 -14.020 -20.912  0.00  0.00    +0.041 C 
ENDROOT
BRANCH   1   7
ATOM      7  O   UNL     1      35.170 -15.749 -23.225  0.00  0.00    -0.468 OA
BRANCH   7   8
ATOM      8  C   UNL     1      34.819 -17.127 -23.349  0.00  0.00    +0.263 C 
ATOM      9  C   UNL     1      35.903 -17.950 -22.675  0.00  0.00    +0.060 C 
BRANCH   8  11
ATOM     10  O   UNL     1      34.892 -16.666 -25.734  0.00  0.00    -0.246 OA
ATOM     11  C   UNL     1      34.710 -17.462 -24.822  0.00  0.00    +0.354 C 
BRANCH  11  12
ATOM     12  O   UNL     1      34.404 -18.769 -25.030  0.00  0.00    -0.478 OA
ATOM     13  H   UNL     1      33.606 -19.123 -24.690  0.00  0.00    +0.295 HD
ENDBRANCH  11  12
ENDBRANCH   8  11
ENDBRANCH   7   8
ENDBRANCH   1   7
BRANCH   2  14
ATOM     14  O   UNL     1      31.285 -12.333 -21.322  0.00  0.00    -0.435 OA
BRANCH  14  18
ATOM     15 CL   UNL     1      31.542 -10.924 -18.685  0.00  0.00    -0.077 Cl
ATOM     16  N   UNL     1      31.612 -10.480 -22.658  0.00  0.00    -0.209 NA
ATOM     17  C   UNL     1      32.002  -8.312 -21.665  0.00  0.00    +0.092 C 
ATOM     18  C   UNL     1      31.528 -10.972 -21.408  0.00  0.00    +0.240 C 
ATOM     19  C   UNL     1      31.906  -8.867 -20.395  0.00  0.00    +0.022 C 
ATOM     20  C   UNL     1      31.664 -10.230 -20.254  0.00  0.00    +0.111 C 
ATOM     21  C   UNL     1      31.848  -9.153 -22.754  0.00  0.00    +0.106 C 
BRANCH  17  25
ATOM     22  F   UNL     1      31.248  -6.195 -22.490  0.00  0.00    -0.166 F 
ATOM     23  F   UNL     1      32.437  -6.178 -20.675  0.00  0.00    -0.166 F 
ATOM     24  F   UNL     1      33.382  -6.609 -22.586  0.00  0.00    -0.166 F 
ATOM     25  C   UNL     1      32.259  -6.858 -21.849  0.00  0.00    +0.420 C 
ENDBRANCH  17  25
ENDBRANCH  14  18
ENDBRANCH   2  14
TORSDOF 7
ENDMDL
MODEL 7
REMARK VINA RESULT:      -9.4      2.973      3.822
REMARK  Name = 448979
REMARK  7 active torsions:
REMARK  status: ('A' for Active; 'I' for Inactive)
REMARK    1  A    between atoms: C_1  and  O_7
REMARK    2  A    between atoms: C_2  and  O_14
REMARK    3  A    between atoms: O_7  and  C_8
REMARK    4  A    between atoms: C_8  and  C_11
REMARK    5  A    between atoms: C_11  and  O_12
REMARK    6  A    between atoms: O_14  and  C_18
REMARK    7  A    between atoms: C_17  and  C_25
REMARK                            x       y       z     vdW  Elec       q    Type
REMARK                         _______ _______ _______ _____ _____    ______ ____
ROOT
ATOM      1  C   UNL     1      35.909 -22.489 -16.196  0.00  0.00    +0.139 C 
ATOM      2  C   UNL     1      35.634 -21.882 -18.905  0.00  0.00    +0.147 C 
ATOM      3  C   UNL     1      34.767 -22.892 -16.888  0.00  0.00    +0.040 C 
ATOM      4  C   UNL     1      36.914 -21.782 -16.858  0.00  0.00    +0.040 C 
ATOM      5  C   UNL     1      34.630 -22.587 -18.243  0.00  0.00    +0.041 C 
ATOM      6  C   UNL     1      36.776 -21.479 -18.212  0.00  0.00    +0.041 C 
ENDROOT
BRANCH   1   7
ATOM      7  O   UNL     1      36.044 -22.784 -14.874  0.00  0.00    -0.468 OA
BRANCH   7   8
ATOM      8  C   UNL     1      36.030 -24.164 -14.512  0.00  0.00    +0.263 C 
ATOM      9  C   UNL     1      35.697 -24.258 -13.033  0.00  0.00    +0.060 C 
BRANCH   8  11
ATOM     10  O   UNL     1      38.455 -24.284 -14.409  0.00  0.00    -0.246 OA
ATOM     11  C   UNL     1      37.395 -24.750 -14.806  0.00  0.00    +0.354 C 
BRANCH  11  12
ATOM     12  O   UNL     1      37.318 -25.880 -15.556  0.00  0.00    -0.478 OA
ATOM     13  H   UNL     1      37.404 -26.720 -15.148  0.00  0.00    +0.295 HD
ENDBRANCH  11  12
ENDBRANCH   8  11
ENDBRANCH   7   8
ENDBRANCH   1   7
BRANCH   2  14
ATOM     14  O   UNL     1      35.501 -21.587 -20.227  0.00  0.00    -0.435 OA
BRANCH  14  18
ATOM     15 CL   UNL     1      32.587 -20.904 -20.432  0.00  0.00    -0.077 Cl
ATOM     16  N   UNL     1      36.314 -19.494 -20.760  0.00  0.00    -0.209 NA
ATOM     17  C   UNL     1      34.791 -17.679 -21.243  0.00  0.00    +0.092 C 
ATOM     18  C   UNL     1      35.232 -20.272 -20.569  0.00  0.00    +0.240 C 
ATOM     19  C   UNL     1      33.707 -18.524 -21.035  0.00  0.00    +0.022 C 
ATOM     20  C   UNL     1      33.924 -19.854 -20.688  0.00  0.00    +0.111 C 
ATOM     21  C   UNL     1      36.063 -18.208 -21.095  0.00  0.00    +0.106 C 
BRANCH  17  25
ATOM     22  F   UNL     1      33.312 -15.955 -21.994  0.00  0.00    -0.166 F 
ATOM     23  F   UNL     1      34.873 -15.376 -20.603  0.00  0.00    -0.166 F 
ATOM     24  F   UNL     1      35.381 -15.864 -22.660  0.00  0.00    -0.166 F 
ATOM     25  C   UNL     1      34.592 -16.253 -21.615  0.00  0.00    +0.420 C 
ENDBRANCH  17  25
ENDBRANCH  14  18
ENDBRANCH   2  14
TORSDOF 7
ENDMDL
MODEL 8
REMARK VINA RESULT:      -9.4      4.545      6.767
REMARK  Name = 448979
REMARK  7 active torsions:
REMARK  status: ('A' for Active; 'I' for Inactive)
REMARK    1  A    between atoms: C_1  and  O_7
REMARK    2  A    between atoms: C_2  and  O_14
REMARK    3  A    between atoms: O_7  and  C_8
REMARK    4  A    between atoms: C_8  and  C_11
REMARK    5  A    between atoms: C_11  and  O_12
REMARK    6  A    between atoms: O_14  and  C_18
REMARK    7  A    between atoms: C_17  and  C_25
REMARK                            x       y       z     vdW  Elec       q    Type
REMARK                         _______ _______ _______ _____ _____    ______ ____
ROOT
ATOM      1  C   UNL     1      34.562 -16.305 -21.360  0.00  0.00    +0.139 C 
ATOM      2  C   UNL     1      32.981 -14.419 -22.673  0.00  0.00    +0.147 C 
ATOM      3  C   UNL     1      34.845 -15.955 -22.680  0.00  0.00    +0.040 C 
ATOM      4  C   UNL     1      33.488 -15.711 -20.695  0.00  0.00    +0.040 C 
ATOM      5  C   UNL     1      34.054 -15.013 -23.336  0.00  0.00    +0.041 C 
ATOM      6  C   UNL     1      32.698 -14.769 -21.352  0.00  0.00    +0.041 C 
ENDROOT
BRANCH   1   7
ATOM      7  O   UNL     1      35.333 -17.226 -20.719  0.00  0.00    -0.468 OA
BRANCH   7   8
ATOM      8  C   UNL     1      35.446 -18.513 -21.324  0.00  0.00    +0.263 C 
ATOM      9  C   UNL     1      34.162 -19.275 -21.048  0.00  0.00    +0.060 C 
BRANCH   8  11
ATOM     10  O   UNL     1      36.607 -19.942 -19.737  0.00  0.00    -0.246 OA
ATOM     11  C   UNL     1      36.644 -19.220 -20.726  0.00  0.00    +0.354 C 
BRANCH  11  12
ATOM     12  O   UNL     1      37.784 -18.982 -21.425  0.00  0.00    -0.478 OA
ATOM     13  H   UNL     1      37.885 -18.179 -21.897  0.00  0.00    +0.295 HD
ENDBRANCH  11  12
ENDBRANCH   8  11
ENDBRANCH   7   8
ENDBRANCH   1   7
BRANCH   2  14
ATOM     14  O   UNL     1      32.210 -13.497 -23.312  0.00  0.00    -0.435 OA
BRANCH  14  18
ATOM     15 CL   UNL     1      33.992 -11.679 -24.900  0.00  0.00    -0.077 Cl
ATOM     16  N   UNL     1      31.510 -11.925 -21.775  0.00  0.00    -0.209 NA
ATOM     17  C   UNL     1      32.310  -9.648 -21.907  0.00  0.00    +0.092 C 
ATOM     18  C   UNL     1      32.262 -12.189 -22.859  0.00  0.00    +0.240 C 
ATOM     19  C   UNL     1      33.071  -9.971 -23.024  0.00  0.00    +0.022 C 
ATOM     20  C   UNL     1      33.051 -11.271 -23.519  0.00  0.00    +0.111 C 
ATOM     21  C   UNL     1      31.554 -10.651 -21.324  0.00  0.00    +0.106 C 
BRANCH  17  25
ATOM     22  F   UNL     1      33.490  -7.600 -21.531  0.00  0.00    -0.166 F 
ATOM     23  F   UNL     1      31.358  -7.453 -21.904  0.00  0.00    -0.166 F 
ATOM     24  F   UNL     1      32.075  -8.237 -20.007  0.00  0.00    -0.166 F 
ATOM     25  C   UNL     1      32.309  -8.267 -21.353  0.00  0.00    +0.420 C 
ENDBRANCH  17  25
ENDBRANCH  14  18
ENDBRANCH   2  14
TORSDOF 7
ENDMDL
MODEL 9
REMARK VINA RESULT:      -9.2      7.897      9.286
REMARK  Name = 448979
REMARK  7 active torsions:
REMARK  status: ('A' for Active; 'I' for Inactive)
REMARK    1  A    between atoms: C_1  and  O_7
REMARK    2  A    between atoms: C_2  and  O_14
REMARK    3  A    between atoms: O_7  and  C_8
REMARK    4  A    between atoms: C_8  and  C_11
REMARK    5  A    between atoms: C_11  and  O_12
REMARK    6  A    between atoms: O_14  and  C_18
REMARK    7  A    between atoms: C_17  and  C_25
REMARK                            x       y       z     vdW  Elec       q    Type
REMARK                         _______ _______ _______ _____ _____    ______ ____
ROOT
ATOM      1  C   UNL     1      30.960 -22.804 -15.475  0.00  0.00    +0.139 C 
ATOM      2  C   UNL     1      33.528 -23.423 -16.369  0.00  0.00    +0.147 C 
ATOM      3  C   UNL     1      31.258 -22.742 -16.836  0.00  0.00    +0.040 C 
ATOM      4  C   UNL     1      31.946 -23.176 -14.560  0.00  0.00    +0.040 C 
ATOM      5  C   UNL     1      32.543 -23.051 -17.282  0.00  0.00    +0.041 C 
ATOM      6  C   UNL     1      33.229 -23.485 -15.007  0.00  0.00    +0.041 C 
ENDROOT
BRANCH   1   7
ATOM      7  O   UNL     1      29.706 -22.501 -15.038  0.00  0.00    -0.468 OA
BRANCH   7   8
ATOM      8  C   UNL     1      28.664 -23.419 -15.367  0.00  0.00    +0.263 C 
ATOM      9  C   UNL     1      29.274 -24.806 -15.468  0.00  0.00    +0.060 C 
BRANCH   8  11
ATOM     10  O   UNL     1      27.793 -21.835 -16.990  0.00  0.00    -0.246 OA
ATOM     11  C   UNL     1      28.047 -22.992 -16.682  0.00  0.00    +0.354 C 
BRANCH  11  12
ATOM     12  O   UNL     1      27.819 -24.045 -17.509  0.00  0.00    -0.478 OA
ATOM     13  H   UNL     1      27.035 -24.550 -17.419  0.00  0.00    +0.295 HD
ENDBRANCH  11  12
ENDBRANCH   8  11
ENDBRANCH   7   8
ENDBRANCH   1   7
BRANCH   2  14
ATOM     14  O   UNL     1      34.781 -23.727 -16.805  0.00  0.00    -0.435 OA
BRANCH  14  18
ATOM     15 CL   UNL     1      36.880 -21.613 -16.446  0.00  0.00    -0.077 Cl
ATOM     16  N   UNL     1      35.597 -25.197 -15.224  0.00  0.00    -0.209 NA
ATOM     17  C   UNL     1      37.587 -24.654 -13.963  0.00  0.00    +0.092 C 
ATOM     18  C   UNL     1      35.742 -24.014 -15.850  0.00  0.00    +0.240 C 
ATOM     19  C   UNL     1      37.693 -23.443 -14.638  0.00  0.00    +0.022 C 
ATOM     20  C   UNL     1      36.752 -23.108 -15.606  0.00  0.00    +0.111 C 
ATOM     21  C   UNL     1      36.530 -25.488 -14.290  0.00  0.00    +0.106 C 
BRANCH  17  25
ATOM     22  F   UNL     1      39.809 -25.361 -13.426  0.00  0.00    -0.166 F 
ATOM     23  F   UNL     1      38.816 -24.064 -11.998  0.00  0.00    -0.166 F 
ATOM     24  F   UNL     1      38.186 -26.134 -12.202  0.00  0.00    -0.166 F 
ATOM     25  C   UNL     1      38.577 -25.042 -12.924  0.00  0.00    +0.420 C 
ENDBRANCH  17  25
ENDBRANCH  14  18
ENDBRANCH   2  14
TORSDOF 7
ENDMDL
