MODEL 1
REMARK VINA RESULT:      -9.4      0.000      0.000
REMARK  Name = 23649245
REMARK  7 active torsions:
REMARK  status: ('A' for Active; 'I' for Inactive)
REMARK    1  A    between atoms: C_2  and  C_19
REMARK    2  A    between atoms: C_3  and  N_30
REMARK    3  A    between atoms: C_5  and  C_11
REMARK    4  A    between atoms: N_18  and  C_21
REMARK    5  A    between atoms: C_21  and  C_22
REMARK    6  A    between atoms: C_21  and  C_28
REMARK    7  A    between atoms: N_30  and  S_32
REMARK                            x       y       z     vdW  Elec       q    Type
REMARK                         _______ _______ _______ _____ _____    ______ ____
ROOT
ATOM      1  N   UNL     1      33.415 -10.982 -25.554  0.00  0.00    -0.404 NA
ATOM      2  C   UNL     1      33.199 -12.898 -23.548  0.00  0.00    +0.059 C 
ATOM      3  C   UNL     1      33.222 -11.550 -23.215  0.00  0.00    +0.095 C 
ATOM      4  C   UNL     1      33.284 -13.294 -24.890  0.00  0.00    +0.102 C 
ATOM      5  C   UNL     1      33.331 -10.641 -24.248  0.00  0.00    +0.145 C 
ATOM      6  C   UNL     1      33.393 -12.290 -25.873  0.00  0.00    +0.117 C 
ATOM      7  C   UNL     1      33.263 -14.650 -25.259  0.00  0.00    -0.015 C 
ATOM      8  C   UNL     1      33.477 -12.685 -27.206  0.00  0.00    +0.028 C 
ATOM      9  C   UNL     1      33.350 -15.017 -26.599  0.00  0.00    -0.004 C 
ATOM     10  C   UNL     1      33.456 -14.032 -27.573  0.00  0.00    +0.002 C 
ENDROOT
BRANCH   5  11
ATOM     11  C   UNL     1      33.364  -9.213 -24.016  0.00  0.00    +0.031 C 
ATOM     12  C   UNL     1      32.179  -8.478 -24.023  0.00  0.00    +0.003 C 
ATOM     13  C   UNL     1      34.581  -8.572 -23.785  0.00  0.00    +0.003 C 
ATOM     14  C   UNL     1      32.210  -7.101 -23.798  0.00  0.00    +0.000 C 
ATOM     15  C   UNL     1      34.612  -7.195 -23.561  0.00  0.00    +0.000 C 
ATOM     16  C   UNL     1      33.426  -6.460 -23.567  0.00  0.00    +0.000 C 
ENDBRANCH   5  11
BRANCH   2  19
ATOM     17  O   UNL     1      31.982 -14.102 -21.946  0.00  0.00    -0.270 OA
ATOM     18  N   UNL     1      34.252 -14.548 -22.103  0.00  0.00    -0.299 N 
ATOM     19  C   UNL     1      33.082 -13.881 -22.471  0.00  0.00    +0.244 C 
ATOM     20  H   UNL     1      35.088 -14.316 -22.567  0.00  0.00    +0.150 HD
BRANCH  18  21
ATOM     21  C   UNL     1      34.295 -15.562 -21.074  0.00  0.00    +0.094 C 
BRANCH  21  22
ATOM     22  C   UNL     1      34.576 -16.924 -21.677  0.00  0.00    -0.005 C 
ATOM     23  C   UNL     1      34.587 -17.062 -23.053  0.00  0.00    -0.003 C 
ATOM     24  C   UNL     1      34.813 -17.997 -20.837  0.00  0.00    -0.003 C 
ATOM     25  C   UNL     1      34.846 -18.315 -23.608  0.00  0.00    -0.000 C 
ATOM     26  C   UNL     1      35.072 -19.250 -21.393  0.00  0.00    -0.000 C 
ATOM     27  C   UNL     1      35.088 -19.409 -22.778  0.00  0.00    -0.000 C 
ENDBRANCH  21  22
BRANCH  21  28
ATOM     28  C   UNL     1      33.004 -15.565 -20.236  0.00  0.00    +0.024 C 
ATOM     29  C   UNL     1      32.052 -16.687 -20.633  0.00  0.00    +0.002 C 
ENDBRANCH  21  28
ENDBRANCH  18  21
ENDBRANCH   2  19
BRANCH   3  30
ATOM     30  N   UNL     1      33.138 -11.120 -21.852  0.00  0.00    -0.216 N 
ATOM     31  H   UNL     1      33.933 -11.120 -21.272  0.00  0.00    +0.173 HD
BRANCH  30  32
ATOM     32  S   UNL     1      31.607 -10.608 -21.258  0.00  0.00    +0.056 S 
ATOM     33  O   UNL     1      31.708  -9.208 -20.885  0.00  0.00    -0.154 OA
ATOM     34  O   UNL     1      30.535 -11.064 -22.119  0.00  0.00    -0.154 OA
ATOM     35  C   UNL     1      31.529 -11.540 -19.745  0.00  0.00    +0.200 C 
ENDBRANCH  30  32
ENDBRANCH   3  30
TORSDOF 7
ENDMDL
MODEL 2
REMARK VINA RESULT:      -8.4      2.246      4.771
REMARK  Name = 23649245
REMARK  7 active torsions:
REMARK  status: ('A' for Active; 'I' for Inactive)
REMARK    1  A    between atoms: C_2  and  C_19
REMARK    2  A    between atoms: C_3  and  N_30
REMARK    3  A    between atoms: C_5  and  C_11
REMARK    4  A    between atoms: N_18  and  C_21
REMARK    5  A    between atoms: C_21  and  C_22
REMARK    6  A    between atoms: C_21  and  C_28
REMARK    7  A    between atoms: N_30  and  S_32
REMARK                            x       y       z     vdW  Elec       q    Type
REMARK                         _______ _______ _______ _____ _____    ______ ____
ROOT
ATOM      1  N   UNL     1      31.467  -8.518 -21.117  0.00  0.00    -0.404 NA
ATOM      2  C   UNL     1      32.524 -10.718 -22.452  0.00  0.00    +0.059 C 
ATOM      3  C   UNL     1      32.449  -9.491 -23.097  0.00  0.00    +0.095 C 
ATOM      4  C   UNL     1      32.070 -10.851 -21.133  0.00  0.00    +0.102 C 
ATOM      5  C   UNL     1      31.916  -8.432 -22.389  0.00  0.00    +0.145 C 
ATOM      6  C   UNL     1      31.542  -9.710 -20.495  0.00  0.00    +0.117 C 
ATOM      7  C   UNL     1      32.132 -12.080 -20.453  0.00  0.00    -0.015 C 
ATOM      8  C   UNL     1      31.090  -9.842 -19.184  0.00  0.00    +0.028 C 
ATOM      9  C   UNL     1      31.673 -12.184 -19.143  0.00  0.00    -0.004 C 
ATOM     10  C   UNL     1      31.152 -11.063 -18.508  0.00  0.00    +0.002 C 
ENDROOT
BRANCH   5  11
ATOM     11  C   UNL     1      31.791  -7.109 -22.963  0.00  0.00    +0.031 C 
ATOM     12  C   UNL     1      31.159  -6.940 -24.194  0.00  0.00    +0.003 C 
ATOM     13  C   UNL     1      32.302  -6.003 -22.283  0.00  0.00    +0.003 C 
ATOM     14  C   UNL     1      31.037  -5.664 -24.746  0.00  0.00    +0.000 C 
ATOM     15  C   UNL     1      32.181  -4.728 -22.836  0.00  0.00    +0.000 C 
ATOM     16  C   UNL     1      31.548  -4.559 -24.068  0.00  0.00    +0.000 C 
ENDBRANCH   5  11
BRANCH   2  19
ATOM     17  O   UNL     1      34.271 -11.839 -23.544  0.00  0.00    -0.270 OA
ATOM     18  N   UNL     1      32.233 -12.936 -23.409  0.00  0.00    -0.299 N 
ATOM     19  C   UNL     1      33.086 -11.857 -23.180  0.00  0.00    +0.244 C 
ATOM     20  H   UNL     1      31.304 -12.875 -23.088  0.00  0.00    +0.150 HD
BRANCH  18  21
ATOM     21  C   UNL     1      32.646 -14.142 -24.091  0.00  0.00    +0.094 C 
BRANCH  21  22
ATOM     22  C   UNL     1      33.437 -15.040 -23.161  0.00  0.00    -0.005 C 
ATOM     23  C   UNL     1      33.040 -15.160 -21.842  0.00  0.00    -0.003 C 
ATOM     24  C   UNL     1      34.538 -15.716 -23.654  0.00  0.00    -0.003 C 
ATOM     25  C   UNL     1      33.768 -15.986 -20.986  0.00  0.00    -0.000 C 
ATOM     26  C   UNL     1      35.266 -16.543 -22.798  0.00  0.00    -0.000 C 
ATOM     27  C   UNL     1      34.881 -16.677 -21.464  0.00  0.00    -0.000 C 
ENDBRANCH  21  22
BRANCH  21  28
ATOM     28  C   UNL     1      33.430 -13.817 -25.375  0.00  0.00    +0.024 C 
ATOM     29  C   UNL     1      32.778 -14.401 -26.622  0.00  0.00    +0.002 C 
ENDBRANCH  21  28
ENDBRANCH  18  21
ENDBRANCH   2  19
BRANCH   3  30
ATOM     30  N   UNL     1      32.905  -9.331 -24.444  0.00  0.00    -0.216 N 
ATOM     31  H   UNL     1      32.344  -9.606 -25.205  0.00  0.00    +0.173 HD
BRANCH  30  32
ATOM     32  S   UNL     1      34.463  -8.647 -24.696  0.00  0.00    +0.056 S 
ATOM     33  O   UNL     1      34.306  -7.423 -25.461  0.00  0.00    -0.154 OA
ATOM     34  O   UNL     1      35.239  -8.654 -23.472  0.00  0.00    -0.154 OA
ATOM     35  C   UNL     1      35.165  -9.856 -25.794  0.00  0.00    +0.200 C 
ENDBRANCH  30  32
ENDBRANCH   3  30
TORSDOF 7
ENDMDL
MODEL 3
REMARK VINA RESULT:      -7.9      1.977      7.422
REMARK  Name = 23649245
REMARK  7 active torsions:
REMARK  status: ('A' for Active; 'I' for Inactive)
REMARK    1  A    between atoms: C_2  and  C_19
REMARK    2  A    between atoms: C_3  and  N_30
REMARK    3  A    between atoms: C_5  and  C_11
REMARK    4  A    between atoms: N_18  and  C_21
REMARK    5  A    between atoms: C_21  and  C_22
REMARK    6  A    between atoms: C_21  and  C_28
REMARK    7  A    between atoms: N_30  and  S_32
REMARK                            x       y       z     vdW  Elec       q    Type
REMARK                         _______ _______ _______ _____ _____    ______ ____
ROOT
ATOM      1  N   UNL     1      34.684 -12.982 -25.285  0.00  0.00    -0.404 NA
ATOM      2  C   UNL     1      32.987 -11.693 -23.495  0.00  0.00    +0.059 C 
ATOM      3  C   UNL     1      33.037 -13.080 -23.522  0.00  0.00    +0.095 C 
ATOM      4  C   UNL     1      33.789 -10.942 -24.366  0.00  0.00    +0.102 C 
ATOM      5  C   UNL     1      33.895 -13.669 -24.429  0.00  0.00    +0.145 C 
ATOM      6  C   UNL     1      34.634 -11.636 -25.256  0.00  0.00    +0.117 C 
ATOM      7  C   UNL     1      33.761  -9.537 -24.363  0.00  0.00    -0.015 C 
ATOM      8  C   UNL     1      35.429 -10.890 -26.121  0.00  0.00    +0.028 C 
ATOM      9  C   UNL     1      34.567  -8.815 -25.239  0.00  0.00    -0.004 C 
ATOM     10  C   UNL     1      35.403  -9.493 -26.118  0.00  0.00    +0.002 C 
ENDROOT
BRANCH   5  11
ATOM     11  C   UNL     1      34.027 -15.106 -24.542  0.00  0.00    +0.031 C 
ATOM     12  C   UNL     1      33.374 -15.787 -25.569  0.00  0.00    +0.003 C 
ATOM     13  C   UNL     1      34.808 -15.809 -23.625  0.00  0.00    +0.003 C 
ATOM     14  C   UNL     1      33.502 -17.173 -25.679  0.00  0.00    +0.000 C 
ATOM     15  C   UNL     1      34.935 -17.194 -23.735  0.00  0.00    +0.000 C 
ATOM     16  C   UNL     1      34.282 -17.875 -24.762  0.00  0.00    +0.000 C 
ENDBRANCH   5  11
BRANCH   2  19
ATOM     17  O   UNL     1      31.028 -11.598 -22.209  0.00  0.00    -0.270 OA
ATOM     18  N   UNL     1      32.497  -9.812 -22.032  0.00  0.00    -0.299 N 
ATOM     19  C   UNL     1      32.086 -11.045 -22.542  0.00  0.00    +0.244 C 
ATOM     20  H   UNL     1      33.351  -9.437 -22.346  0.00  0.00    +0.150 HD
BRANCH  18  21
ATOM     21  C   UNL     1      31.730  -9.060 -21.065  0.00  0.00    +0.094 C 
BRANCH  21  22
ATOM     22  C   UNL     1      31.594  -7.613 -21.498  0.00  0.00    -0.005 C 
ATOM     23  C   UNL     1      31.093  -7.332 -22.756  0.00  0.00    -0.003 C 
ATOM     24  C   UNL     1      31.973  -6.611 -20.625  0.00  0.00    -0.003 C 
ATOM     25  C   UNL     1      30.967  -6.001 -23.154  0.00  0.00    -0.000 C 
ATOM     26  C   UNL     1      31.847  -5.280 -21.023  0.00  0.00    -0.000 C 
ATOM     27  C   UNL     1      31.345  -4.975 -22.287  0.00  0.00    -0.000 C 
ENDBRANCH  21  22
BRANCH  21  28
ATOM     28  C   UNL     1      32.336  -9.178 -19.656  0.00  0.00    +0.024 C 
ATOM     29  C   UNL     1      31.666 -10.262 -18.820  0.00  0.00    +0.002 C 
ENDBRANCH  21  28
ENDBRANCH  18  21
ENDBRANCH   2  19
BRANCH   3  30
ATOM     30  N   UNL     1      32.226 -13.869 -22.644  0.00  0.00    -0.216 N 
ATOM     31  H   UNL     1      31.340 -14.192 -22.926  0.00  0.00    +0.173 HD
BRANCH  30  32
ATOM     32  S   UNL     1      32.846 -14.235 -21.081  0.00  0.00    +0.056 S 
ATOM     33  O   UNL     1      34.296 -14.240 -21.155  0.00  0.00    -0.154 OA
ATOM     34  O   UNL     1      32.163 -13.469 -20.058  0.00  0.00    -0.154 OA
ATOM     35  C   UNL     1      32.332 -15.931 -20.928  0.00  0.00    +0.200 C 
ENDBRANCH  30  32
ENDBRANCH   3  30
TORSDOF 7
ENDMDL
MODEL 4
REMARK VINA RESULT:      -7.9      1.971      3.168
REMARK  Name = 23649245
REMARK  7 active torsions:
REMARK  status: ('A' for Active; 'I' for Inactive)
REMARK    1  A    between atoms: C_2  and  C_19
REMARK    2  A    between atoms: C_3  and  N_30
REMARK    3  A    between atoms: C_5  and  C_11
REMARK    4  A    between atoms: N_18  and  C_21
REMARK    5  A    between atoms: C_21  and  C_22
REMARK    6  A    between atoms: C_21  and  C_28
REMARK    7  A    between atoms: N_30  and  S_32
REMARK                            x       y       z     vdW  Elec       q    Type
REMARK                         _______ _______ _______ _____ _____    ______ ____
ROOT
ATOM      1  N   UNL     1      33.452  -8.239 -23.891  0.00  0.00    -0.404 NA
ATOM      2  C   UNL     1      32.948 -10.902 -23.263  0.00  0.00    +0.059 C 
ATOM      3  C   UNL     1      32.275  -9.895 -22.586  0.00  0.00    +0.095 C 
ATOM      4  C   UNL     1      33.879 -10.582 -24.261  0.00  0.00    +0.102 C 
ATOM      5  C   UNL     1      32.562  -8.591 -22.935  0.00  0.00    +0.145 C 
ATOM      6  C   UNL     1      34.103  -9.219 -24.546  0.00  0.00    +0.117 C 
ATOM      7  C   UNL     1      34.576 -11.578 -24.965  0.00  0.00    -0.015 C 
ATOM      8  C   UNL     1      35.028  -8.901 -25.537  0.00  0.00    +0.028 C 
ATOM      9  C   UNL     1      35.495 -11.232 -25.951  0.00  0.00    -0.004 C 
ATOM     10  C   UNL     1      35.721  -9.891 -26.237  0.00  0.00    +0.002 C 
ENDROOT
BRANCH   5  11
ATOM     11  C   UNL     1      31.920  -7.463 -22.295  0.00  0.00    +0.031 C 
ATOM     12  C   UNL     1      32.386  -7.002 -21.064  0.00  0.00    +0.003 C 
ATOM     13  C   UNL     1      30.836  -6.837 -22.910  0.00  0.00    +0.003 C 
ATOM     14  C   UNL     1      31.767  -5.914 -20.447  0.00  0.00    +0.000 C 
ATOM     15  C   UNL     1      30.217  -5.750 -22.292  0.00  0.00    +0.000 C 
ATOM     16  C   UNL     1      30.684  -5.288 -21.061  0.00  0.00    +0.000 C 
ENDBRANCH   5  11
BRANCH   2  19
ATOM     17  O   UNL     1      31.505 -12.734 -23.011  0.00  0.00    -0.270 OA
ATOM     18  N   UNL     1      33.741 -13.070 -22.495  0.00  0.00    -0.299 N 
ATOM     19  C   UNL     1      32.660 -12.294 -22.912  0.00  0.00    +0.244 C 
ATOM     20  H   UNL     1      34.628 -12.648 -22.442  0.00  0.00    +0.150 HD
BRANCH  18  21
ATOM     21  C   UNL     1      33.622 -14.466 -22.137  0.00  0.00    +0.094 C 
BRANCH  21  22
ATOM     22  C   UNL     1      33.955 -15.352 -23.320  0.00  0.00    -0.005 C 
ATOM     23  C   UNL     1      34.741 -16.473 -23.122  0.00  0.00    -0.003 C 
ATOM     24  C   UNL     1      33.467 -15.019 -24.570  0.00  0.00    -0.003 C 
ATOM     25  C   UNL     1      35.047 -17.289 -24.210  0.00  0.00    -0.000 C 
ATOM     26  C   UNL     1      33.773 -15.835 -25.659  0.00  0.00    -0.000 C 
ATOM     27  C   UNL     1      34.563 -16.970 -25.479  0.00  0.00    -0.000 C 
ENDBRANCH  21  22
BRANCH  21  28
ATOM     28  C   UNL     1      32.230 -14.780 -21.564  0.00  0.00    +0.024 C 
ATOM     29  C   UNL     1      32.288 -15.733 -20.376  0.00  0.00    +0.002 C 
ENDBRANCH  21  28
ENDBRANCH  18  21
ENDBRANCH   2  19
BRANCH   3  30
ATOM     30  N   UNL     1      31.321 -10.198 -21.562  0.00  0.00    -0.216 N 
ATOM     31  H   UNL     1      30.357 -10.219 -21.759  0.00  0.00    +0.173 HD
BRANCH  30  32
ATOM     32  S   UNL     1      31.909 -10.519 -19.978  0.00  0.00    +0.056 S 
ATOM     33  O   UNL     1      32.414 -11.880 -19.946  0.00  0.00    -0.154 OA
ATOM     34  O   UNL     1      32.720  -9.422 -19.490  0.00  0.00    -0.154 OA
ATOM     35  C   UNL     1      30.381 -10.516 -19.068  0.00  0.00    +0.200 C 
ENDBRANCH  30  32
ENDBRANCH   3  30
TORSDOF 7
ENDMDL
MODEL 5
REMARK VINA RESULT:      -7.7      2.579      8.574
REMARK  Name = 23649245
REMARK  7 active torsions:
REMARK  status: ('A' for Active; 'I' for Inactive)
REMARK    1  A    between atoms: C_2  and  C_19
REMARK    2  A    between atoms: C_3  and  N_30
REMARK    3  A    between atoms: C_5  and  C_11
REMARK    4  A    between atoms: N_18  and  C_21
REMARK    5  A    between atoms: C_21  and  C_22
REMARK    6  A    between atoms: C_21  and  C_28
REMARK    7  A    between atoms: N_30  and  S_32
REMARK                            x       y       z     vdW  Elec       q    Type
REMARK                         _______ _______ _______ _____ _____    ______ ____
ROOT
ATOM      1  N   UNL     1      32.548 -12.843 -21.841  0.00  0.00    -0.404 NA
ATOM      2  C   UNL     1      32.421 -10.262 -22.873  0.00  0.00    +0.059 C 
ATOM      3  C   UNL     1      32.854 -11.306 -23.679  0.00  0.00    +0.095 C 
ATOM      4  C   UNL     1      32.049 -10.504 -21.544  0.00  0.00    +0.102 C 
ATOM      5  C   UNL     1      32.898 -12.567 -23.118  0.00  0.00    +0.145 C 
ATOM      6  C   UNL     1      32.128 -11.827 -21.063  0.00  0.00    +0.117 C 
ATOM      7  C   UNL     1      31.607  -9.468 -20.703  0.00  0.00    -0.015 C 
ATOM      8  C   UNL     1      31.758 -12.067 -19.742  0.00  0.00    +0.028 C 
ATOM      9  C   UNL     1      31.243  -9.737 -19.387  0.00  0.00    -0.004 C 
ATOM     10  C   UNL     1      31.318 -11.038 -18.906  0.00  0.00    +0.002 C 
ENDROOT
BRANCH   5  11
ATOM     11  C   UNL     1      33.333 -13.727 -23.866  0.00  0.00    +0.031 C 
ATOM     12  C   UNL     1      34.277 -14.595 -23.320  0.00  0.00    +0.003 C 
ATOM     13  C   UNL     1      32.805 -13.978 -25.133  0.00  0.00    +0.003 C 
ATOM     14  C   UNL     1      34.695 -15.715 -24.040  0.00  0.00    +0.000 C 
ATOM     15  C   UNL     1      33.223 -15.096 -25.853  0.00  0.00    +0.000 C 
ATOM     16  C   UNL     1      34.168 -15.965 -25.306  0.00  0.00    +0.000 C 
ENDBRANCH   5  11
BRANCH   2  19
ATOM     17  O   UNL     1      31.400  -8.579 -24.148  0.00  0.00    -0.270 OA
ATOM     18  N   UNL     1      33.421  -8.060 -23.137  0.00  0.00    -0.299 N 
ATOM     19  C   UNL     1      32.364  -8.916 -23.445  0.00  0.00    +0.244 C 
ATOM     20  H   UNL     1      34.151  -8.401 -22.572  0.00  0.00    +0.150 HD
BRANCH  18  21
ATOM     21  C   UNL     1      33.497  -6.694 -23.605  0.00  0.00    +0.094 C 
BRANCH  21  22
ATOM     22  C   UNL     1      32.373  -5.863 -23.019  0.00  0.00    -0.005 C 
ATOM     23  C   UNL     1      31.797  -4.870 -23.790  0.00  0.00    -0.003 C 
ATOM     24  C   UNL     1      31.951  -6.117 -21.727  0.00  0.00    -0.003 C 
ATOM     25  C   UNL     1      30.763  -4.106 -23.251  0.00  0.00    -0.000 C 
ATOM     26  C   UNL     1      30.916  -5.353 -21.188  0.00  0.00    -0.000 C 
ATOM     27  C   UNL     1      30.323  -4.347 -21.950  0.00  0.00    -0.000 C 
ENDBRANCH  21  22
BRANCH  21  28
ATOM     28  C   UNL     1      33.511  -6.630 -25.143  0.00  0.00    +0.024 C 
ATOM     29  C   UNL     1      34.735  -5.904 -25.687  0.00  0.00    +0.002 C 
ENDBRANCH  21  28
ENDBRANCH  18  21
ENDBRANCH   2  19
BRANCH   3  30
ATOM     30  N   UNL     1      33.241 -11.084 -25.039  0.00  0.00    -0.216 N 
ATOM     31  H   UNL     1      32.614 -11.252 -25.779  0.00  0.00    +0.173 HD
BRANCH  30  32
ATOM     32  S   UNL     1      34.837 -10.516 -25.344  0.00  0.00    +0.056 S 
ATOM     33  O   UNL     1      34.750  -9.151 -25.830  0.00  0.00    -0.154 OA
ATOM     34  O   UNL     1      35.727 -10.853 -24.251  0.00  0.00    -0.154 OA
ATOM     35  C   UNL     1      35.272 -11.532 -26.736  0.00  0.00    +0.200 C 
ENDBRANCH  30  32
ENDBRANCH   3  30
TORSDOF 7
ENDMDL
MODEL 6
REMARK VINA RESULT:      -7.5      1.962      3.304
REMARK  Name = 23649245
REMARK  7 active torsions:
REMARK  status: ('A' for Active; 'I' for Inactive)
REMARK    1  A    between atoms: C_2  and  C_19
REMARK    2  A    between atoms: C_3  and  N_30
REMARK    3  A    between atoms: C_5  and  C_11
REMARK    4  A    between atoms: N_18  and  C_21
REMARK    5  A    between atoms: C_21  and  C_22
REMARK    6  A    between atoms: C_21  and  C_28
REMARK    7  A    between atoms: N_30  and  S_32
REMARK                            x       y       z     vdW  Elec       q    Type
REMARK                         _______ _______ _______ _____ _____    ______ ____
ROOT
ATOM      1  N   UNL     1      33.736  -8.301 -23.723  0.00  0.00    -0.404 NA
ATOM      2  C   UNL     1      32.925 -10.957 -23.561  0.00  0.00    +0.059 C 
ATOM      3  C   UNL     1      32.340 -10.006 -22.737  0.00  0.00    +0.095 C 
ATOM      4  C   UNL     1      33.921 -10.583 -24.474  0.00  0.00    +0.102 C 
ATOM      5  C   UNL     1      32.779  -8.702 -22.857  0.00  0.00    +0.145 C 
ATOM      6  C   UNL     1      34.301  -9.226 -24.522  0.00  0.00    +0.117 C 
ATOM      7  C   UNL     1      34.532 -11.522 -25.322  0.00  0.00    -0.015 C 
ATOM      8  C   UNL     1      35.290  -8.855 -25.428  0.00  0.00    +0.028 C 
ATOM      9  C   UNL     1      35.519 -11.123 -26.218  0.00  0.00    -0.004 C 
ATOM     10  C   UNL     1      35.898  -9.788 -26.272  0.00  0.00    +0.002 C 
ENDROOT
BRANCH   5  11
ATOM     11  C   UNL     1      32.238  -7.631 -22.048  0.00  0.00    +0.031 C 
ATOM     12  C   UNL     1      31.159  -6.881 -22.514  0.00  0.00    +0.003 C 
ATOM     13  C   UNL     1      32.797  -7.349 -20.801  0.00  0.00    +0.003 C 
ATOM     14  C   UNL     1      30.637  -5.849 -21.734  0.00  0.00    +0.000 C 
ATOM     15  C   UNL     1      32.275  -6.316 -20.022  0.00  0.00    +0.000 C 
ATOM     16  C   UNL     1      31.195  -5.567 -20.489  0.00  0.00    +0.000 C 
ENDBRANCH   5  11
BRANCH   2  19
ATOM     17  O   UNL     1      31.344 -12.602 -23.019  0.00  0.00    -0.270 OA
ATOM     18  N   UNL     1      33.369 -13.327 -23.882  0.00  0.00    -0.299 N 
ATOM     19  C   UNL     1      32.475 -12.346 -23.454  0.00  0.00    +0.244 C 
ATOM     20  H   UNL     1      34.251 -13.044 -24.216  0.00  0.00    +0.150 HD
BRANCH  18  21
ATOM     21  C   UNL     1      33.064 -14.740 -23.862  0.00  0.00    +0.094 C 
BRANCH  21  22
ATOM     22  C   UNL     1      33.809 -15.433 -22.739  0.00  0.00    -0.005 C 
ATOM     23  C   UNL     1      33.770 -14.888 -21.468  0.00  0.00    -0.003 C 
ATOM     24  C   UNL     1      34.511 -16.593 -23.011  0.00  0.00    -0.003 C 
ATOM     25  C   UNL     1      34.455 -15.526 -20.435  0.00  0.00    -0.000 C 
ATOM     26  C   UNL     1      35.196 -17.231 -21.976  0.00  0.00    -0.000 C 
ATOM     27  C   UNL     1      35.168 -16.697 -20.689  0.00  0.00    -0.000 C 
ENDBRANCH  21  22
BRANCH  21  28
ATOM     28  C   UNL     1      33.352 -15.394 -25.225  0.00  0.00    +0.024 C 
ATOM     29  C   UNL     1      32.828 -14.567 -26.392  0.00  0.00    +0.002 C 
ENDBRANCH  21  28
ENDBRANCH  18  21
ENDBRANCH   2  19
BRANCH   3  30
ATOM     30  N   UNL     1      31.322 -10.364 -21.796  0.00  0.00    -0.216 N 
ATOM     31  H   UNL     1      30.371 -10.361 -22.052  0.00  0.00    +0.173 HD
BRANCH  30  32
ATOM     32  S   UNL     1      31.808 -10.796 -20.203  0.00  0.00    +0.056 S 
ATOM     33  O   UNL     1      32.141 -12.209 -20.196  0.00  0.00    -0.154 OA
ATOM     34  O   UNL     1      32.728  -9.820 -19.657  0.00  0.00    -0.154 OA
ATOM     35  C   UNL     1      30.259 -10.627 -19.345  0.00  0.00    +0.200 C 
ENDBRANCH  30  32
ENDBRANCH   3  30
TORSDOF 7
ENDMDL
MODEL 7
REMARK VINA RESULT:      -7.4     10.916     14.441
REMARK  Name = 23649245
REMARK  7 active torsions:
REMARK  status: ('A' for Active; 'I' for Inactive)
REMARK    1  A    between atoms: C_2  and  C_19
REMARK    2  A    between atoms: C_3  and  N_30
REMARK    3  A    between atoms: C_5  and  C_11
REMARK    4  A    between atoms: N_18  and  C_21
REMARK    5  A    between atoms: C_21  and  C_22
REMARK    6  A    between atoms: C_21  and  C_28
REMARK    7  A    between atoms: N_30  and  S_32
REMARK                            x       y       z     vdW  Elec       q    Type
REMARK                         _______ _______ _______ _____ _____    ______ ____
ROOT
ATOM      1  N   UNL     1      36.072 -23.281 -17.149  0.00  0.00    -0.404 NA
ATOM      2  C   UNL     1      33.577 -23.419 -15.926  0.00  0.00    +0.059 C 
ATOM      3  C   UNL     1      34.678 -23.999 -15.312  0.00  0.00    +0.095 C 
ATOM      4  C   UNL     1      33.718 -22.765 -17.158  0.00  0.00    +0.102 C 
ATOM      5  C   UNL     1      35.893 -23.903 -15.962  0.00  0.00    +0.145 C 
ATOM      6  C   UNL     1      35.001 -22.719 -17.742  0.00  0.00    +0.117 C 
ATOM      7  C   UNL     1      32.622 -22.168 -17.804  0.00  0.00    -0.015 C 
ATOM      8  C   UNL     1      35.141 -22.070 -18.965  0.00  0.00    +0.028 C 
ATOM      9  C   UNL     1      32.791 -21.526 -19.027  0.00  0.00    -0.004 C 
ATOM     10  C   UNL     1      34.052 -21.476 -19.608  0.00  0.00    +0.002 C 
ENDROOT
BRANCH   5  11
ATOM     11  C   UNL     1      37.106 -24.470 -15.413  0.00  0.00    +0.031 C 
ATOM     12  C   UNL     1      37.143 -25.815 -15.047  0.00  0.00    +0.003 C 
ATOM     13  C   UNL     1      38.239 -23.672 -15.252  0.00  0.00    +0.003 C 
ATOM     14  C   UNL     1      38.313 -26.363 -14.519  0.00  0.00    +0.000 C 
ATOM     15  C   UNL     1      39.408 -24.220 -14.724  0.00  0.00    +0.000 C 
ATOM     16  C   UNL     1      39.444 -25.566 -14.358  0.00  0.00    +0.000 C 
ENDBRANCH   5  11
BRANCH   2  19
ATOM     17  O   UNL     1      31.947 -22.649 -14.425  0.00  0.00    -0.270 OA
ATOM     18  N   UNL     1      31.456 -24.572 -15.624  0.00  0.00    -0.299 N 
ATOM     19  C   UNL     1      32.278 -23.506 -15.257  0.00  0.00    +0.244 C 
ATOM     20  H   UNL     1      31.790 -25.212 -16.293  0.00  0.00    +0.150 HD
BRANCH  18  21
ATOM     21  C   UNL     1      30.136 -24.781 -15.072  0.00  0.00    +0.094 C 
BRANCH  21  22
ATOM     22  C   UNL     1      29.127 -23.866 -15.735  0.00  0.00    -0.005 C 
ATOM     23  C   UNL     1      28.711 -24.145 -17.025  0.00  0.00    -0.003 C 
ATOM     24  C   UNL     1      28.646 -22.774 -15.036  0.00  0.00    -0.003 C 
ATOM     25  C   UNL     1      27.782 -23.304 -17.635  0.00  0.00    -0.000 C 
ATOM     26  C   UNL     1      27.716 -21.933 -15.648  0.00  0.00    -0.000 C 
ATOM     27  C   UNL     1      27.284 -22.197 -16.947  0.00  0.00    -0.000 C 
ENDBRANCH  21  22
BRANCH  21  28
ATOM     28  C   UNL     1      30.137 -24.615 -13.542  0.00  0.00    +0.024 C 
ATOM     29  C   UNL     1      31.233 -25.429 -12.866  0.00  0.00    +0.002 C 
ENDBRANCH  21  28
ENDBRANCH  18  21
ENDBRANCH   2  19
BRANCH   3  30
ATOM     30  N   UNL     1      34.559 -24.674 -14.055  0.00  0.00    -0.216 N 
ATOM     31  H   UNL     1      34.213 -25.594 -14.005  0.00  0.00    +0.173 HD
BRANCH  30  32
ATOM     32  S   UNL     1      35.034 -23.828 -12.635  0.00  0.00    +0.056 S 
ATOM     33  O   UNL     1      35.984 -22.798 -13.013  0.00  0.00    -0.154 OA
ATOM     34  O   UNL     1      33.886 -23.504 -11.813  0.00  0.00    -0.154 OA
ATOM     35  C   UNL     1      35.957 -25.102 -11.805  0.00  0.00    +0.200 C 
ENDBRANCH  30  32
ENDBRANCH   3  30
TORSDOF 7
ENDMDL
MODEL 8
REMARK VINA RESULT:      -7.2      3.037      8.904
REMARK  Name = 23649245
REMARK  7 active torsions:
REMARK  status: ('A' for Active; 'I' for Inactive)
REMARK    1  A    between atoms: C_2  and  C_19
REMARK    2  A    between atoms: C_3  and  N_30
REMARK    3  A    between atoms: C_5  and  C_11
REMARK    4  A    between atoms: N_18  and  C_21
REMARK    5  A    between atoms: C_21  and  C_22
REMARK    6  A    between atoms: C_21  and  C_28
REMARK    7  A    between atoms: N_30  and  S_32
REMARK                            x       y       z     vdW  Elec       q    Type
REMARK                         _______ _______ _______ _____ _____    ______ ____
ROOT
ATOM      1  N   UNL     1      32.242 -12.262 -22.337  0.00  0.00    -0.404 NA
ATOM      2  C   UNL     1      32.849  -9.585 -22.788  0.00  0.00    +0.059 C 
ATOM      3  C   UNL     1      33.067 -10.520 -23.791  0.00  0.00    +0.095 C 
ATOM      4  C   UNL     1      32.325  -9.986 -21.552  0.00  0.00    +0.102 C 
ATOM      5  C   UNL     1      32.749 -11.835 -23.516  0.00  0.00    +0.145 C 
ATOM      6  C   UNL     1      32.032 -11.353 -21.367  0.00  0.00    +0.117 C 
ATOM      7  C   UNL     1      32.093  -9.064 -20.517  0.00  0.00    -0.015 C 
ATOM      8  C   UNL     1      31.511 -11.751 -20.138  0.00  0.00    +0.028 C 
ATOM      9  C   UNL     1      31.573  -9.489 -19.298  0.00  0.00    -0.004 C 
ATOM     10  C   UNL     1      31.280 -10.835 -19.110  0.00  0.00    +0.002 C 
ENDROOT
BRANCH   5  11
ATOM     11  C   UNL     1      32.934 -12.891 -24.487  0.00  0.00    +0.031 C 
ATOM     12  C   UNL     1      33.182 -14.195 -24.061  0.00  0.00    +0.003 C 
ATOM     13  C   UNL     1      32.864 -12.605 -25.851  0.00  0.00    +0.003 C 
ATOM     14  C   UNL     1      33.359 -15.214 -24.997  0.00  0.00    +0.000 C 
ATOM     15  C   UNL     1      33.043 -13.623 -26.787  0.00  0.00    +0.000 C 
ATOM     16  C   UNL     1      33.290 -14.928 -26.360  0.00  0.00    +0.000 C 
ENDBRANCH   5  11
BRANCH   2  19
ATOM     17  O   UNL     1      34.142  -7.651 -22.491  0.00  0.00    -0.270 OA
ATOM     18  N   UNL     1      32.368  -7.518 -23.978  0.00  0.00    -0.299 N 
ATOM     19  C   UNL     1      33.177  -8.184 -23.056  0.00  0.00    +0.244 C 
ATOM     20  H   UNL     1      31.619  -8.010 -24.385  0.00  0.00    +0.150 HD
BRANCH  18  21
ATOM     21  C   UNL     1      32.577  -6.141 -24.366  0.00  0.00    +0.094 C 
BRANCH  21  22
ATOM     22  C   UNL     1      31.701  -5.215 -23.547  0.00  0.00    -0.005 C 
ATOM     23  C   UNL     1      30.986  -5.731 -22.482  0.00  0.00    -0.003 C 
ATOM     24  C   UNL     1      31.637  -3.875 -23.885  0.00  0.00    -0.003 C 
ATOM     25  C   UNL     1      30.180  -4.879 -21.728  0.00  0.00    -0.000 C 
ATOM     26  C   UNL     1      30.831  -3.023 -23.130  0.00  0.00    -0.000 C 
ATOM     27  C   UNL     1      30.102  -3.524 -22.053  0.00  0.00    -0.000 C 
ENDBRANCH  21  22
BRANCH  21  28
ATOM     28  C   UNL     1      32.357  -5.946 -25.877  0.00  0.00    +0.024 C 
ATOM     29  C   UNL     1      33.504  -5.195 -26.542  0.00  0.00    +0.002 C 
ENDBRANCH  21  28
ENDBRANCH  18  21
ENDBRANCH   2  19
BRANCH   3  30
ATOM     30  N   UNL     1      33.602 -10.135 -25.062  0.00  0.00    -0.216 N 
ATOM     31  H   UNL     1      33.047 -10.158 -25.874  0.00  0.00    +0.173 HD
BRANCH  30  32
ATOM     32  S   UNL     1      35.247  -9.633 -25.128  0.00  0.00    +0.056 S 
ATOM     33  O   UNL     1      35.279  -8.216 -25.442  0.00  0.00    -0.154 OA
ATOM     34  O   UNL     1      35.996 -10.155 -24.003  0.00  0.00    -0.154 OA
ATOM     35  C   UNL     1      35.780 -10.497 -26.588  0.00  0.00    +0.200 C 
ENDBRANCH  30  32
ENDBRANCH   3  30
TORSDOF 7
ENDMDL
MODEL 9
REMARK VINA RESULT:      -7.2      2.032      8.243
REMARK  Name = 23649245
REMARK  7 active torsions:
REMARK  status: ('A' for Active; 'I' for Inactive)
REMARK    1  A    between atoms: C_2  and  C_19
REMARK    2  A    between atoms: C_3  and  N_30
REMARK    3  A    between atoms: C_5  and  C_11
REMARK    4  A    between atoms: N_18  and  C_21
REMARK    5  A    between atoms: C_21  and  C_22
REMARK    6  A    between atoms: C_21  and  C_28
REMARK    7  A    between atoms: N_30  and  S_32
REMARK                            x       y       z     vdW  Elec       q    Type
REMARK                         _______ _______ _______ _____ _____    ______ ____
ROOT
ATOM      1  N   UNL     1      32.433 -13.241 -20.372  0.00  0.00    -0.404 NA
ATOM      2  C   UNL     1      33.023 -11.499 -22.459  0.00  0.00    +0.059 C 
ATOM      3  C   UNL     1      33.410 -12.829 -22.541  0.00  0.00    +0.095 C 
ATOM      4  C   UNL     1      32.336 -11.032 -21.330  0.00  0.00    +0.102 C 
ATOM      5  C   UNL     1      33.093 -13.651 -21.479  0.00  0.00    +0.145 C 
ATOM      6  C   UNL     1      32.059 -11.950 -20.296  0.00  0.00    +0.117 C 
ATOM      7  C   UNL     1      31.931  -9.691 -21.217  0.00  0.00    -0.015 C 
ATOM      8  C   UNL     1      31.377 -11.486 -19.174  0.00  0.00    +0.028 C 
ATOM      9  C   UNL     1      31.251  -9.254 -20.084  0.00  0.00    -0.004 C 
ATOM     10  C   UNL     1      30.973 -10.154 -19.062  0.00  0.00    +0.002 C 
ENDROOT
BRANCH   5  11
ATOM     11  C   UNL     1      33.448 -15.054 -21.458  0.00  0.00    +0.031 C 
ATOM     12  C   UNL     1      34.736 -15.453 -21.812  0.00  0.00    +0.003 C 
ATOM     13  C   UNL     1      32.501 -16.008 -21.084  0.00  0.00    +0.003 C 
ATOM     14  C   UNL     1      35.079 -16.805 -21.791  0.00  0.00    +0.000 C 
ATOM     15  C   UNL     1      32.843 -17.360 -21.064  0.00  0.00    +0.000 C 
ATOM     16  C   UNL     1      34.132 -17.758 -21.418  0.00  0.00    +0.000 C 
ENDBRANCH   5  11
BRANCH   2  19
ATOM     17  O   UNL     1      32.677 -10.647 -24.617  0.00  0.00    -0.270 OA
ATOM     18  N   UNL     1      34.408  -9.723 -23.381  0.00  0.00    -0.299 N 
ATOM     19  C   UNL     1      33.346 -10.607 -23.574  0.00  0.00    +0.244 C 
ATOM     20  H   UNL     1      34.891  -9.752 -22.524  0.00  0.00    +0.150 HD
BRANCH  18  21
ATOM     21  C   UNL     1      34.833  -8.766 -24.377  0.00  0.00    +0.094 C 
BRANCH  21  22
ATOM     22  C   UNL     1      33.948  -7.535 -24.348  0.00  0.00    -0.005 C 
ATOM     23  C   UNL     1      34.005  -6.641 -25.402  0.00  0.00    -0.003 C 
ATOM     24  C   UNL     1      33.107  -7.335 -23.269  0.00  0.00    -0.003 C 
ATOM     25  C   UNL     1      33.191  -5.509 -25.376  0.00  0.00    -0.000 C 
ATOM     26  C   UNL     1      32.292  -6.203 -23.244  0.00  0.00    -0.000 C 
ATOM     27  C   UNL     1      32.335  -5.290 -24.296  0.00  0.00    -0.000 C 
ENDBRANCH  21  22
BRANCH  21  28
ATOM     28  C   UNL     1      34.882  -9.400 -25.778  0.00  0.00    +0.024 C 
ATOM     29  C   UNL     1      36.057 -10.354 -25.947  0.00  0.00    +0.002 C 
ENDBRANCH  21  28
ENDBRANCH  18  21
ENDBRANCH   2  19
BRANCH   3  30
ATOM     30  N   UNL     1      34.113 -13.329 -23.684  0.00  0.00    -0.216 N 
ATOM     31  H   UNL     1      35.087 -13.208 -23.772  0.00  0.00    +0.173 HD
BRANCH  30  32
ATOM     32  S   UNL     1      33.208 -14.143 -24.899  0.00  0.00    +0.056 S 
ATOM     33  O   UNL     1      33.787 -15.460 -25.093  0.00  0.00    -0.154 OA
ATOM     34  O   UNL     1      31.785 -13.990 -24.678  0.00  0.00    -0.154 OA
ATOM     35  C   UNL     1      33.648 -13.172 -26.323  0.00  0.00    +0.200 C 
ENDBRANCH  30  32
ENDBRANCH   3  30
TORSDOF 7
ENDMDL
