MODEL 1
REMARK VINA RESULT:     -11.8      0.000      0.000
REMARK  Name = 11697697
REMARK  7 active torsions:
REMARK  status: ('A' for Active; 'I' for Inactive)
REMARK    1  A    between atoms: N_2  and  C_14
REMARK    2  A    between atoms: C_8  and  C_32
REMARK    3  A    between atoms: C_13  and  O_19
REMARK    4  A    between atoms: O_19  and  C_20
REMARK    5  A    between atoms: C_20  and  C_21
REMARK    6  A    between atoms: C_21  and  C_22
REMARK    7  A    between atoms: C_22  and  N_23
REMARK                            x       y       z     vdW  Elec       q    Type
REMARK                         _______ _______ _______ _____ _____    ______ ____
ROOT
ATOM      1  O   UNL     1      34.008 -16.589 -20.626  0.00  0.00    -0.273 OA
ATOM      2  N   UNL     1      34.574 -18.069 -22.369  0.00  0.00    -0.215 N 
ATOM      3  N   UNL     1      34.444 -17.299 -24.617  0.00  0.00    -0.394 NA
ATOM      4  C   UNL     1      33.821 -15.785 -22.801  0.00  0.00    +0.156 C 
ATOM      5  C   UNL     1      34.120 -16.850 -21.821  0.00  0.00    +0.245 C 
ATOM      6  C   UNL     1      34.680 -18.237 -23.752  0.00  0.00    +0.170 C 
ATOM      7  C   UNL     1      34.019 -16.048 -24.156  0.00  0.00    +0.123 C 
ATOM      8  C   UNL     1      33.371 -14.529 -22.375  0.00  0.00    +0.064 C 
ATOM      9  C   UNL     1      33.761 -15.035 -25.088  0.00  0.00    +0.028 C 
ATOM     10  C   UNL     1      33.118 -13.530 -23.313  0.00  0.00    +0.001 C 
ATOM     11  C   UNL     1      35.034 -19.592 -24.330  0.00  0.00    +0.084 C 
ATOM     12  C   UNL     1      33.314 -13.781 -24.669  0.00  0.00    +0.002 C 
ENDROOT
BRANCH   2  14
ATOM     13  C   UNL     1      35.706 -21.091 -19.658  0.00  0.00    +0.139 C 
ATOM     14  C   UNL     1      34.960 -19.098 -21.444  0.00  0.00    +0.060 C 
ATOM     15  C   UNL     1      34.371 -20.960 -20.040  0.00  0.00    +0.038 C 
ATOM     16  C   UNL     1      36.667 -20.219 -20.172  0.00  0.00    +0.038 C 
ATOM     17  C   UNL     1      33.996 -19.961 -20.936  0.00  0.00    +0.018 C 
ATOM     18  C   UNL     1      36.292 -19.220 -21.069  0.00  0.00    +0.018 C 
BRANCH  13  19
ATOM     19  O   UNL     1      36.072 -22.066 -18.781  0.00  0.00    -0.476 OA
BRANCH  19  20
ATOM     20  C   UNL     1      36.787 -21.658 -17.617  0.00  0.00    +0.203 C 
BRANCH  20  21
ATOM     21  C   UNL     1      36.284 -22.460 -16.424  0.00  0.00    +0.025 C 
BRANCH  21  22
ATOM     22  C   UNL     1      37.428 -22.868 -15.501  0.00  0.00    -0.074 C 
BRANCH  22  23
ATOM     23  N   UNL     1      37.585 -24.315 -15.501  0.00  0.00    +0.387 N 
ATOM     24  C   UNL     1      38.585 -24.768 -14.536  0.00  0.00    -0.077 C 
ATOM     25  C   UNL     1      36.353 -25.009 -15.124  0.00  0.00    -0.077 C 
ATOM     26  C   UNL     1      38.304 -26.259 -14.426  0.00  0.00    -0.025 C 
ATOM     27  C   UNL     1      36.837 -26.419 -14.816  0.00  0.00    -0.025 C 
ATOM     28  H   UNL     1      37.859 -24.535 -16.458  0.00  0.00    -0.080 HD
ENDBRANCH  22  23
ENDBRANCH  21  22
ENDBRANCH  20  21
ENDBRANCH  19  20
ENDBRANCH  13  19
ENDBRANCH   2  14
BRANCH   8  32
ATOM     29  F   UNL     1      32.594 -12.933 -20.772  0.00  0.00    -0.166 F 
ATOM     30  F   UNL     1      32.289 -15.028 -20.301  0.00  0.00    -0.166 F 
ATOM     31  F   UNL     1      34.288 -14.174 -20.209  0.00  0.00    -0.166 F 
ATOM     32  C   UNL     1      33.138 -14.173 -20.942  0.00  0.00    +0.416 C 
ENDBRANCH   8  32
TORSDOF 7
ENDMDL
MODEL 2
REMARK VINA RESULT:     -11.8      0.045      1.101
REMARK  Name = 11697697
REMARK  7 active torsions:
REMARK  status: ('A' for Active; 'I' for Inactive)
REMARK    1  A    between atoms: N_2  and  C_14
REMARK    2  A    between atoms: C_8  and  C_32
REMARK    3  A    between atoms: C_13  and  O_19
REMARK    4  A    between atoms: O_19  and  C_20
REMARK    5  A    between atoms: C_20  and  C_21
REMARK    6  A    between atoms: C_21  and  C_22
REMARK    7  A    between atoms: C_22  and  N_23
REMARK                            x       y       z     vdW  Elec       q    Type
REMARK                         _______ _______ _______ _____ _____    ______ ____
ROOT
ATOM      1  O   UNL     1      33.984 -16.601 -20.625  0.00  0.00    -0.273 OA
ATOM      2  N   UNL     1      34.564 -18.081 -22.364  0.00  0.00    -0.215 N 
ATOM      3  N   UNL     1      34.431 -17.318 -24.614  0.00  0.00    -0.394 NA
ATOM      4  C   UNL     1      33.794 -15.804 -22.803  0.00  0.00    +0.156 C 
ATOM      5  C   UNL     1      34.100 -16.864 -21.820  0.00  0.00    +0.245 C 
ATOM      6  C   UNL     1      34.673 -18.252 -23.747  0.00  0.00    +0.170 C 
ATOM      7  C   UNL     1      33.996 -16.069 -24.157  0.00  0.00    +0.123 C 
ATOM      8  C   UNL     1      33.335 -14.551 -22.381  0.00  0.00    +0.064 C 
ATOM      9  C   UNL     1      33.732 -15.060 -25.092  0.00  0.00    +0.028 C 
ATOM     10  C   UNL     1      33.075 -13.555 -23.321  0.00  0.00    +0.001 C 
ATOM     11  C   UNL     1      35.038 -19.605 -24.320  0.00  0.00    +0.084 C 
ATOM     12  C   UNL     1      33.275 -13.809 -24.676  0.00  0.00    +0.002 C 
ENDROOT
BRANCH   2  14
ATOM     13  C   UNL     1      35.713 -21.082 -19.637  0.00  0.00    +0.139 C 
ATOM     14  C   UNL     1      34.956 -19.105 -21.435  0.00  0.00    +0.060 C 
ATOM     15  C   UNL     1      36.669 -20.211 -20.159  0.00  0.00    +0.038 C 
ATOM     16  C   UNL     1      34.376 -20.961 -20.018  0.00  0.00    +0.038 C 
ATOM     17  C   UNL     1      36.289 -19.218 -21.062  0.00  0.00    +0.018 C 
ATOM     18  C   UNL     1      33.997 -19.968 -20.921  0.00  0.00    +0.018 C 
BRANCH  13  19
ATOM     19  O   UNL     1      36.084 -22.051 -18.756  0.00  0.00    -0.476 OA
BRANCH  19  20
ATOM     20  C   UNL     1      36.804 -21.635 -17.597  0.00  0.00    +0.203 C 
BRANCH  20  21
ATOM     21  C   UNL     1      36.306 -22.430 -16.397  0.00  0.00    +0.025 C 
BRANCH  21  22
ATOM     22  C   UNL     1      37.459 -22.876 -15.504  0.00  0.00    -0.074 C 
BRANCH  22  23
ATOM     23  N   UNL     1      37.566 -24.328 -15.505  0.00  0.00    +0.387 N 
ATOM     24  C   UNL     1      38.627 -24.810 -14.622  0.00  0.00    -0.077 C 
ATOM     25  C   UNL     1      36.347 -24.977 -15.023  0.00  0.00    -0.077 C 
ATOM     26  C   UNL     1      38.305 -26.290 -14.477  0.00  0.00    -0.025 C 
ATOM     27  C   UNL     1      36.807 -26.401 -14.744  0.00  0.00    -0.025 C 
ATOM     28  H   UNL     1      37.754 -24.562 -16.479  0.00  0.00    -0.080 HD
ENDBRANCH  22  23
ENDBRANCH  21  22
ENDBRANCH  20  21
ENDBRANCH  19  20
ENDBRANCH  13  19
ENDBRANCH   2  14
BRANCH   8  32
ATOM     29  F   UNL     1      32.248 -15.048 -20.308  0.00  0.00    -0.166 F 
ATOM     30  F   UNL     1      34.234 -14.182 -20.195  0.00  0.00    -0.166 F 
ATOM     31  F   UNL     1      32.547 -12.952 -20.805  0.00  0.00    -0.166 F 
ATOM     32  C   UNL     1      33.097 -14.192 -20.950  0.00  0.00    +0.416 C 
ENDBRANCH   8  32
TORSDOF 7
ENDMDL
MODEL 3
REMARK VINA RESULT:     -11.7      4.006      7.055
REMARK  Name = 11697697
REMARK  7 active torsions:
REMARK  status: ('A' for Active; 'I' for Inactive)
REMARK    1  A    between atoms: N_2  and  C_14
REMARK    2  A    between atoms: C_8  and  C_32
REMARK    3  A    between atoms: C_13  and  O_19
REMARK    4  A    between atoms: O_19  and  C_20
REMARK    5  A    between atoms: C_20  and  C_21
REMARK    6  A    between atoms: C_21  and  C_22
REMARK    7  A    between atoms: C_22  and  N_23
REMARK                            x       y       z     vdW  Elec       q    Type
REMARK                         _______ _______ _______ _____ _____    ______ ____
ROOT
ATOM      1  O   UNL     1      32.004 -12.514 -22.043  0.00  0.00    -0.273 OA
ATOM      2  N   UNL     1      33.380 -11.909 -23.856  0.00  0.00    -0.215 N 
ATOM      3  N   UNL     1      34.004  -9.626 -24.112  0.00  0.00    -0.394 NA
ATOM      4  C   UNL     1      32.544 -10.261 -22.258  0.00  0.00    +0.156 C 
ATOM      5  C   UNL     1      32.592 -11.667 -22.710  0.00  0.00    +0.245 C 
ATOM      6  C   UNL     1      34.022 -10.859 -24.519  0.00  0.00    +0.170 C 
ATOM      7  C   UNL     1      33.271  -9.304 -22.965  0.00  0.00    +0.123 C 
ATOM      8  C   UNL     1      31.801  -9.901 -21.126  0.00  0.00    +0.064 C 
ATOM      9  C   UNL     1      33.250  -7.975 -22.526  0.00  0.00    +0.028 C 
ATOM     10  C   UNL     1      31.787  -8.574 -20.701  0.00  0.00    +0.001 C 
ATOM     11  C   UNL     1      34.747 -11.112 -25.824  0.00  0.00    +0.084 C 
ATOM     12  C   UNL     1      32.512  -7.611 -21.399  0.00  0.00    +0.002 C 
ENDROOT
BRANCH   2  14
ATOM     13  C   UNL     1      33.798 -15.920 -25.080  0.00  0.00    +0.139 C 
ATOM     14  C   UNL     1      33.524 -13.276 -24.274  0.00  0.00    +0.060 C 
ATOM     15  C   UNL     1      34.373 -15.492 -23.883  0.00  0.00    +0.038 C 
ATOM     16  C   UNL     1      33.086 -15.019 -25.874  0.00  0.00    +0.038 C 
ATOM     17  C   UNL     1      34.235 -14.165 -23.479  0.00  0.00    +0.018 C 
ATOM     18  C   UNL     1      32.949 -13.692 -25.468  0.00  0.00    +0.018 C 
BRANCH  13  19
ATOM     19  O   UNL     1      33.934 -17.215 -25.476  0.00  0.00    -0.476 OA
BRANCH  19  20
ATOM     20  C   UNL     1      34.992 -17.968 -24.885  0.00  0.00    +0.203 C 
BRANCH  20  21
ATOM     21  C   UNL     1      34.392 -18.998 -23.937  0.00  0.00    +0.025 C 
BRANCH  21  22
ATOM     22  C   UNL     1      34.872 -18.786 -22.505  0.00  0.00    -0.074 C 
BRANCH  22  23
ATOM     23  N   UNL     1      34.544 -19.944 -21.685  0.00  0.00    +0.387 N 
ATOM     24  C   UNL     1      35.550 -20.204 -20.658  0.00  0.00    -0.077 C 
ATOM     25  C   UNL     1      33.289 -19.771 -20.953  0.00  0.00    -0.077 C 
ATOM     26  C   UNL     1      34.836 -21.159 -19.713  0.00  0.00    -0.025 C 
ATOM     27  C   UNL     1      33.349 -20.877 -19.909  0.00  0.00    -0.025 C 
ATOM     28  H   UNL     1      34.483 -20.711 -22.354  0.00  0.00    -0.080 HD
ENDBRANCH  22  23
ENDBRANCH  21  22
ENDBRANCH  20  21
ENDBRANCH  19  20
ENDBRANCH  13  19
ENDBRANCH   2  14
BRANCH   8  32
ATOM     29  F   UNL     1      30.000 -11.472 -21.025  0.00  0.00    -0.166 F 
ATOM     30  F   UNL     1      31.740 -11.891 -19.800  0.00  0.00    -0.166 F 
ATOM     31  F   UNL     1      30.388 -10.278 -19.250  0.00  0.00    -0.166 F 
ATOM     32  C   UNL     1      30.999 -10.868 -20.317  0.00  0.00    +0.416 C 
ENDBRANCH   8  32
TORSDOF 7
ENDMDL
MODEL 4
REMARK VINA RESULT:     -11.3      1.323      1.593
REMARK  Name = 11697697
REMARK  7 active torsions:
REMARK  status: ('A' for Active; 'I' for Inactive)
REMARK    1  A    between atoms: N_2  and  C_14
REMARK    2  A    between atoms: C_8  and  C_32
REMARK    3  A    between atoms: C_13  and  O_19
REMARK    4  A    between atoms: O_19  and  C_20
REMARK    5  A    between atoms: C_20  and  C_21
REMARK    6  A    between atoms: C_21  and  C_22
REMARK    7  A    between atoms: C_22  and  N_23
REMARK                            x       y       z     vdW  Elec       q    Type
REMARK                         _______ _______ _______ _____ _____    ______ ____
ROOT
ATOM      1  O   UNL     1      33.957 -16.605 -20.670  0.00  0.00    -0.273 OA
ATOM      2  N   UNL     1      34.524 -18.101 -22.399  0.00  0.00    -0.215 N 
ATOM      3  N   UNL     1      34.392 -17.352 -24.654  0.00  0.00    -0.394 NA
ATOM      4  C   UNL     1      33.768 -15.822 -22.853  0.00  0.00    +0.156 C 
ATOM      5  C   UNL     1      34.069 -16.877 -21.863  0.00  0.00    +0.245 C 
ATOM      6  C   UNL     1      34.630 -18.282 -23.781  0.00  0.00    +0.170 C 
ATOM      7  C   UNL     1      33.965 -16.097 -24.206  0.00  0.00    +0.123 C 
ATOM      8  C   UNL     1      33.316 -14.563 -22.438  0.00  0.00    +0.064 C 
ATOM      9  C   UNL     1      33.707 -15.094 -25.147  0.00  0.00    +0.028 C 
ATOM     10  C   UNL     1      33.062 -13.573 -23.386  0.00  0.00    +0.001 C 
ATOM     11  C   UNL     1      34.985 -19.642 -24.346  0.00  0.00    +0.084 C 
ATOM     12  C   UNL     1      33.257 -13.837 -24.739  0.00  0.00    +0.002 C 
ENDROOT
BRANCH   2  14
ATOM     13  C   UNL     1      35.660 -21.095 -19.660  0.00  0.00    +0.139 C 
ATOM     14  C   UNL     1      34.911 -19.121 -21.464  0.00  0.00    +0.060 C 
ATOM     15  C   UNL     1      34.326 -20.973 -20.046  0.00  0.00    +0.038 C 
ATOM     16  C   UNL     1      36.620 -20.224 -20.179  0.00  0.00    +0.038 C 
ATOM     17  C   UNL     1      33.949 -19.982 -20.952  0.00  0.00    +0.018 C 
ATOM     18  C   UNL     1      36.242 -19.234 -21.085  0.00  0.00    +0.018 C 
BRANCH  13  19
ATOM     19  O   UNL     1      36.028 -22.062 -18.774  0.00  0.00    -0.476 OA
BRANCH  19  20
ATOM     20  C   UNL     1      36.845 -21.660 -17.676  0.00  0.00    +0.203 C 
BRANCH  20  21
ATOM     21  C   UNL     1      36.393 -22.406 -16.428  0.00  0.00    +0.025 C 
BRANCH  21  22
ATOM     22  C   UNL     1      34.976 -22.948 -16.582  0.00  0.00    -0.074 C 
BRANCH  22  23
ATOM     23  N   UNL     1      34.628 -23.783 -15.442  0.00  0.00    +0.387 N 
ATOM     24  C   UNL     1      35.420 -23.468 -14.255  0.00  0.00    -0.077 C 
ATOM     25  C   UNL     1      33.236 -23.607 -15.027  0.00  0.00    -0.077 C 
ATOM     26  C   UNL     1      34.646 -24.148 -13.136  0.00  0.00    -0.025 C 
ATOM     27  C   UNL     1      33.210 -24.243 -13.645  0.00  0.00    -0.025 C 
ATOM     28  H   UNL     1      34.803 -24.733 -15.769  0.00  0.00    -0.080 HD
ENDBRANCH  22  23
ENDBRANCH  21  22
ENDBRANCH  20  21
ENDBRANCH  19  20
ENDBRANCH  13  19
ENDBRANCH   2  14
BRANCH   8  32
ATOM     29  F   UNL     1      32.546 -12.949 -20.851  0.00  0.00    -0.166 F 
ATOM     30  F   UNL     1      32.229 -15.038 -20.362  0.00  0.00    -0.166 F 
ATOM     31  F   UNL     1      34.232 -14.195 -20.275  0.00  0.00    -0.166 F 
ATOM     32  C   UNL     1      33.083 -14.193 -21.010  0.00  0.00    +0.416 C 
ENDBRANCH   8  32
TORSDOF 7
ENDMDL
MODEL 5
REMARK VINA RESULT:     -10.9      5.615     11.284
REMARK  Name = 11697697
REMARK  7 active torsions:
REMARK  status: ('A' for Active; 'I' for Inactive)
REMARK    1  A    between atoms: N_2  and  C_14
REMARK    2  A    between atoms: C_8  and  C_32
REMARK    3  A    between atoms: C_13  and  O_19
REMARK    4  A    between atoms: O_19  and  C_20
REMARK    5  A    between atoms: C_20  and  C_21
REMARK    6  A    between atoms: C_21  and  C_22
REMARK    7  A    between atoms: C_22  and  N_23
REMARK                            x       y       z     vdW  Elec       q    Type
REMARK                         _______ _______ _______ _____ _____    ______ ____
ROOT
ATOM      1  O   UNL     1      33.879 -15.289 -21.815  0.00  0.00    -0.273 OA
ATOM      2  N   UNL     1      33.476 -14.496 -23.996  0.00  0.00    -0.215 N 
ATOM      3  N   UNL     1      33.793 -15.975 -25.833  0.00  0.00    -0.394 NA
ATOM      4  C   UNL     1      34.247 -16.774 -23.568  0.00  0.00    +0.156 C 
ATOM      5  C   UNL     1      33.872 -15.448 -23.033  0.00  0.00    +0.245 C 
ATOM      6  C   UNL     1      33.490 -14.805 -25.358  0.00  0.00    +0.170 C 
ATOM      7  C   UNL     1      34.168 -16.988 -24.944  0.00  0.00    +0.123 C 
ATOM      8  C   UNL     1      34.649 -17.803 -22.707  0.00  0.00    +0.064 C 
ATOM      9  C   UNL     1      34.497 -18.249 -25.454  0.00  0.00    +0.028 C 
ATOM     10  C   UNL     1      34.975 -19.054 -23.228  0.00  0.00    +0.001 C 
ATOM     11  C   UNL     1      33.197 -13.733 -26.386  0.00  0.00    +0.084 C 
ATOM     12  C   UNL     1      34.898 -19.278 -24.601  0.00  0.00    +0.002 C 
ENDROOT
BRANCH   2  14
ATOM     13  C   UNL     1      32.135 -10.765 -22.565  0.00  0.00    +0.139 C 
ATOM     14  C   UNL     1      33.019 -13.224 -23.507  0.00  0.00    +0.060 C 
ATOM     15  C   UNL     1      33.138 -10.821 -23.532  0.00  0.00    +0.038 C 
ATOM     16  C   UNL     1      31.575 -11.944 -22.070  0.00  0.00    +0.038 C 
ATOM     17  C   UNL     1      33.582 -12.055 -24.005  0.00  0.00    +0.018 C 
ATOM     18  C   UNL     1      32.020 -13.178 -22.544  0.00  0.00    +0.018 C 
BRANCH  13  19
ATOM     19  O   UNL     1      31.702  -9.560 -22.103  0.00  0.00    -0.476 OA
BRANCH  19  20
ATOM     20  C   UNL     1      32.016  -9.232 -20.750  0.00  0.00    +0.203 C 
BRANCH  20  21
ATOM     21  C   UNL     1      32.761  -7.904 -20.726  0.00  0.00    +0.025 C 
BRANCH  21  22
ATOM     22  C   UNL     1      32.150  -6.902 -21.700  0.00  0.00    -0.074 C 
BRANCH  22  23
ATOM     23  N   UNL     1      32.707  -7.086 -23.032  0.00  0.00    +0.387 N 
ATOM     24  C   UNL     1      32.490  -5.926 -23.893  0.00  0.00    -0.077 C 
ATOM     25  C   UNL     1      34.158  -7.275 -23.008  0.00  0.00    -0.077 C 
ATOM     26  C   UNL     1      33.458  -6.166 -25.042  0.00  0.00    -0.025 C 
ATOM     27  C   UNL     1      34.553  -7.056 -24.461  0.00  0.00    -0.025 C 
ATOM     28  H   UNL     1      32.228  -7.913 -23.388  0.00  0.00    -0.080 HD
ENDBRANCH  22  23
ENDBRANCH  21  22
ENDBRANCH  20  21
ENDBRANCH  19  20
ENDBRANCH  13  19
ENDBRANCH   2  14
BRANCH   8  32
ATOM     29  F   UNL     1      35.456 -16.545 -20.840  0.00  0.00    -0.166 F 
ATOM     30  F   UNL     1      33.547 -17.545 -20.600  0.00  0.00    -0.166 F 
ATOM     31  F   UNL     1      35.385 -18.708 -20.634  0.00  0.00    -0.166 F 
ATOM     32  C   UNL     1      34.756 -17.651 -21.224  0.00  0.00    +0.416 C 
ENDBRANCH   8  32
TORSDOF 7
ENDMDL
MODEL 6
REMARK VINA RESULT:     -10.5      5.818     12.003
REMARK  Name = 11697697
REMARK  7 active torsions:
REMARK  status: ('A' for Active; 'I' for Inactive)
REMARK    1  A    between atoms: N_2  and  C_14
REMARK    2  A    between atoms: C_8  and  C_32
REMARK    3  A    between atoms: C_13  and  O_19
REMARK    4  A    between atoms: O_19  and  C_20
REMARK    5  A    between atoms: C_20  and  C_21
REMARK    6  A    between atoms: C_21  and  C_22
REMARK    7  A    between atoms: C_22  and  N_23
REMARK                            x       y       z     vdW  Elec       q    Type
REMARK                         _______ _______ _______ _____ _____    ______ ____
ROOT
ATOM      1  O   UNL     1      33.973 -14.872 -21.995  0.00  0.00    -0.273 OA
ATOM      2  N   UNL     1      33.557 -14.183 -24.209  0.00  0.00    -0.215 N 
ATOM      3  N   UNL     1      33.745 -15.780 -25.963  0.00  0.00    -0.394 NA
ATOM      4  C   UNL     1      34.213 -16.473 -23.667  0.00  0.00    +0.156 C 
ATOM      5  C   UNL     1      33.926 -15.099 -23.201  0.00  0.00    +0.245 C 
ATOM      6  C   UNL     1      33.520 -14.570 -25.551  0.00  0.00    +0.170 C 
ATOM      7  C   UNL     1      34.088 -16.760 -25.025  0.00  0.00    +0.123 C 
ATOM      8  C   UNL     1      34.581 -17.471 -22.756  0.00  0.00    +0.064 C 
ATOM      9  C   UNL     1      34.334 -18.065 -25.468  0.00  0.00    +0.028 C 
ATOM     10  C   UNL     1      34.824 -18.767 -23.210  0.00  0.00    +0.001 C 
ATOM     11  C   UNL     1      33.259 -13.543 -26.633  0.00  0.00    +0.084 C 
ATOM     12  C   UNL     1      34.700 -19.064 -24.565  0.00  0.00    +0.002 C 
ENDROOT
BRANCH   2  14
ATOM     13  C   UNL     1      32.465 -10.307 -22.964  0.00  0.00    +0.139 C 
ATOM     14  C   UNL     1      33.184 -12.861 -23.786  0.00  0.00    +0.060 C 
ATOM     15  C   UNL     1      31.784 -11.418 -22.466  0.00  0.00    +0.038 C 
ATOM     16  C   UNL     1      33.508 -10.479 -23.876  0.00  0.00    +0.038 C 
ATOM     17  C   UNL     1      32.145 -12.700 -22.878  0.00  0.00    +0.018 C 
ATOM     18  C   UNL     1      33.868 -11.762 -24.287  0.00  0.00    +0.018 C 
BRANCH  13  19
ATOM     19  O   UNL     1      32.112  -9.055 -22.562  0.00  0.00    -0.476 OA
BRANCH  19  20
ATOM     20  C   UNL     1      32.659  -8.591 -21.328  0.00  0.00    +0.203 C 
BRANCH  20  21
ATOM     21  C   UNL     1      32.209  -7.154 -21.101  0.00  0.00    +0.025 C 
BRANCH  21  22
ATOM     22  C   UNL     1      31.218  -6.703 -22.169  0.00  0.00    -0.074 C 
BRANCH  22  23
ATOM     23  N   UNL     1      31.851  -5.763 -23.082  0.00  0.00    +0.387 N 
ATOM     24  C   UNL     1      31.806  -6.218 -24.471  0.00  0.00    -0.077 C 
ATOM     25  C   UNL     1      31.188  -4.459 -23.089  0.00  0.00    -0.077 C 
ATOM     26  C   UNL     1      32.145  -4.959 -25.254  0.00  0.00    -0.025 C 
ATOM     27  C   UNL     1      31.742  -3.802 -24.345  0.00  0.00    -0.025 C 
ATOM     28  H   UNL     1      32.809  -5.693 -22.740  0.00  0.00    -0.080 HD
ENDBRANCH  22  23
ENDBRANCH  21  22
ENDBRANCH  20  21
ENDBRANCH  19  20
ENDBRANCH  13  19
ENDBRANCH   2  14
BRANCH   8  32
ATOM     29  F   UNL     1      33.546 -17.130 -20.627  0.00  0.00    -0.166 F 
ATOM     30  F   UNL     1      35.408 -18.242 -20.648  0.00  0.00    -0.166 F 
ATOM     31  F   UNL     1      35.420 -16.097 -21.006  0.00  0.00    -0.166 F 
ATOM     32  C   UNL     1      34.735 -17.241 -21.287  0.00  0.00    +0.416 C 
ENDBRANCH   8  32
TORSDOF 7
ENDMDL
MODEL 7
REMARK VINA RESULT:      -9.8      4.407      7.205
REMARK  Name = 11697697
REMARK  7 active torsions:
REMARK  status: ('A' for Active; 'I' for Inactive)
REMARK    1  A    between atoms: N_2  and  C_14
REMARK    2  A    between atoms: C_8  and  C_32
REMARK    3  A    between atoms: C_13  and  O_19
REMARK    4  A    between atoms: O_19  and  C_20
REMARK    5  A    between atoms: C_20  and  C_21
REMARK    6  A    between atoms: C_21  and  C_22
REMARK    7  A    between atoms: C_22  and  N_23
REMARK                            x       y       z     vdW  Elec       q    Type
REMARK                         _______ _______ _______ _____ _____    ______ ____
ROOT
ATOM      1  O   UNL     1      34.433 -11.246 -24.493  0.00  0.00    -0.273 OA
ATOM      2  N   UNL     1      33.116 -12.537 -23.027  0.00  0.00    -0.215 N 
ATOM      3  N   UNL     1      31.700 -11.423 -21.473  0.00  0.00    -0.394 NA
ATOM      4  C   UNL     1      33.100 -10.095 -22.972  0.00  0.00    +0.156 C 
ATOM      5  C   UNL     1      33.636 -11.339 -23.564  0.00  0.00    +0.245 C 
ATOM      6  C   UNL     1      32.193 -12.512 -21.979  0.00  0.00    +0.170 C 
ATOM      7  C   UNL     1      32.138 -10.190 -21.969  0.00  0.00    +0.123 C 
ATOM      8  C   UNL     1      33.535  -8.844 -23.430  0.00  0.00    +0.064 C 
ATOM      9  C   UNL     1      31.609  -9.015 -21.423  0.00  0.00    +0.028 C 
ATOM     10  C   UNL     1      33.001  -7.681 -22.877  0.00  0.00    +0.001 C 
ATOM     11  C   UNL     1      31.751 -13.803 -21.321  0.00  0.00    +0.084 C 
ATOM     12  C   UNL     1      32.037  -7.766 -21.875  0.00  0.00    +0.002 C 
ENDROOT
BRANCH   2  14
ATOM     13  C   UNL     1      34.373 -16.143 -24.812  0.00  0.00    +0.139 C 
ATOM     14  C   UNL     1      33.546 -13.766 -23.636  0.00  0.00    +0.060 C 
ATOM     15  C   UNL     1      34.944 -15.723 -23.611  0.00  0.00    +0.038 C 
ATOM     16  C   UNL     1      33.385 -15.369 -25.423  0.00  0.00    +0.038 C 
ATOM     17  C   UNL     1      34.529 -14.530 -23.021  0.00  0.00    +0.018 C 
ATOM     18  C   UNL     1      32.971 -14.176 -24.832  0.00  0.00    +0.018 C 
BRANCH  13  19
ATOM     19  O   UNL     1      34.778 -17.307 -25.389  0.00  0.00    -0.476 OA
BRANCH  19  20
ATOM     20  C   UNL     1      34.126 -18.503 -24.966  0.00  0.00    +0.203 C 
BRANCH  20  21
ATOM     21  C   UNL     1      34.979 -19.178 -23.899  0.00  0.00    +0.025 C 
BRANCH  21  22
ATOM     22  C   UNL     1      34.528 -18.791 -22.495  0.00  0.00    -0.074 C 
BRANCH  22  23
ATOM     23  N   UNL     1      34.376 -19.978 -21.667  0.00  0.00    +0.387 N 
ATOM     24  C   UNL     1      35.467 -20.134 -20.707  0.00  0.00    -0.077 C 
ATOM     25  C   UNL     1      33.159 -19.940 -20.856  0.00  0.00    -0.077 C 
ATOM     26  C   UNL     1      34.918 -21.161 -19.729  0.00  0.00    -0.025 C 
ATOM     27  C   UNL     1      33.400 -21.037 -19.829  0.00  0.00    -0.025 C 
ATOM     28  H   UNL     1      34.354 -20.746 -22.338  0.00  0.00    -0.080 HD
ENDBRANCH  22  23
ENDBRANCH  21  22
ENDBRANCH  20  21
ENDBRANCH  19  20
ENDBRANCH  13  19
ENDBRANCH   2  14
BRANCH   8  32
ATOM     29  F   UNL     1      35.790  -9.150 -24.167  0.00  0.00    -0.166 F 
ATOM     30  F   UNL     1      34.236  -9.279 -25.675  0.00  0.00    -0.166 F 
ATOM     31  F   UNL     1      34.759  -7.350 -24.817  0.00  0.00    -0.166 F 
ATOM     32  C   UNL     1      34.561  -8.662 -24.501  0.00  0.00    +0.416 C 
ENDBRANCH   8  32
TORSDOF 7
ENDMDL
MODEL 8
REMARK VINA RESULT:      -9.4      4.401      7.602
REMARK  Name = 11697697
REMARK  7 active torsions:
REMARK  status: ('A' for Active; 'I' for Inactive)
REMARK    1  A    between atoms: N_2  and  C_14
REMARK    2  A    between atoms: C_8  and  C_32
REMARK    3  A    between atoms: C_13  and  O_19
REMARK    4  A    between atoms: O_19  and  C_20
REMARK    5  A    between atoms: C_20  and  C_21
REMARK    6  A    between atoms: C_21  and  C_22
REMARK    7  A    between atoms: C_22  and  N_23
REMARK                            x       y       z     vdW  Elec       q    Type
REMARK                         _______ _______ _______ _____ _____    ______ ____
ROOT
ATOM      1  O   UNL     1      34.295 -10.533 -24.169  0.00  0.00    -0.273 OA
ATOM      2  N   UNL     1      32.852 -11.649 -22.679  0.00  0.00    -0.215 N 
ATOM      3  N   UNL     1      31.464 -10.357 -21.241  0.00  0.00    -0.394 NA
ATOM      4  C   UNL     1      32.994  -9.211 -22.763  0.00  0.00    +0.156 C 
ATOM      5  C   UNL     1      33.465 -10.520 -23.264  0.00  0.00    +0.245 C 
ATOM      6  C   UNL     1      31.900 -11.503 -21.666  0.00  0.00    +0.170 C 
ATOM      7  C   UNL     1      31.997  -9.186 -21.790  0.00  0.00    +0.123 C 
ATOM      8  C   UNL     1      33.524  -8.020 -23.275  0.00  0.00    +0.064 C 
ATOM      9  C   UNL     1      31.529  -7.949 -21.330  0.00  0.00    +0.028 C 
ATOM     10  C   UNL     1      33.050  -6.795 -22.808  0.00  0.00    +0.001 C 
ATOM     11  C   UNL     1      31.355 -12.722 -20.952  0.00  0.00    +0.084 C 
ATOM     12  C   UNL     1      32.052  -6.759 -21.837  0.00  0.00    +0.002 C 
ENDROOT
BRANCH   2  14
ATOM     13  C   UNL     1      33.930 -15.422 -24.215  0.00  0.00    +0.139 C 
ATOM     14  C   UNL     1      33.219 -12.936 -23.202  0.00  0.00    +0.060 C 
ATOM     15  C   UNL     1      33.024 -14.620 -24.908  0.00  0.00    +0.038 C 
ATOM     16  C   UNL     1      34.480 -14.976 -23.012  0.00  0.00    +0.038 C 
ATOM     17  C   UNL     1      32.666 -13.372 -24.400  0.00  0.00    +0.018 C 
ATOM     18  C   UNL     1      34.122 -13.728 -22.505  0.00  0.00    +0.018 C 
BRANCH  13  19
ATOM     19  O   UNL     1      34.278 -16.641 -24.711  0.00  0.00    -0.476 OA
BRANCH  19  20
ATOM     20  C   UNL     1      35.319 -17.344 -24.035  0.00  0.00    +0.203 C 
BRANCH  20  21
ATOM     21  C   UNL     1      34.695 -18.274 -23.002  0.00  0.00    +0.025 C 
BRANCH  21  22
ATOM     22  C   UNL     1      35.675 -18.605 -21.883  0.00  0.00    -0.074 C 
BRANCH  22  23
ATOM     23  N   UNL     1      34.992 -19.298 -20.800  0.00  0.00    +0.387 N 
ATOM     24  C   UNL     1      33.626 -19.681 -21.156  0.00  0.00    -0.077 C 
ATOM     25  C   UNL     1      35.654 -20.551 -20.434  0.00  0.00    -0.077 C 
ATOM     26  C   UNL     1      33.264 -20.694 -20.082  0.00  0.00    -0.025 C 
ATOM     27  C   UNL     1      34.596 -21.264 -19.604  0.00  0.00    -0.025 C 
ATOM     28  H   UNL     1      35.006 -18.630 -20.031  0.00  0.00    -0.080 HD
ENDBRANCH  22  23
ENDBRANCH  21  22
ENDBRANCH  20  21
ENDBRANCH  19  20
ENDBRANCH  13  19
ENDBRANCH   2  14
BRANCH   8  32
ATOM     29  F   UNL     1      34.201  -8.478 -25.523  0.00  0.00    -0.166 F 
ATOM     30  F   UNL     1      35.023  -6.700 -24.590  0.00  0.00    -0.166 F 
ATOM     31  F   UNL     1      35.705  -8.669 -23.965  0.00  0.00    -0.166 F 
ATOM     32  C   UNL     1      34.591  -7.966 -24.319  0.00  0.00    +0.416 C 
ENDBRANCH   8  32
TORSDOF 7
ENDMDL
MODEL 9
REMARK VINA RESULT:      -9.3      4.627     11.178
REMARK  Name = 11697697
REMARK  7 active torsions:
REMARK  status: ('A' for Active; 'I' for Inactive)
REMARK    1  A    between atoms: N_2  and  C_14
REMARK    2  A    between atoms: C_8  and  C_32
REMARK    3  A    between atoms: C_13  and  O_19
REMARK    4  A    between atoms: O_19  and  C_20
REMARK    5  A    between atoms: C_20  and  C_21
REMARK    6  A    between atoms: C_21  and  C_22
REMARK    7  A    between atoms: C_22  and  N_23
REMARK                            x       y       z     vdW  Elec       q    Type
REMARK                         _______ _______ _______ _____ _____    ______ ____
ROOT
ATOM      1  O   UNL     1      37.476 -23.869 -16.058  0.00  0.00    -0.273 OA
ATOM      2  N   UNL     1      35.212 -23.308 -15.734  0.00  0.00    -0.215 N 
ATOM      3  N   UNL     1      34.205 -23.770 -13.627  0.00  0.00    -0.394 NA
ATOM      4  C   UNL     1      36.543 -24.383 -13.989  0.00  0.00    +0.156 C 
ATOM      5  C   UNL     1      36.461 -23.851 -15.366  0.00  0.00    +0.245 C 
ATOM      6  C   UNL     1      34.133 -23.328 -14.845  0.00  0.00    +0.170 C 
ATOM      7  C   UNL     1      35.418 -24.298 -13.171  0.00  0.00    +0.123 C 
ATOM      8  C   UNL     1      37.735 -24.939 -13.510  0.00  0.00    +0.064 C 
ATOM      9  C   UNL     1      35.496 -24.776 -11.858  0.00  0.00    +0.028 C 
ATOM     10  C   UNL     1      37.800 -25.413 -12.200  0.00  0.00    +0.001 C 
ATOM     11  C   UNL     1      32.763 -22.871 -15.301  0.00  0.00    +0.084 C 
ATOM     12  C   UNL     1      36.682 -25.331 -11.374  0.00  0.00    +0.002 C 
ENDROOT
BRANCH   2  14
ATOM     13  C   UNL     1      34.942 -21.532 -19.546  0.00  0.00    +0.139 C 
ATOM     14  C   UNL     1      35.119 -22.702 -17.033  0.00  0.00    +0.060 C 
ATOM     15  C   UNL     1      36.088 -21.351 -18.772  0.00  0.00    +0.038 C 
ATOM     16  C   UNL     1      33.884 -22.300 -19.058  0.00  0.00    +0.038 C 
ATOM     17  C   UNL     1      36.177 -21.939 -17.510  0.00  0.00    +0.018 C 
ATOM     18  C   UNL     1      33.974 -22.887 -17.796  0.00  0.00    +0.018 C 
BRANCH  13  19
ATOM     19  O   UNL     1      34.855 -20.958 -20.777  0.00  0.00    -0.476 OA
BRANCH  19  20
ATOM     20  C   UNL     1      33.828 -19.986 -20.969  0.00  0.00    +0.203 C 
BRANCH  20  21
ATOM     21  C   UNL     1      34.471 -18.614 -21.121  0.00  0.00    +0.025 C 
BRANCH  21  22
ATOM     22  C   UNL     1      35.789 -18.696 -21.885  0.00  0.00    -0.074 C 
BRANCH  22  23
ATOM     23  N   UNL     1      35.734 -17.864 -23.078  0.00  0.00    +0.387 N 
ATOM     24  C   UNL     1      34.913 -18.455 -24.134  0.00  0.00    -0.077 C 
ATOM     25  C   UNL     1      35.134 -16.555 -22.818  0.00  0.00    -0.077 C 
ATOM     26  C   UNL     1      34.680 -17.287 -25.080  0.00  0.00    -0.025 C 
ATOM     27  C   UNL     1      34.828 -16.037 -24.217  0.00  0.00    -0.025 C 
ATOM     28  H   UNL     1      36.708 -17.778 -23.365  0.00  0.00    -0.080 HD
ENDBRANCH  22  23
ENDBRANCH  21  22
ENDBRANCH  20  21
ENDBRANCH  19  20
ENDBRANCH  13  19
ENDBRANCH   2  14
BRANCH   8  32
ATOM     29  F   UNL     1      38.918 -26.046 -15.269  0.00  0.00    -0.166 F 
ATOM     30  F   UNL     1      39.297 -23.926 -15.011  0.00  0.00    -0.166 F 
ATOM     31  F   UNL     1      40.077 -25.352 -13.565  0.00  0.00    -0.166 F 
ATOM     32  C   UNL     1      38.982 -25.063 -14.325  0.00  0.00    +0.416 C 
ENDBRANCH   8  32
TORSDOF 7
ENDMDL
