MODEL 1
REMARK VINA RESULT:      -6.6      0.000      0.000
REMARK  Name = 182230
REMARK  6 active torsions:
REMARK  status: ('A' for Active; 'I' for Inactive)
REMARK    1  A    between atoms: CA_1  and  N_3
REMARK    2  A    between atoms: CA_1  and  C_8
REMARK    3  A    between atoms: CA_1  and  CB_11
REMARK    4  A    between atoms: C_8  and  O_9
REMARK    5  A    between atoms: CB_11  and  CG_12
REMARK    6  A    between atoms: CG_12  and  CD_15
REMARK                            x       y       z     vdW  Elec       q    Type
REMARK                         _______ _______ _______ _____ _____    ______ ____
ROOT
ATOM      1  CA  GLN A   1      38.845 -25.169 -14.435  0.00  0.00    +0.172 C 
ENDROOT
BRANCH   1   3
ATOM      2  O   UNK A   0      37.358 -22.695 -14.135  0.00  0.00    -0.275 OA
ATOM      3  N   GLN A   1      38.365 -24.304 -15.483  0.00  0.00    -0.297 N 
ATOM      4  C   UNK A   0      37.660 -23.135 -15.241  0.00  0.00    +0.223 C 
ATOM      5  C   UNK A   0      37.301 -22.409 -16.510  0.00  0.00    +0.095 C 
ATOM      6  H   GLN A   1      38.548 -24.554 -16.417  0.00  0.00    +0.150 HD
ENDBRANCH   1   3
BRANCH   1   8
ATOM      7  OXT GLN A   1      40.897 -26.361 -13.978  0.00  0.00    -0.248 OA
ATOM      8  C   GLN A   1      40.133 -25.885 -14.811  0.00  0.00    +0.332 C 
BRANCH   8   9
ATOM      9  O   GLN A   1      40.397 -25.915 -16.139  0.00  0.00    -0.479 OA
ATOM     10  H   GLN A   1      39.876 -26.446 -16.708  0.00  0.00    +0.295 HD
ENDBRANCH   8   9
ENDBRANCH   1   8
BRANCH   1  11
ATOM     11  CB  GLN A   1      37.768 -26.169 -13.998  0.00  0.00    +0.041 C 
BRANCH  11  12
ATOM     12  CG  GLN A   1      37.554 -26.228 -12.482  0.00  0.00    +0.087 C 
BRANCH  12  15
ATOM     13  OE1 GLN A   1      36.879 -24.422 -11.044  0.00  0.00    -0.275 OA
ATOM     14  NE2 GLN A   1      35.536 -24.946 -12.839  0.00  0.00    -0.329 N 
ATOM     15  CD  GLN A   1      36.638 -25.112 -12.031  0.00  0.00    +0.219 C 
ATOM     16 HE21 GLN A   1      34.876 -24.245 -12.633  0.00  0.00    +0.145 HD
ATOM     17 HE22 GLN A   1      35.408 -25.528 -13.623  0.00  0.00    +0.145 HD
ENDBRANCH  12  15
ENDBRANCH  11  12
ENDBRANCH   1  11
TORSDOF 6
ENDMDL
MODEL 2
REMARK VINA RESULT:      -6.2      8.001      9.758
REMARK  Name = 182230
REMARK  6 active torsions:
REMARK  status: ('A' for Active; 'I' for Inactive)
REMARK    1  A    between atoms: CA_1  and  N_3
REMARK    2  A    between atoms: CA_1  and  C_8
REMARK    3  A    between atoms: CA_1  and  CB_11
REMARK    4  A    between atoms: C_8  and  O_9
REMARK    5  A    between atoms: CB_11  and  CG_12
REMARK    6  A    between atoms: CG_12  and  CD_15
REMARK                            x       y       z     vdW  Elec       q    Type
REMARK                         _______ _______ _______ _____ _____    ______ ____
ROOT
ATOM      1  CA  GLN A   1      34.902 -18.572 -21.027  0.00  0.00    +0.172 C 
ENDROOT
BRANCH   1   3
ATOM      2  O   UNK A   0      34.925 -15.763 -20.295  0.00  0.00    -0.275 OA
ATOM      3  N   GLN A   1      34.646 -17.442 -21.884  0.00  0.00    -0.297 N 
ATOM      4  C   UNK A   0      34.680 -16.128 -21.442  0.00  0.00    +0.223 C 
ATOM      5  C   UNK A   0      34.401 -15.145 -22.547  0.00  0.00    +0.095 C 
ATOM      6  H   GLN A   1      34.438 -17.611 -22.831  0.00  0.00    +0.150 HD
ENDBRANCH   1   3
BRANCH   1   8
ATOM      7  OXT GLN A   1      37.168 -18.625 -21.868  0.00  0.00    -0.248 OA
ATOM      8  C   GLN A   1      36.372 -18.962 -20.997  0.00  0.00    +0.332 C 
BRANCH   8   9
ATOM      9  O   GLN A   1      36.727 -19.755 -19.958  0.00  0.00    -0.479 OA
ATOM     10  H   GLN A   1      36.862 -20.672 -20.094  0.00  0.00    +0.295 HD
ENDBRANCH   8   9
ENDBRANCH   1   8
BRANCH   1  11
ATOM     11  CB  GLN A   1      34.024 -19.771 -21.403  0.00  0.00    +0.041 C 
BRANCH  11  12
ATOM     12  CG  GLN A   1      33.068 -20.213 -20.289  0.00  0.00    +0.087 C 
BRANCH  12  15
ATOM     13  OE1 GLN A   1      34.771 -21.805 -19.696  0.00  0.00    -0.275 OA
ATOM     14  NE2 GLN A   1      32.665 -22.082 -18.810  0.00  0.00    -0.329 N 
ATOM     15  CD  GLN A   1      33.604 -21.441 -19.586  0.00  0.00    +0.219 C 
ATOM     16 HE21 GLN A   1      32.912 -22.892 -18.309  0.00  0.00    +0.145 HD
ATOM     17 HE22 GLN A   1      31.748 -21.730 -18.756  0.00  0.00    +0.145 HD
ENDBRANCH  12  15
ENDBRANCH  11  12
ENDBRANCH   1  11
TORSDOF 6
ENDMDL
MODEL 3
REMARK VINA RESULT:      -6.2      1.742      4.286
REMARK  Name = 182230
REMARK  6 active torsions:
REMARK  status: ('A' for Active; 'I' for Inactive)
REMARK    1  A    between atoms: CA_1  and  N_3
REMARK    2  A    between atoms: CA_1  and  C_8
REMARK    3  A    between atoms: CA_1  and  CB_11
REMARK    4  A    between atoms: C_8  and  O_9
REMARK    5  A    between atoms: CB_11  and  CG_12
REMARK    6  A    between atoms: CG_12  and  CD_15
REMARK                            x       y       z     vdW  Elec       q    Type
REMARK                         _______ _______ _______ _____ _____    ______ ____
ROOT
ATOM      1  CA  GLN A   1      36.653 -24.743 -12.762  0.00  0.00    +0.172 C 
ENDROOT
BRANCH   1   3
ATOM      2  O   UNK A   0      36.044 -25.502 -15.496  0.00  0.00    -0.275 OA
ATOM      3  N   GLN A   1      35.890 -23.994 -13.729  0.00  0.00    -0.297 N 
ATOM      4  C   UNK A   0      35.650 -24.441 -15.019  0.00  0.00    +0.223 C 
ATOM      5  C   UNK A   0      34.807 -23.478 -15.811  0.00  0.00    +0.095 C 
ATOM      6  H   GLN A   1      35.521 -23.123 -13.460  0.00  0.00    +0.150 HD
ENDBRANCH   1   3
BRANCH   1   8
ATOM      7  OXT GLN A   1      35.296 -25.117 -10.797  0.00  0.00    -0.248 OA
ATOM      8  C   GLN A   1      36.201 -24.485 -11.333  0.00  0.00    +0.332 C 
BRANCH   8   9
ATOM      9  O   GLN A   1      36.842 -23.467 -10.711  0.00  0.00    -0.479 OA
ATOM     10  H   GLN A   1      37.345 -22.856 -11.212  0.00  0.00    +0.295 HD
ENDBRANCH   8   9
ENDBRANCH   1   8
BRANCH   1  11
ATOM     11  CB  GLN A   1      38.157 -24.488 -12.916  0.00  0.00    +0.041 C 
BRANCH  11  12
ATOM     12  CG  GLN A   1      38.948 -25.708 -13.399  0.00  0.00    +0.087 C 
BRANCH  12  15
ATOM     13  OE1 GLN A   1      40.980 -25.688 -14.686  0.00  0.00    -0.275 OA
ATOM     14  NE2 GLN A   1      39.130 -24.629 -15.555  0.00  0.00    -0.329 N 
ATOM     15  CD  GLN A   1      39.804 -25.349 -14.594  0.00  0.00    +0.219 C 
ATOM     16 HE21 GLN A   1      39.596 -24.345 -16.374  0.00  0.00    +0.145 HD
ATOM     17 HE22 GLN A   1      38.182 -24.399 -15.422  0.00  0.00    +0.145 HD
ENDBRANCH  12  15
ENDBRANCH  11  12
ENDBRANCH   1  11
TORSDOF 6
ENDMDL
MODEL 4
REMARK VINA RESULT:      -6.2      2.322      2.537
REMARK  Name = 182230
REMARK  6 active torsions:
REMARK  status: ('A' for Active; 'I' for Inactive)
REMARK    1  A    between atoms: CA_1  and  N_3
REMARK    2  A    between atoms: CA_1  and  C_8
REMARK    3  A    between atoms: CA_1  and  CB_11
REMARK    4  A    between atoms: C_8  and  O_9
REMARK    5  A    between atoms: CB_11  and  CG_12
REMARK    6  A    between atoms: CG_12  and  CD_15
REMARK                            x       y       z     vdW  Elec       q    Type
REMARK                         _______ _______ _______ _____ _____    ______ ____
ROOT
ATOM      1  CA  GLN A   1      36.840 -25.399 -14.557  0.00  0.00    +0.172 C 
ENDROOT
BRANCH   1   3
ATOM      2  O   UNK A   0      35.971 -22.683 -15.098  0.00  0.00    -0.275 OA
ATOM      3  N   GLN A   1      35.608 -24.982 -15.178  0.00  0.00    -0.297 N 
ATOM      4  C   UNK A   0      35.278 -23.653 -15.395  0.00  0.00    +0.223 C 
ATOM      5  C   UNK A   0      33.948 -23.498 -16.082  0.00  0.00    +0.095 C 
ATOM      6  H   GLN A   1      34.969 -25.674 -15.461  0.00  0.00    +0.150 HD
ENDBRANCH   1   3
BRANCH   1   8
ATOM      7  OXT GLN A   1      38.360 -27.274 -14.681  0.00  0.00    -0.248 OA
ATOM      8  C   GLN A   1      37.372 -26.702 -15.132  0.00  0.00    +0.332 C 
BRANCH   8   9
ATOM      9  O   GLN A   1      36.700 -27.160 -16.215  0.00  0.00    -0.479 OA
ATOM     10  H   GLN A   1      37.168 -27.390 -16.993  0.00  0.00    +0.295 HD
ENDBRANCH   8   9
ENDBRANCH   1   8
BRANCH   1  11
ATOM     11  CB  GLN A   1      36.696 -25.490 -13.033  0.00  0.00    +0.041 C 
BRANCH  11  12
ATOM     12  CG  GLN A   1      37.839 -24.822 -12.261  0.00  0.00    +0.087 C 
BRANCH  12  15
ATOM     13  OE1 GLN A   1      38.333 -22.559 -11.613  0.00  0.00    -0.275 OA
ATOM     14  NE2 GLN A   1      36.136 -23.128 -11.995  0.00  0.00    -0.329 N 
ATOM     15  CD  GLN A   1      37.485 -23.392 -11.916  0.00  0.00    +0.219 C 
ATOM     16 HE21 GLN A   1      35.799 -22.226 -11.791  0.00  0.00    +0.145 HD
ATOM     17 HE22 GLN A   1      35.509 -23.841 -12.256  0.00  0.00    +0.145 HD
ENDBRANCH  12  15
ENDBRANCH  11  12
ENDBRANCH   1  11
TORSDOF 6
ENDMDL
MODEL 5
REMARK VINA RESULT:      -6.1      2.000      3.588
REMARK  Name = 182230
REMARK  6 active torsions:
REMARK  status: ('A' for Active; 'I' for Inactive)
REMARK    1  A    between atoms: CA_1  and  N_3
REMARK    2  A    between atoms: CA_1  and  C_8
REMARK    3  A    between atoms: CA_1  and  CB_11
REMARK    4  A    between atoms: C_8  and  O_9
REMARK    5  A    between atoms: CB_11  and  CG_12
REMARK    6  A    between atoms: CG_12  and  CD_15
REMARK                            x       y       z     vdW  Elec       q    Type
REMARK                         _______ _______ _______ _____ _____    ______ ____
ROOT
ATOM      1  CA  GLN A   1      36.406 -23.581 -12.875  0.00  0.00    +0.172 C 
ENDROOT
BRANCH   1   3
ATOM      2  O   UNK A   0      35.201 -22.663 -15.350  0.00  0.00    -0.275 OA
ATOM      3  N   GLN A   1      37.085 -23.158 -14.074  0.00  0.00    -0.297 N 
ATOM      4  C   UNK A   0      36.420 -22.733 -15.214  0.00  0.00    +0.223 C 
ATOM      5  C   UNK A   0      37.366 -22.325 -16.311  0.00  0.00    +0.095 C 
ATOM      6  H   GLN A   1      38.068 -23.170 -14.085  0.00  0.00    +0.150 HD
ENDBRANCH   1   3
BRANCH   1   8
ATOM      7  OXT GLN A   1      36.854 -23.637 -10.500  0.00  0.00    -0.248 OA
ATOM      8  C   GLN A   1      37.181 -23.235 -11.612  0.00  0.00    +0.332 C 
BRANCH   8   9
ATOM      9  O   GLN A   1      38.236 -22.408 -11.803  0.00  0.00    -0.479 OA
ATOM     10  H   GLN A   1      38.493 -21.814 -11.126  0.00  0.00    +0.295 HD
ENDBRANCH   8   9
ENDBRANCH   1   8
BRANCH   1  11
ATOM     11  CB  GLN A   1      36.069 -25.076 -12.920  0.00  0.00    +0.041 C 
BRANCH  11  12
ATOM     12  CG  GLN A   1      37.299 -25.987 -13.003  0.00  0.00    +0.087 C 
BRANCH  12  15
ATOM     13  OE1 GLN A   1      38.357 -27.235 -14.767  0.00  0.00    -0.275 OA
ATOM     14  NE2 GLN A   1      36.121 -26.730 -14.979  0.00  0.00    -0.329 N 
ATOM     15  CD  GLN A   1      37.336 -26.710 -14.332  0.00  0.00    +0.219 C 
ATOM     16 HE21 GLN A   1      36.036 -27.176 -15.852  0.00  0.00    +0.145 HD
ATOM     17 HE22 GLN A   1      35.338 -26.298 -14.569  0.00  0.00    +0.145 HD
ENDBRANCH  12  15
ENDBRANCH  11  12
ENDBRANCH   1  11
TORSDOF 6
ENDMDL
MODEL 6
REMARK VINA RESULT:      -6.1      8.795     10.894
REMARK  Name = 182230
REMARK  6 active torsions:
REMARK  status: ('A' for Active; 'I' for Inactive)
REMARK    1  A    between atoms: CA_1  and  N_3
REMARK    2  A    between atoms: CA_1  and  C_8
REMARK    3  A    between atoms: CA_1  and  CB_11
REMARK    4  A    between atoms: C_8  and  O_9
REMARK    5  A    between atoms: CB_11  and  CG_12
REMARK    6  A    between atoms: CG_12  and  CD_15
REMARK                            x       y       z     vdW  Elec       q    Type
REMARK                         _______ _______ _______ _____ _____    ______ ____
ROOT
ATOM      1  CA  GLN A   1      35.079 -17.609 -21.643  0.00  0.00    +0.172 C 
ENDROOT
BRANCH   1   3
ATOM      2  O   UNK A   0      34.982 -15.026 -20.323  0.00  0.00    -0.275 OA
ATOM      3  N   GLN A   1      33.905 -16.859 -21.274  0.00  0.00    -0.297 N 
ATOM      4  C   UNK A   0      33.959 -15.626 -20.642  0.00  0.00    +0.223 C 
ATOM      5  C   UNK A   0      32.590 -15.050 -20.394  0.00  0.00    +0.095 C 
ATOM      6  H   GLN A   1      33.022 -17.240 -21.481  0.00  0.00    +0.150 HD
ENDBRANCH   1   3
BRANCH   1   8
ATOM      7  OXT GLN A   1      35.353 -18.476 -23.883  0.00  0.00    -0.248 OA
ATOM      8  C   GLN A   1      35.394 -17.510 -23.127  0.00  0.00    +0.332 C 
BRANCH   8   9
ATOM      9  O   GLN A   1      35.773 -16.279 -23.545  0.00  0.00    -0.479 OA
ATOM     10  H   GLN A   1      35.776 -15.561 -22.944  0.00  0.00    +0.295 HD
ENDBRANCH   8   9
ENDBRANCH   1   8
BRANCH   1  11
ATOM     11  CB  GLN A   1      34.969 -19.074 -21.202  0.00  0.00    +0.041 C 
BRANCH  11  12
ATOM     12  CG  GLN A   1      33.535 -19.526 -20.908  0.00  0.00    +0.087 C 
BRANCH  12  15
ATOM     13  OE1 GLN A   1      32.513 -21.049 -19.350  0.00  0.00    -0.275 OA
ATOM     14  NE2 GLN A   1      34.766 -21.266 -19.766  0.00  0.00    -0.329 N 
ATOM     15  CD  GLN A   1      33.531 -20.678 -19.926  0.00  0.00    +0.219 C 
ATOM     16 HE21 GLN A   1      34.873 -22.025 -19.150  0.00  0.00    +0.145 HD
ATOM     17 HE22 GLN A   1      35.541 -20.926 -20.268  0.00  0.00    +0.145 HD
ENDBRANCH  12  15
ENDBRANCH  11  12
ENDBRANCH   1  11
TORSDOF 6
ENDMDL
MODEL 7
REMARK VINA RESULT:      -6.1      9.450     12.440
REMARK  Name = 182230
REMARK  6 active torsions:
REMARK  status: ('A' for Active; 'I' for Inactive)
REMARK    1  A    between atoms: CA_1  and  N_3
REMARK    2  A    between atoms: CA_1  and  C_8
REMARK    3  A    between atoms: CA_1  and  CB_11
REMARK    4  A    between atoms: C_8  and  O_9
REMARK    5  A    between atoms: CB_11  and  CG_12
REMARK    6  A    between atoms: CG_12  and  CD_15
REMARK                            x       y       z     vdW  Elec       q    Type
REMARK                         _______ _______ _______ _____ _____    ______ ____
ROOT
ATOM      1  CA  GLN A   1      34.954 -17.311 -21.253  0.00  0.00    +0.172 C 
ENDROOT
BRANCH   1   3
ATOM      2  O   UNK A   0      35.382 -19.991 -20.225  0.00  0.00    -0.275 OA
ATOM      3  N   GLN A   1      33.982 -18.369 -21.134  0.00  0.00    -0.297 N 
ATOM      4  C   UNK A   0      34.281 -19.624 -20.627  0.00  0.00    +0.223 C 
ATOM      5  C   UNK A   0      33.079 -20.529 -20.590  0.00  0.00    +0.095 C 
ATOM      6  H   GLN A   1      33.059 -18.190 -21.426  0.00  0.00    +0.150 HD
ENDBRANCH   1   3
BRANCH   1   8
ATOM      7  OXT GLN A   1      34.982 -15.128 -20.216  0.00  0.00    -0.248 OA
ATOM      8  C   GLN A   1      34.381 -15.947 -20.904  0.00  0.00    +0.332 C 
BRANCH   8   9
ATOM      9  O   GLN A   1      33.129 -15.722 -21.370  0.00  0.00    -0.479 OA
ATOM     10  H   GLN A   1      32.780 -14.853 -21.372  0.00  0.00    +0.295 HD
ENDBRANCH   8   9
ENDBRANCH   1   8
BRANCH   1  11
ATOM     11  CB  GLN A   1      35.597 -17.296 -22.645  0.00  0.00    +0.041 C 
BRANCH  11  12
ATOM     12  CG  GLN A   1      34.669 -17.787 -23.762  0.00  0.00    +0.087 C 
BRANCH  12  15
ATOM     13  OE1 GLN A   1      34.903 -16.808 -25.947  0.00  0.00    -0.275 OA
ATOM     14  NE2 GLN A   1      33.751 -15.627 -24.341  0.00  0.00    -0.329 N 
ATOM     15  CD  GLN A   1      34.470 -16.707 -24.802  0.00  0.00    +0.219 C 
ATOM     16 HE21 GLN A   1      33.565 -14.868 -24.939  0.00  0.00    +0.145 HD
ATOM     17 HE22 GLN A   1      33.423 -15.615 -23.413  0.00  0.00    +0.145 HD
ENDBRANCH  12  15
ENDBRANCH  11  12
ENDBRANCH   1  11
TORSDOF 6
ENDMDL
MODEL 8
REMARK VINA RESULT:      -6.0      8.085     10.958
REMARK  Name = 182230
REMARK  6 active torsions:
REMARK  status: ('A' for Active; 'I' for Inactive)
REMARK    1  A    between atoms: CA_1  and  N_3
REMARK    2  A    between atoms: CA_1  and  C_8
REMARK    3  A    between atoms: CA_1  and  CB_11
REMARK    4  A    between atoms: C_8  and  O_9
REMARK    5  A    between atoms: CB_11  and  CG_12
REMARK    6  A    between atoms: CG_12  and  CD_15
REMARK                            x       y       z     vdW  Elec       q    Type
REMARK                         _______ _______ _______ _____ _____    ______ ____
ROOT
ATOM      1  CA  GLN A   1      34.955 -19.802 -21.475  0.00  0.00    +0.172 C 
ENDROOT
BRANCH   1   3
ATOM      2  O   UNK A   0      35.600 -21.964 -19.649  0.00  0.00    -0.275 OA
ATOM      3  N   GLN A   1      34.064 -20.469 -20.558  0.00  0.00    -0.297 N 
ATOM      4  C   UNK A   0      34.466 -21.498 -19.720  0.00  0.00    +0.223 C 
ATOM      5  C   UNK A   0      33.345 -21.997 -18.848  0.00  0.00    +0.095 C 
ATOM      6  H   GLN A   1      33.125 -20.179 -20.525  0.00  0.00    +0.150 HD
ENDBRANCH   1   3
BRANCH   1   8
ATOM      7  OXT GLN A   1      35.578 -17.596 -20.709  0.00  0.00    -0.248 OA
ATOM      8  C   GLN A   1      35.854 -18.789 -20.784  0.00  0.00    +0.332 C 
BRANCH   8   9
ATOM      9  O   GLN A   1      37.012 -19.297 -20.299  0.00  0.00    -0.479 OA
ATOM     10  H   GLN A   1      37.716 -19.498 -20.883  0.00  0.00    +0.295 HD
ENDBRANCH   8   9
ENDBRANCH   1   8
BRANCH   1  11
ATOM     11  CB  GLN A   1      34.185 -19.154 -22.631  0.00  0.00    +0.041 C 
BRANCH  11  12
ATOM     12  CG  GLN A   1      34.979 -19.076 -23.939  0.00  0.00    +0.087 C 
BRANCH  12  15
ATOM     13  OE1 GLN A   1      34.388 -17.457 -25.617  0.00  0.00    -0.275 OA
ATOM     14  NE2 GLN A   1      35.445 -16.715 -23.712  0.00  0.00    -0.329 N 
ATOM     15  CD  GLN A   1      34.903 -17.683 -24.526  0.00  0.00    +0.219 C 
ATOM     16 HE21 GLN A   1      35.445 -15.774 -24.000  0.00  0.00    +0.145 HD
ATOM     17 HE22 GLN A   1      35.832 -16.963 -22.842  0.00  0.00    +0.145 HD
ENDBRANCH  12  15
ENDBRANCH  11  12
ENDBRANCH   1  11
TORSDOF 6
ENDMDL
MODEL 9
REMARK VINA RESULT:      -6.0     11.797     14.494
REMARK  Name = 182230
REMARK  6 active torsions:
REMARK  status: ('A' for Active; 'I' for Inactive)
REMARK    1  A    between atoms: CA_1  and  N_3
REMARK    2  A    between atoms: CA_1  and  C_8
REMARK    3  A    between atoms: CA_1  and  CB_11
REMARK    4  A    between atoms: C_8  and  O_9
REMARK    5  A    between atoms: CB_11  and  CG_12
REMARK    6  A    between atoms: CG_12  and  CD_15
REMARK                            x       y       z     vdW  Elec       q    Type
REMARK                         _______ _______ _______ _____ _____    ______ ____
ROOT
ATOM      1  CA  GLN A   1      33.293 -14.812 -23.620  0.00  0.00    +0.172 C 
ENDROOT
BRANCH   1   3
ATOM      2  O   UNK A   0      33.004 -15.703 -26.367  0.00  0.00    -0.275 OA
ATOM      3  N   GLN A   1      33.343 -14.003 -24.812  0.00  0.00    -0.297 N 
ATOM      4  C   UNK A   0      33.193 -14.521 -26.090  0.00  0.00    +0.223 C 
ATOM      5  C   UNK A   0      33.261 -13.456 -27.151  0.00  0.00    +0.095 C 
ATOM      6  H   GLN A   1      33.489 -13.035 -24.714  0.00  0.00    +0.150 HD
ENDBRANCH   1   3
BRANCH   1   8
ATOM      7  OXT GLN A   1      32.245 -12.960 -22.475  0.00  0.00    -0.248 OA
ATOM      8  C   GLN A   1      32.491 -14.161 -22.504  0.00  0.00    +0.332 C 
BRANCH   8   9
ATOM      9  O   GLN A   1      32.110 -15.004 -21.515  0.00  0.00    -0.479 OA
ATOM     10  H   GLN A   1      32.550 -15.824 -21.403  0.00  0.00    +0.295 HD
ENDBRANCH   8   9
ENDBRANCH   1   8
BRANCH   1  11
ATOM     11  CB  GLN A   1      34.700 -15.186 -23.139  0.00  0.00    +0.041 C 
BRANCH  11  12
ATOM     12  CG  GLN A   1      34.844 -16.654 -22.722  0.00  0.00    +0.087 C 
BRANCH  12  15
ATOM     13  OE1 GLN A   1      34.882 -15.818 -20.466  0.00  0.00    -0.275 OA
ATOM     14  NE2 GLN A   1      35.460 -18.017 -20.823  0.00  0.00    -0.329 N 
ATOM     15  CD  GLN A   1      35.063 -16.763 -21.229  0.00  0.00    +0.219 C 
ATOM     16 HE21 GLN A   1      35.629 -18.195 -19.870  0.00  0.00    +0.145 HD
ATOM     17 HE22 GLN A   1      35.575 -18.735 -21.486  0.00  0.00    +0.145 HD
ENDBRANCH  12  15
ENDBRANCH  11  12
ENDBRANCH   1  11
TORSDOF 6
ENDMDL
