MODEL 1
REMARK VINA RESULT:      -8.4      0.000      0.000
REMARK  Name = 7595
REMARK  2 active torsions:
REMARK  status: ('A' for Active; 'I' for Inactive)
REMARK    1  A    between atoms: N_2  and  C_7
REMARK    2  A    between atoms: N_3  and  C_13
REMARK                            x       y       z     vdW  Elec       q    Type
REMARK                         _______ _______ _______ _____ _____    ______ ____
ROOT
ATOM      1  O   UNL     1      34.830 -16.123 -20.611  0.00  0.00    -0.252 OA
ATOM      2  N   UNL     1      33.610 -15.982 -22.606  0.00  0.00    -0.268 N 
ATOM      3  N   UNL     1      34.394 -18.033 -21.889  0.00  0.00    -0.268 N 
ATOM      4  C   UNL     1      34.333 -16.661 -21.595  0.00  0.00    +0.308 C 
ATOM      5  H   UNL     1      33.268 -16.545 -23.337  0.00  0.00    +0.156 HD
ATOM      6  H   UNL     1      33.946 -18.317 -22.717  0.00  0.00    +0.156 HD
ENDROOT
BRANCH   2   7
ATOM      7  C   UNL     1      33.317 -14.621 -22.702  0.00  0.00    +0.052 C 
ATOM      8  C   UNL     1      32.377 -14.048 -21.845  0.00  0.00    +0.015 C 
ATOM      9  C   UNL     1      33.964 -13.834 -23.655  0.00  0.00    +0.015 C 
ATOM     10  C   UNL     1      32.084 -12.688 -21.942  0.00  0.00    +0.001 C 
ATOM     11  C   UNL     1      33.671 -12.474 -23.750  0.00  0.00    +0.001 C 
ATOM     12  C   UNL     1      32.731 -11.900 -22.894  0.00  0.00    +0.000 C 
ENDBRANCH   2   7
BRANCH   3  13
ATOM     13  C   UNL     1      35.020 -19.057 -21.139  0.00  0.00    +0.052 C 
ATOM     14  C   UNL     1      34.242 -20.049 -20.565  0.00  0.00    +0.015 C 
ATOM     15  C   UNL     1      36.398 -19.046 -20.995  0.00  0.00    +0.015 C 
ATOM     16  C   UNL     1      34.859 -21.058 -19.826  0.00  0.00    +0.001 C 
ATOM     17  C   UNL     1      37.015 -20.055 -20.256  0.00  0.00    +0.001 C 
ATOM     18  C   UNL     1      36.246 -21.061 -19.672  0.00  0.00    +0.000 C 
ENDBRANCH   3  13
TORSDOF 2
ENDMDL
MODEL 2
REMARK VINA RESULT:      -8.4      1.427      7.079
REMARK  Name = 7595
REMARK  2 active torsions:
REMARK  status: ('A' for Active; 'I' for Inactive)
REMARK    1  A    between atoms: N_2  and  C_7
REMARK    2  A    between atoms: N_3  and  C_13
REMARK                            x       y       z     vdW  Elec       q    Type
REMARK                         _______ _______ _______ _____ _____    ______ ____
ROOT
ATOM      1  O   UNL     1      33.769 -17.370 -21.121  0.00  0.00    -0.252 OA
ATOM      2  N   UNL     1      35.259 -18.998 -21.907  0.00  0.00    -0.268 N 
ATOM      3  N   UNL     1      34.848 -17.114 -23.180  0.00  0.00    -0.268 N 
ATOM      4  C   UNL     1      34.542 -17.779 -21.982  0.00  0.00    +0.308 C 
ATOM      5  H   UNL     1      35.845 -19.196 -22.673  0.00  0.00    +0.156 HD
ATOM      6  H   UNL     1      35.490 -17.568 -23.773  0.00  0.00    +0.156 HD
ENDROOT
BRANCH   2   7
ATOM      7  C   UNL     1      35.246 -19.955 -20.892  0.00  0.00    +0.052 C 
ATOM      8  C   UNL     1      36.439 -20.339 -20.280  0.00  0.00    +0.015 C 
ATOM      9  C   UNL     1      34.040 -20.528 -20.489  0.00  0.00    +0.015 C 
ATOM     10  C   UNL     1      36.426 -21.296 -19.266  0.00  0.00    +0.001 C 
ATOM     11  C   UNL     1      34.027 -21.484 -19.474  0.00  0.00    +0.001 C 
ATOM     12  C   UNL     1      35.220 -21.869 -18.862  0.00  0.00    +0.000 C 
ENDBRANCH   2   7
BRANCH   3  13
ATOM     13  C   UNL     1      34.350 -15.873 -23.640  0.00  0.00    +0.052 C 
ATOM     14  C   UNL     1      34.467 -14.754 -22.832  0.00  0.00    +0.015 C 
ATOM     15  C   UNL     1      33.754 -15.802 -24.889  0.00  0.00    +0.015 C 
ATOM     16  C   UNL     1      33.975 -13.530 -23.285  0.00  0.00    +0.001 C 
ATOM     17  C   UNL     1      33.263 -14.578 -25.342  0.00  0.00    +0.001 C 
ATOM     18  C   UNL     1      33.373 -13.442 -24.540  0.00  0.00    +0.000 C 
ENDBRANCH   3  13
TORSDOF 2
ENDMDL
MODEL 3
REMARK VINA RESULT:      -8.4      2.927      4.210
REMARK  Name = 7595
REMARK  2 active torsions:
REMARK  status: ('A' for Active; 'I' for Inactive)
REMARK    1  A    between atoms: N_2  and  C_7
REMARK    2  A    between atoms: N_3  and  C_13
REMARK                            x       y       z     vdW  Elec       q    Type
REMARK                         _______ _______ _______ _____ _____    ______ ____
ROOT
ATOM      1  O   UNL     1      33.748 -19.539 -20.605  0.00  0.00    -0.252 OA
ATOM      2  N   UNL     1      35.576 -19.481 -22.069  0.00  0.00    -0.268 N 
ATOM      3  N   UNL     1      35.591 -20.940 -20.278  0.00  0.00    -0.268 N 
ATOM      4  C   UNL     1      34.854 -19.948 -20.943  0.00  0.00    +0.308 C 
ATOM      5  H   UNL     1      36.453 -19.903 -22.218  0.00  0.00    +0.156 HD
ATOM      6  H   UNL     1      36.466 -21.163 -20.670  0.00  0.00    +0.156 HD
ENDROOT
BRANCH   2   7
ATOM      7  C   UNL     1      35.209 -18.505 -22.996  0.00  0.00    +0.052 C 
ATOM      8  C   UNL     1      34.709 -18.881 -24.243  0.00  0.00    +0.015 C 
ATOM      9  C   UNL     1      35.341 -17.154 -22.675  0.00  0.00    +0.015 C 
ATOM     10  C   UNL     1      34.343 -17.904 -25.169  0.00  0.00    +0.001 C 
ATOM     11  C   UNL     1      34.973 -16.179 -23.602  0.00  0.00    +0.001 C 
ATOM     12  C   UNL     1      34.474 -16.553 -24.849  0.00  0.00    +0.000 C 
ENDBRANCH   2   7
BRANCH   3  13
ATOM     13  C   UNL     1      35.231 -21.660 -19.114  0.00  0.00    +0.052 C 
ATOM     14  C   UNL     1      33.973 -22.234 -19.035  0.00  0.00    +0.015 C 
ATOM     15  C   UNL     1      36.144 -21.775 -18.079  0.00  0.00    +0.015 C 
ATOM     16  C   UNL     1      33.617 -22.943 -17.887  0.00  0.00    +0.001 C 
ATOM     17  C   UNL     1      35.788 -22.485 -16.932  0.00  0.00    +0.001 C 
ATOM     18  C   UNL     1      34.526 -23.069 -16.836  0.00  0.00    +0.000 C 
ENDBRANCH   3  13
TORSDOF 2
ENDMDL
MODEL 4
REMARK VINA RESULT:      -8.4      1.434      2.284
REMARK  Name = 7595
REMARK  2 active torsions:
REMARK  status: ('A' for Active; 'I' for Inactive)
REMARK    1  A    between atoms: N_2  and  C_7
REMARK    2  A    between atoms: N_3  and  C_13
REMARK                            x       y       z     vdW  Elec       q    Type
REMARK                         _______ _______ _______ _____ _____    ______ ____
ROOT
ATOM      1  O   UNL     1      33.751 -17.393 -21.121  0.00  0.00    -0.252 OA
ATOM      2  N   UNL     1      34.847 -17.117 -23.174  0.00  0.00    -0.268 N 
ATOM      3  N   UNL     1      35.257 -19.002 -21.903  0.00  0.00    -0.268 N 
ATOM      4  C   UNL     1      34.536 -17.799 -21.972  0.00  0.00    +0.308 C 
ATOM      5  H   UNL     1      35.495 -17.566 -23.764  0.00  0.00    +0.156 HD
ATOM      6  H   UNL     1      35.849 -19.194 -22.665  0.00  0.00    +0.156 HD
ENDROOT
BRANCH   2   7
ATOM      7  C   UNL     1      34.355 -15.895 -23.633  0.00  0.00    +0.052 C 
ATOM      8  C   UNL     1      33.756 -15.812 -24.891  0.00  0.00    +0.015 C 
ATOM      9  C   UNL     1      34.462 -14.756 -22.836  0.00  0.00    +0.015 C 
ATOM     10  C   UNL     1      33.266 -14.590 -25.350  0.00  0.00    +0.001 C 
ATOM     11  C   UNL     1      33.970 -13.534 -23.295  0.00  0.00    +0.001 C 
ATOM     12  C   UNL     1      33.372 -13.451 -24.552  0.00  0.00    +0.000 C 
ENDBRANCH   2   7
BRANCH   3  13
ATOM     13  C   UNL     1      35.236 -19.972 -20.874  0.00  0.00    +0.052 C 
ATOM     14  C   UNL     1      36.426 -20.350 -20.273  0.00  0.00    +0.015 C 
ATOM     15  C   UNL     1      34.026 -20.525 -20.487  0.00  0.00    +0.015 C 
ATOM     16  C   UNL     1      36.405 -21.306 -19.258  0.00  0.00    +0.001 C 
ATOM     17  C   UNL     1      34.005 -21.482 -19.472  0.00  0.00    +0.001 C 
ATOM     18  C   UNL     1      35.195 -21.872 -18.858  0.00  0.00    +0.000 C 
ENDBRANCH   3  13
TORSDOF 2
ENDMDL
MODEL 5
REMARK VINA RESULT:      -8.4      0.046      6.985
REMARK  Name = 7595
REMARK  2 active torsions:
REMARK  status: ('A' for Active; 'I' for Inactive)
REMARK    1  A    between atoms: N_2  and  C_7
REMARK    2  A    between atoms: N_3  and  C_13
REMARK                            x       y       z     vdW  Elec       q    Type
REMARK                         _______ _______ _______ _____ _____    ______ ____
ROOT
ATOM      1  O   UNL     1      34.839 -16.072 -20.637  0.00  0.00    -0.252 OA
ATOM      2  N   UNL     1      34.374 -17.996 -21.890  0.00  0.00    -0.268 N 
ATOM      3  N   UNL     1      33.584 -15.947 -22.606  0.00  0.00    -0.268 N 
ATOM      4  C   UNL     1      34.319 -16.609 -21.610  0.00  0.00    +0.308 C 
ATOM      5  H   UNL     1      33.910 -18.285 -22.708  0.00  0.00    +0.156 HD
ATOM      6  H   UNL     1      33.227 -16.514 -23.327  0.00  0.00    +0.156 HD
ENDROOT
BRANCH   2   7
ATOM      7  C   UNL     1      35.000 -19.008 -21.160  0.00  0.00    +0.052 C 
ATOM      8  C   UNL     1      34.239 -20.025 -20.585  0.00  0.00    +0.015 C 
ATOM      9  C   UNL     1      36.387 -19.001 -21.006  0.00  0.00    +0.015 C 
ATOM     10  C   UNL     1      34.865 -21.035 -19.855  0.00  0.00    +0.001 C 
ATOM     11  C   UNL     1      37.012 -20.011 -20.277  0.00  0.00    +0.001 C 
ATOM     12  C   UNL     1      36.252 -21.030 -19.701  0.00  0.00    +0.000 C 
ENDBRANCH   2   7
BRANCH   3  13
ATOM     13  C   UNL     1      33.293 -14.566 -22.702  0.00  0.00    +0.052 C 
ATOM     14  C   UNL     1      33.946 -13.800 -23.654  0.00  0.00    +0.015 C 
ATOM     15  C   UNL     1      32.362 -14.008 -21.842  0.00  0.00    +0.015 C 
ATOM     16  C   UNL     1      33.660 -12.438 -23.749  0.00  0.00    +0.001 C 
ATOM     17  C   UNL     1      32.076 -12.646 -21.937  0.00  0.00    +0.001 C 
ATOM     18  C   UNL     1      32.725 -11.861 -22.890  0.00  0.00    +0.000 C 
ENDBRANCH   3  13
TORSDOF 2
ENDMDL
MODEL 6
REMARK VINA RESULT:      -8.4      1.426      1.964
REMARK  Name = 7595
REMARK  2 active torsions:
REMARK  status: ('A' for Active; 'I' for Inactive)
REMARK    1  A    between atoms: N_2  and  C_7
REMARK    2  A    between atoms: N_3  and  C_13
REMARK                            x       y       z     vdW  Elec       q    Type
REMARK                         _______ _______ _______ _____ _____    ______ ____
ROOT
ATOM      1  O   UNL     1      33.773 -17.380 -21.105  0.00  0.00    -0.252 OA
ATOM      2  N   UNL     1      34.843 -17.112 -23.172  0.00  0.00    -0.268 N 
ATOM      3  N   UNL     1      35.257 -19.000 -21.907  0.00  0.00    -0.268 N 
ATOM      4  C   UNL     1      34.544 -17.792 -21.966  0.00  0.00    +0.308 C 
ATOM      5  H   UNL     1      35.481 -17.565 -23.770  0.00  0.00    +0.156 HD
ATOM      6  H   UNL     1      35.838 -19.196 -22.676  0.00  0.00    +0.156 HD
ENDROOT
BRANCH   2   7
ATOM      7  C   UNL     1      34.354 -15.886 -23.625  0.00  0.00    +0.052 C 
ATOM      8  C   UNL     1      33.757 -15.796 -24.882  0.00  0.00    +0.015 C 
ATOM      9  C   UNL     1      34.462 -14.752 -22.820  0.00  0.00    +0.015 C 
ATOM     10  C   UNL     1      33.269 -14.570 -25.335  0.00  0.00    +0.001 C 
ATOM     11  C   UNL     1      33.973 -13.527 -23.273  0.00  0.00    +0.001 C 
ATOM     12  C   UNL     1      33.376 -13.435 -24.531  0.00  0.00    +0.000 C 
ENDBRANCH   2   7
BRANCH   3  13
ATOM     13  C   UNL     1      35.243 -19.970 -20.877  0.00  0.00    +0.052 C 
ATOM     14  C   UNL     1      34.036 -20.530 -20.489  0.00  0.00    +0.015 C 
ATOM     15  C   UNL     1      36.435 -20.341 -20.277  0.00  0.00    +0.015 C 
ATOM     16  C   UNL     1      34.022 -21.486 -19.474  0.00  0.00    +0.001 C 
ATOM     17  C   UNL     1      36.421 -21.297 -19.262  0.00  0.00    +0.001 C 
ATOM     18  C   UNL     1      35.215 -21.870 -18.861  0.00  0.00    +0.000 C 
ENDBRANCH   3  13
TORSDOF 2
ENDMDL
MODEL 7
REMARK VINA RESULT:      -8.4      2.937      7.494
REMARK  Name = 7595
REMARK  2 active torsions:
REMARK  status: ('A' for Active; 'I' for Inactive)
REMARK    1  A    between atoms: N_2  and  C_7
REMARK    2  A    between atoms: N_3  and  C_13
REMARK                            x       y       z     vdW  Elec       q    Type
REMARK                         _______ _______ _______ _____ _____    ______ ____
ROOT
ATOM      1  O   UNL     1      33.636 -19.587 -20.673  0.00  0.00    -0.252 OA
ATOM      2  N   UNL     1      35.500 -20.938 -20.239  0.00  0.00    -0.268 N 
ATOM      3  N   UNL     1      35.542 -19.473 -22.024  0.00  0.00    -0.268 N 
ATOM      4  C   UNL     1      34.772 -19.956 -20.954  0.00  0.00    +0.308 C 
ATOM      5  H   UNL     1      36.403 -21.132 -20.579  0.00  0.00    +0.156 HD
ATOM      6  H   UNL     1      36.439 -19.866 -22.122  0.00  0.00    +0.156 HD
ENDROOT
BRANCH   2   7
ATOM      7  C   UNL     1      35.108 -21.666 -19.115  0.00  0.00    +0.052 C 
ATOM      8  C   UNL     1      33.829 -22.218 -19.053  0.00  0.00    +0.015 C 
ATOM      9  C   UNL     1      35.996 -21.841 -18.053  0.00  0.00    +0.015 C 
ATOM     10  C   UNL     1      33.437 -22.945 -17.930  0.00  0.00    +0.001 C 
ATOM     11  C   UNL     1      35.603 -22.569 -16.930  0.00  0.00    +0.001 C 
ATOM     12  C   UNL     1      34.324 -23.122 -16.868  0.00  0.00    +0.000 C 
ENDBRANCH   2   7
BRANCH   3  13
ATOM     13  C   UNL     1      35.187 -18.490 -22.978  0.00  0.00    +0.052 C 
ATOM     14  C   UNL     1      35.319 -17.150 -22.652  0.00  0.00    +0.015 C 
ATOM     15  C   UNL     1      34.715 -18.888 -24.218  0.00  0.00    +0.015 C 
ATOM     16  C   UNL     1      34.969 -16.181 -23.593  0.00  0.00    +0.001 C 
ATOM     17  C   UNL     1      34.365 -17.919 -25.159  0.00  0.00    +0.001 C 
ATOM     18  C   UNL     1      34.492 -16.566 -24.846  0.00  0.00    +0.000 C 
ENDBRANCH   3  13
TORSDOF 2
ENDMDL
MODEL 8
REMARK VINA RESULT:      -8.3      1.644      7.155
REMARK  Name = 7595
REMARK  2 active torsions:
REMARK  status: ('A' for Active; 'I' for Inactive)
REMARK    1  A    between atoms: N_2  and  C_7
REMARK    2  A    between atoms: N_3  and  C_13
REMARK                            x       y       z     vdW  Elec       q    Type
REMARK                         _______ _______ _______ _____ _____    ______ ____
ROOT
ATOM      1  O   UNL     1      35.182 -16.744 -23.865  0.00  0.00    -0.252 OA
ATOM      2  N   UNL     1      34.016 -17.056 -21.857  0.00  0.00    -0.268 N 
ATOM      3  N   UNL     1      33.515 -15.245 -23.200  0.00  0.00    -0.268 N 
ATOM      4  C   UNL     1      34.327 -16.382 -23.063  0.00  0.00    +0.308 C 
ATOM      5  H   UNL     1      33.305 -16.649 -21.312  0.00  0.00    +0.156 HD
ATOM      6  H   UNL     1      32.872 -15.084 -22.472  0.00  0.00    +0.156 HD
ENDROOT
BRANCH   2   7
ATOM      7  C   UNL     1      34.584 -18.222 -21.340  0.00  0.00    +0.052 C 
ATOM      8  C   UNL     1      35.968 -18.320 -21.200  0.00  0.00    +0.015 C 
ATOM      9  C   UNL     1      33.766 -19.288 -20.963  0.00  0.00    +0.015 C 
ATOM     10  C   UNL     1      36.535 -19.486 -20.684  0.00  0.00    +0.001 C 
ATOM     11  C   UNL     1      34.334 -20.452 -20.446  0.00  0.00    +0.001 C 
ATOM     12  C   UNL     1      35.718 -20.552 -20.306  0.00  0.00    +0.000 C 
ENDBRANCH   2   7
BRANCH   3  13
ATOM     13  C   UNL     1      33.506 -14.303 -24.255  0.00  0.00    +0.052 C 
ATOM     14  C   UNL     1      33.872 -12.992 -23.997  0.00  0.00    +0.015 C 
ATOM     15  C   UNL     1      33.131 -14.711 -25.525  0.00  0.00    +0.015 C 
ATOM     16  C   UNL     1      33.864 -12.063 -25.038  0.00  0.00    +0.001 C 
ATOM     17  C   UNL     1      33.122 -13.782 -26.565  0.00  0.00    +0.001 C 
ATOM     18  C   UNL     1      33.488 -12.459 -26.322  0.00  0.00    +0.000 C 
ENDBRANCH   3  13
TORSDOF 2
ENDMDL
MODEL 9
REMARK VINA RESULT:      -8.2      4.127      8.839
REMARK  Name = 7595
REMARK  2 active torsions:
REMARK  status: ('A' for Active; 'I' for Inactive)
REMARK    1  A    between atoms: N_2  and  C_7
REMARK    2  A    between atoms: N_3  and  C_13
REMARK                            x       y       z     vdW  Elec       q    Type
REMARK                         _______ _______ _______ _____ _____    ______ ____
ROOT
ATOM      1  O   UNL     1      34.279 -11.511 -25.200  0.00  0.00    -0.252 OA
ATOM      2  N   UNL     1      33.392 -12.914 -23.546  0.00  0.00    -0.268 N 
ATOM      3  N   UNL     1      33.136 -10.625 -23.362  0.00  0.00    -0.268 N 
ATOM      4  C   UNL     1      33.667 -11.661 -24.147  0.00  0.00    +0.308 C 
ATOM      5  H   UNL     1      32.889 -12.880 -22.701  0.00  0.00    +0.156 HD
ATOM      6  H   UNL     1      32.668 -10.902 -22.542  0.00  0.00    +0.156 HD
ENDROOT
BRANCH   2   7
ATOM      7  C   UNL     1      33.739 -14.189 -23.994  0.00  0.00    +0.052 C 
ATOM      8  C   UNL     1      33.251 -14.656 -25.214  0.00  0.00    +0.015 C 
ATOM      9  C   UNL     1      34.574 -14.996 -23.221  0.00  0.00    +0.015 C 
ATOM     10  C   UNL     1      33.597 -15.931 -25.660  0.00  0.00    +0.001 C 
ATOM     11  C   UNL     1      34.921 -16.270 -23.669  0.00  0.00    +0.001 C 
ATOM     12  C   UNL     1      34.433 -16.739 -24.889  0.00  0.00    +0.000 C 
ENDBRANCH   2   7
BRANCH   3  13
ATOM     13  C   UNL     1      33.189  -9.233 -23.605  0.00  0.00    +0.052 C 
ATOM     14  C   UNL     1      32.008  -8.518 -23.717  0.00  0.00    +0.015 C 
ATOM     15  C   UNL     1      34.422  -8.613 -23.727  0.00  0.00    +0.015 C 
ATOM     16  C   UNL     1      32.061  -7.144 -23.957  0.00  0.00    +0.001 C 
ATOM     17  C   UNL     1      34.475  -7.239 -23.967  0.00  0.00    +0.001 C 
ATOM     18  C   UNL     1      33.295  -6.506 -24.082  0.00  0.00    +0.000 C 
ENDBRANCH   3  13
TORSDOF 2
ENDMDL
