MODEL 1
REMARK VINA RESULT:     -11.3      0.000      0.000
REMARK  Name = 1944
REMARK  8 active torsions:
REMARK  status: ('A' for Active; 'I' for Inactive)
REMARK    1  A    between atoms: C_1  and  S_21
REMARK    2  A    between atoms: C_4  and  N_10
REMARK    3  A    between atoms: C_11  and  C_13
REMARK    4  A    between atoms: C_13  and  C_14
REMARK    5  A    between atoms: S_21  and  N_24
REMARK    6  A    between atoms: N_24  and  C_26
REMARK    7  A    between atoms: C_26  and  C_28
REMARK    8  A    between atoms: C_28  and  O_29
REMARK                            x       y       z     vdW  Elec       q    Type
REMARK                         _______ _______ _______ _____ _____    ______ ____
ROOT
ATOM      1  C   UNL     1      35.126 -22.807 -16.748  0.00  0.00    +0.114 C 
ATOM      2  C   UNL     1      34.028 -22.741 -17.605  0.00  0.00    -0.002 C 
ATOM      3  C   UNL     1      36.330 -22.201 -17.109  0.00  0.00    -0.002 C 
ATOM      4  C   UNL     1      35.335 -21.475 -19.167  0.00  0.00    +0.050 C 
ATOM      5  C   UNL     1      34.134 -22.070 -18.823  0.00  0.00    +0.012 C 
ATOM      6  C   UNL     1      36.436 -21.530 -18.326  0.00  0.00    +0.012 C 
ATOM      7  C   UNL     1      32.722 -23.377 -17.251  0.00  0.00    +0.032 C 
ATOM      8  C   UNL     1      37.528 -22.252 -16.217  0.00  0.00    +0.032 C 
ENDROOT
BRANCH   4  10
ATOM      9  O   UNL     1      33.353 -19.743 -20.608  0.00  0.00    -0.274 OA
ATOM     10  N   UNL     1      35.443 -20.793 -20.402  0.00  0.00    -0.284 N 
ATOM     11  C   UNL     1      34.479 -19.999 -21.021  0.00  0.00    +0.231 C 
ATOM     12  H   UNL     1      36.297 -20.891 -20.881  0.00  0.00    +0.155 HD
BRANCH  11  13
ATOM     13  C   UNL     1      34.998 -19.447 -22.345  0.00  0.00    +0.111 C 
BRANCH  13  14
ATOM     14  C   UNL     1      34.844 -17.968 -22.485  0.00  0.00    -0.017 C 
ATOM     15  C   UNL     1      34.655 -17.380 -23.736  0.00  0.00    -0.025 C 
ATOM     16  C   UNL     1      34.894 -17.172 -21.340  0.00  0.00    -0.004 C 
ATOM     17  C   UNL     1      34.517 -15.997 -23.843  0.00  0.00    -0.005 C 
ATOM     18  C   UNL     1      34.598 -18.214 -24.975  0.00  0.00    +0.031 C 
ATOM     19  C   UNL     1      34.755 -15.788 -21.448  0.00  0.00    -0.000 C 
ATOM     20  C   UNL     1      34.567 -15.201 -22.699  0.00  0.00    -0.000 C 
ENDBRANCH  13  14
ENDBRANCH  11  13
ENDBRANCH   4  10
BRANCH   1  21
ATOM     21  S   UNL     1      34.994 -23.652 -15.215  0.00  0.00    +0.060 S 
ATOM     22  O   UNL     1      35.806 -22.952 -14.232  0.00  0.00    -0.153 OA
ATOM     23  O   UNL     1      33.579 -23.868 -14.957  0.00  0.00    -0.153 OA
BRANCH  21  24
ATOM     24  N   UNL     1      35.726 -25.153 -15.568  0.00  0.00    -0.168 NA
ATOM     25  H   UNL     1      36.366 -24.993 -16.346  0.00  0.00    +0.149 HD
BRANCH  24  26
ATOM     26  C   UNL     1      36.489 -25.861 -14.530  0.00  0.00    +0.200 C 
BRANCH  26  28
ATOM     27  O   UNL     1      38.476 -27.238 -14.791  0.00  0.00    -0.249 OA
ATOM     28  C   UNL     1      37.386 -26.862 -15.193  0.00  0.00    +0.332 C 
BRANCH  28  29
ATOM     29  O   UNL     1      36.811 -27.311 -16.339  0.00  0.00    -0.479 OA
ATOM     30  H   UNL     1      35.913 -27.578 -16.339  0.00  0.00    +0.295 HD
ENDBRANCH  28  29
ENDBRANCH  26  28
ENDBRANCH  24  26
ENDBRANCH  21  24
ENDBRANCH   1  21
TORSDOF 8
ENDMDL
MODEL 2
REMARK VINA RESULT:     -11.3      0.040      1.658
REMARK  Name = 1944
REMARK  8 active torsions:
REMARK  status: ('A' for Active; 'I' for Inactive)
REMARK    1  A    between atoms: C_1  and  S_21
REMARK    2  A    between atoms: C_4  and  N_10
REMARK    3  A    between atoms: C_11  and  C_13
REMARK    4  A    between atoms: C_13  and  C_14
REMARK    5  A    between atoms: S_21  and  N_24
REMARK    6  A    between atoms: N_24  and  C_26
REMARK    7  A    between atoms: C_26  and  C_28
REMARK    8  A    between atoms: C_28  and  O_29
REMARK                            x       y       z     vdW  Elec       q    Type
REMARK                         _______ _______ _______ _____ _____    ______ ____
ROOT
ATOM      1  C   UNL     1      35.099 -22.816 -16.723  0.00  0.00    +0.114 C 
ATOM      2  C   UNL     1      36.308 -22.219 -17.083  0.00  0.00    -0.002 C 
ATOM      3  C   UNL     1      34.001 -22.740 -17.579  0.00  0.00    -0.002 C 
ATOM      4  C   UNL     1      35.317 -21.479 -19.138  0.00  0.00    +0.050 C 
ATOM      5  C   UNL     1      36.416 -21.546 -18.300  0.00  0.00    +0.012 C 
ATOM      6  C   UNL     1      34.110 -22.067 -18.795  0.00  0.00    +0.012 C 
ATOM      7  C   UNL     1      37.505 -22.281 -16.192  0.00  0.00    +0.032 C 
ATOM      8  C   UNL     1      32.691 -23.366 -17.226  0.00  0.00    +0.032 C 
ENDROOT
BRANCH   4  10
ATOM      9  O   UNL     1      33.325 -19.775 -20.598  0.00  0.00    -0.274 OA
ATOM     10  N   UNL     1      35.427 -20.797 -20.373  0.00  0.00    -0.284 N 
ATOM     11  C   UNL     1      34.458 -20.016 -21.000  0.00  0.00    +0.231 C 
ATOM     12  H   UNL     1      36.286 -20.883 -20.844  0.00  0.00    +0.155 HD
BRANCH  11  13
ATOM     13  C   UNL     1      34.981 -19.458 -22.321  0.00  0.00    +0.111 C 
BRANCH  13  14
ATOM     14  C   UNL     1      34.833 -17.977 -22.451  0.00  0.00    -0.017 C 
ATOM     15  C   UNL     1      34.653 -17.380 -23.699  0.00  0.00    -0.025 C 
ATOM     16  C   UNL     1      34.880 -17.189 -21.301  0.00  0.00    -0.004 C 
ATOM     17  C   UNL     1      34.519 -15.995 -23.797  0.00  0.00    -0.005 C 
ATOM     18  C   UNL     1      34.599 -18.205 -24.944  0.00  0.00    +0.031 C 
ATOM     19  C   UNL     1      34.746 -15.804 -21.400  0.00  0.00    -0.000 C 
ATOM     20  C   UNL     1      34.567 -15.207 -22.648  0.00  0.00    -0.000 C 
ENDBRANCH  13  14
ENDBRANCH  11  13
ENDBRANCH   4  10
BRANCH   1  21
ATOM     21  S   UNL     1      34.961 -23.663 -15.191  0.00  0.00    +0.060 S 
ATOM     22  O   UNL     1      35.759 -22.957 -14.201  0.00  0.00    -0.153 OA
ATOM     23  O   UNL     1      33.546 -23.891 -14.946  0.00  0.00    -0.153 OA
BRANCH  21  24
ATOM     24  N   UNL     1      35.709 -25.158 -15.539  0.00  0.00    -0.168 NA
ATOM     25  H   UNL     1      36.334 -24.998 -16.330  0.00  0.00    +0.149 HD
BRANCH  24  26
ATOM     26  C   UNL     1      36.499 -25.842 -14.506  0.00  0.00    +0.200 C 
BRANCH  26  28
ATOM     27  O   UNL     1      38.495 -27.205 -14.777  0.00  0.00    -0.249 OA
ATOM     28  C   UNL     1      37.398 -26.839 -15.172  0.00  0.00    +0.332 C 
BRANCH  28  29
ATOM     29  O   UNL     1      36.817 -27.298 -16.310  0.00  0.00    -0.479 OA
ATOM     30  H   UNL     1      37.319 -27.797 -16.925  0.00  0.00    +0.295 HD
ENDBRANCH  28  29
ENDBRANCH  26  28
ENDBRANCH  24  26
ENDBRANCH  21  24
ENDBRANCH   1  21
TORSDOF 8
ENDMDL
MODEL 3
REMARK VINA RESULT:     -11.1      1.486      2.639
REMARK  Name = 1944
REMARK  8 active torsions:
REMARK  status: ('A' for Active; 'I' for Inactive)
REMARK    1  A    between atoms: C_1  and  S_21
REMARK    2  A    between atoms: C_4  and  N_10
REMARK    3  A    between atoms: C_11  and  C_13
REMARK    4  A    between atoms: C_13  and  C_14
REMARK    5  A    between atoms: S_21  and  N_24
REMARK    6  A    between atoms: N_24  and  C_26
REMARK    7  A    between atoms: C_26  and  C_28
REMARK    8  A    between atoms: C_28  and  O_29
REMARK                            x       y       z     vdW  Elec       q    Type
REMARK                         _______ _______ _______ _____ _____    ______ ____
ROOT
ATOM      1  C   UNL     1      35.175 -22.949 -16.781  0.00  0.00    +0.114 C 
ATOM      2  C   UNL     1      36.398 -22.342 -17.070  0.00  0.00    -0.002 C 
ATOM      3  C   UNL     1      34.094 -22.788 -17.648  0.00  0.00    -0.002 C 
ATOM      4  C   UNL     1      35.456 -21.424 -19.075  0.00  0.00    +0.050 C 
ATOM      5  C   UNL     1      36.538 -21.574 -18.225  0.00  0.00    +0.012 C 
ATOM      6  C   UNL     1      34.235 -22.020 -18.803  0.00  0.00    +0.012 C 
ATOM      7  C   UNL     1      37.577 -22.493 -16.165  0.00  0.00    +0.032 C 
ATOM      8  C   UNL     1      32.770 -23.421 -17.370  0.00  0.00    +0.032 C 
ENDROOT
BRANCH   4  10
ATOM      9  O   UNL     1      33.417 -19.866 -20.630  0.00  0.00    -0.274 OA
ATOM     10  N   UNL     1      35.599 -20.646 -20.249  0.00  0.00    -0.284 N 
ATOM     11  C   UNL     1      34.605 -19.941 -20.925  0.00  0.00    +0.231 C 
ATOM     12  H   UNL     1      36.504 -20.595 -20.631  0.00  0.00    +0.155 HD
BRANCH  11  13
ATOM     13  C   UNL     1      35.179 -19.231 -22.148  0.00  0.00    +0.111 C 
BRANCH  13  14
ATOM     14  C   UNL     1      34.934 -17.758 -22.160  0.00  0.00    -0.017 C 
ATOM     15  C   UNL     1      34.742 -17.071 -23.360  0.00  0.00    -0.025 C 
ATOM     16  C   UNL     1      34.901 -17.067 -20.948  0.00  0.00    -0.004 C 
ATOM     17  C   UNL     1      34.516 -15.695 -23.347  0.00  0.00    -0.005 C 
ATOM     18  C   UNL     1      34.773 -17.790 -24.669  0.00  0.00    +0.031 C 
ATOM     19  C   UNL     1      34.675 -15.690 -20.937  0.00  0.00    -0.000 C 
ATOM     20  C   UNL     1      34.484 -15.005 -22.136  0.00  0.00    -0.000 C 
ENDBRANCH  13  14
ENDBRANCH  11  13
ENDBRANCH   4  10
BRANCH   1  21
ATOM     21  S   UNL     1      34.996 -23.915 -15.326  0.00  0.00    +0.060 S 
ATOM     22  O   UNL     1      33.577 -24.096 -15.065  0.00  0.00    -0.153 OA
ATOM     23  O   UNL     1      35.857 -25.079 -15.468  0.00  0.00    -0.153 OA
BRANCH  21  24
ATOM     24  N   UNL     1      35.651 -22.888 -14.130  0.00  0.00    -0.168 NA
ATOM     25  H   UNL     1      34.867 -22.385 -13.712  0.00  0.00    +0.149 HD
BRANCH  24  26
ATOM     26  C   UNL     1      36.431 -23.455 -13.021  0.00  0.00    +0.200 C 
BRANCH  26  28
ATOM     27  O   UNL     1      35.753 -25.135 -11.399  0.00  0.00    -0.249 OA
ATOM     28  C   UNL     1      35.495 -24.158 -12.086  0.00  0.00    +0.332 C 
BRANCH  28  29
ATOM     29  O   UNL     1      34.280 -23.551 -12.103  0.00  0.00    -0.479 OA
ATOM     30  H   UNL     1      33.500 -24.064 -12.183  0.00  0.00    +0.295 HD
ENDBRANCH  28  29
ENDBRANCH  26  28
ENDBRANCH  24  26
ENDBRANCH  21  24
ENDBRANCH   1  21
TORSDOF 8
ENDMDL
MODEL 4
REMARK VINA RESULT:     -11.1      1.488      2.062
REMARK  Name = 1944
REMARK  8 active torsions:
REMARK  status: ('A' for Active; 'I' for Inactive)
REMARK    1  A    between atoms: C_1  and  S_21
REMARK    2  A    between atoms: C_4  and  N_10
REMARK    3  A    between atoms: C_11  and  C_13
REMARK    4  A    between atoms: C_13  and  C_14
REMARK    5  A    between atoms: S_21  and  N_24
REMARK    6  A    between atoms: N_24  and  C_26
REMARK    7  A    between atoms: C_26  and  C_28
REMARK    8  A    between atoms: C_28  and  O_29
REMARK                            x       y       z     vdW  Elec       q    Type
REMARK                         _______ _______ _______ _____ _____    ______ ____
ROOT
ATOM      1  C   UNL     1      35.135 -22.951 -16.788  0.00  0.00    +0.114 C 
ATOM      2  C   UNL     1      34.054 -22.789 -17.655  0.00  0.00    -0.002 C 
ATOM      3  C   UNL     1      36.358 -22.347 -17.077  0.00  0.00    -0.002 C 
ATOM      4  C   UNL     1      35.418 -21.429 -19.084  0.00  0.00    +0.050 C 
ATOM      5  C   UNL     1      34.198 -22.022 -18.811  0.00  0.00    +0.012 C 
ATOM      6  C   UNL     1      36.502 -21.580 -18.233  0.00  0.00    +0.012 C 
ATOM      7  C   UNL     1      32.728 -23.420 -17.377  0.00  0.00    +0.032 C 
ATOM      8  C   UNL     1      37.538 -22.499 -16.173  0.00  0.00    +0.032 C 
ENDROOT
BRANCH   4  10
ATOM      9  O   UNL     1      33.386 -19.862 -20.639  0.00  0.00    -0.274 OA
ATOM     10  N   UNL     1      35.564 -20.651 -20.257  0.00  0.00    -0.284 N 
ATOM     11  C   UNL     1      34.574 -19.942 -20.934  0.00  0.00    +0.231 C 
ATOM     12  H   UNL     1      36.469 -20.604 -20.639  0.00  0.00    +0.155 HD
BRANCH  11  13
ATOM     13  C   UNL     1      35.151 -19.233 -22.156  0.00  0.00    +0.111 C 
BRANCH  13  14
ATOM     14  C   UNL     1      34.921 -17.758 -22.163  0.00  0.00    -0.017 C 
ATOM     15  C   UNL     1      34.738 -17.065 -23.360  0.00  0.00    -0.025 C 
ATOM     16  C   UNL     1      34.892 -17.072 -20.948  0.00  0.00    -0.004 C 
ATOM     17  C   UNL     1      34.526 -15.686 -23.343  0.00  0.00    -0.005 C 
ATOM     18  C   UNL     1      34.765 -17.779 -24.672  0.00  0.00    +0.031 C 
ATOM     19  C   UNL     1      34.680 -15.693 -20.932  0.00  0.00    -0.000 C 
ATOM     20  C   UNL     1      34.498 -15.001 -22.129  0.00  0.00    -0.000 C 
ENDBRANCH  13  14
ENDBRANCH  11  13
ENDBRANCH   4  10
BRANCH   1  21
ATOM     21  S   UNL     1      34.955 -23.916 -15.332  0.00  0.00    +0.060 S 
ATOM     22  O   UNL     1      33.536 -24.093 -15.070  0.00  0.00    -0.153 OA
ATOM     23  O   UNL     1      35.812 -25.083 -15.475  0.00  0.00    -0.153 OA
BRANCH  21  24
ATOM     24  N   UNL     1      35.614 -22.891 -14.137  0.00  0.00    -0.168 NA
ATOM     25  H   UNL     1      34.831 -22.390 -13.714  0.00  0.00    +0.149 HD
BRANCH  24  26
ATOM     26  C   UNL     1      36.400 -23.458 -13.033  0.00  0.00    +0.200 C 
BRANCH  26  28
ATOM     27  O   UNL     1      35.730 -25.085 -11.355  0.00  0.00    -0.249 OA
ATOM     28  C   UNL     1      35.466 -24.136 -12.078  0.00  0.00    +0.332 C 
BRANCH  28  29
ATOM     29  O   UNL     1      34.247 -23.539 -12.121  0.00  0.00    -0.479 OA
ATOM     30  H   UNL     1      33.729 -23.475 -11.343  0.00  0.00    +0.295 HD
ENDBRANCH  28  29
ENDBRANCH  26  28
ENDBRANCH  24  26
ENDBRANCH  21  24
ENDBRANCH   1  21
TORSDOF 8
ENDMDL
MODEL 5
REMARK VINA RESULT:     -10.6      6.653     12.181
REMARK  Name = 1944
REMARK  8 active torsions:
REMARK  status: ('A' for Active; 'I' for Inactive)
REMARK    1  A    between atoms: C_1  and  S_21
REMARK    2  A    between atoms: C_4  and  N_10
REMARK    3  A    between atoms: C_11  and  C_13
REMARK    4  A    between atoms: C_13  and  C_14
REMARK    5  A    between atoms: S_21  and  N_24
REMARK    6  A    between atoms: N_24  and  C_26
REMARK    7  A    between atoms: C_26  and  C_28
REMARK    8  A    between atoms: C_28  and  O_29
REMARK                            x       y       z     vdW  Elec       q    Type
REMARK                         _______ _______ _______ _____ _____    ______ ____
ROOT
ATOM      1  C   UNL     1      32.677 -11.960 -22.685  0.00  0.00    +0.114 C 
ATOM      2  C   UNL     1      33.481 -12.376 -23.747  0.00  0.00    -0.002 C 
ATOM      3  C   UNL     1      32.388 -12.840 -21.642  0.00  0.00    -0.002 C 
ATOM      4  C   UNL     1      33.700 -14.533 -22.723  0.00  0.00    +0.050 C 
ATOM      5  C   UNL     1      33.996 -13.672 -23.765  0.00  0.00    +0.012 C 
ATOM      6  C   UNL     1      32.903 -14.136 -21.661  0.00  0.00    +0.012 C 
ATOM      7  C   UNL     1      33.813 -11.460 -24.880  0.00  0.00    +0.032 C 
ATOM      8  C   UNL     1      31.530 -12.431 -20.490  0.00  0.00    +0.032 C 
ENDROOT
BRANCH   4  10
ATOM      9  O   UNL     1      35.005 -16.133 -20.545  0.00  0.00    -0.274 OA
ATOM     10  N   UNL     1      34.222 -15.849 -22.741  0.00  0.00    -0.284 N 
ATOM     11  C   UNL     1      34.819 -16.539 -21.688  0.00  0.00    +0.231 C 
ATOM     12  H   UNL     1      34.156 -16.332 -23.595  0.00  0.00    +0.155 HD
BRANCH  11  13
ATOM     13  C   UNL     1      35.245 -17.937 -22.127  0.00  0.00    +0.111 C 
BRANCH  13  14
ATOM     14  C   UNL     1      34.676 -19.033 -21.288  0.00  0.00    -0.017 C 
ATOM     15  C   UNL     1      35.509 -19.906 -20.585  0.00  0.00    -0.025 C 
ATOM     16  C   UNL     1      33.291 -19.179 -21.213  0.00  0.00    -0.004 C 
ATOM     17  C   UNL     1      34.955 -20.924 -19.809  0.00  0.00    -0.005 C 
ATOM     18  C   UNL     1      36.995 -19.768 -20.649  0.00  0.00    +0.031 C 
ATOM     19  C   UNL     1      32.738 -20.197 -20.437  0.00  0.00    -0.000 C 
ATOM     20  C   UNL     1      33.570 -21.070 -19.735  0.00  0.00    -0.000 C 
ENDBRANCH  13  14
ENDBRANCH  11  13
ENDBRANCH   4  10
BRANCH   1  21
ATOM     21  S   UNL     1      32.029 -10.329 -22.661  0.00  0.00    +0.060 S 
ATOM     22  O   UNL     1      32.569  -9.602 -23.799  0.00  0.00    -0.153 OA
ATOM     23  O   UNL     1      30.588 -10.435 -22.493  0.00  0.00    -0.153 OA
BRANCH  21  24
ATOM     24  N   UNL     1      32.706  -9.694 -21.229  0.00  0.00    -0.168 NA
ATOM     25  H   UNL     1      33.523  -9.149 -21.505  0.00  0.00    +0.149 HD
BRANCH  24  26
ATOM     26  C   UNL     1      31.899  -8.832 -20.353  0.00  0.00    +0.200 C 
BRANCH  26  28
ATOM     27  O   UNL     1      32.150  -6.664 -21.427  0.00  0.00    -0.249 OA
ATOM     28  C   UNL     1      32.380  -7.420 -20.495  0.00  0.00    +0.332 C 
BRANCH  28  29
ATOM     29  O   UNL     1      33.132  -7.077 -19.416  0.00  0.00    -0.479 OA
ATOM     30  H   UNL     1      33.038  -6.228 -19.031  0.00  0.00    +0.295 HD
ENDBRANCH  28  29
ENDBRANCH  26  28
ENDBRANCH  24  26
ENDBRANCH  21  24
ENDBRANCH   1  21
TORSDOF 8
ENDMDL
MODEL 6
REMARK VINA RESULT:     -10.6      1.720      2.848
REMARK  Name = 1944
REMARK  8 active torsions:
REMARK  status: ('A' for Active; 'I' for Inactive)
REMARK    1  A    between atoms: C_1  and  S_21
REMARK    2  A    between atoms: C_4  and  N_10
REMARK    3  A    between atoms: C_11  and  C_13
REMARK    4  A    between atoms: C_13  and  C_14
REMARK    5  A    between atoms: S_21  and  N_24
REMARK    6  A    between atoms: N_24  and  C_26
REMARK    7  A    between atoms: C_26  and  C_28
REMARK    8  A    between atoms: C_28  and  O_29
REMARK                            x       y       z     vdW  Elec       q    Type
REMARK                         _______ _______ _______ _____ _____    ______ ____
ROOT
ATOM      1  C   UNL     1      35.320 -22.715 -16.889  0.00  0.00    +0.114 C 
ATOM      2  C   UNL     1      34.216 -22.732 -17.742  0.00  0.00    -0.002 C 
ATOM      3  C   UNL     1      36.466 -22.004 -17.246  0.00  0.00    -0.002 C 
ATOM      4  C   UNL     1      35.403 -21.339 -19.292  0.00  0.00    +0.050 C 
ATOM      5  C   UNL     1      34.259 -22.040 -18.952  0.00  0.00    +0.012 C 
ATOM      6  C   UNL     1      36.509 -21.311 -18.456  0.00  0.00    +0.012 C 
ATOM      7  C   UNL     1      32.971 -23.481 -17.393  0.00  0.00    +0.032 C 
ATOM      8  C   UNL     1      37.667 -21.963 -16.359  0.00  0.00    +0.032 C 
ENDROOT
BRANCH   4  10
ATOM      9  O   UNL     1      33.291 -19.720 -20.677  0.00  0.00    -0.274 OA
ATOM     10  N   UNL     1      35.448 -20.636 -20.519  0.00  0.00    -0.284 N 
ATOM     11  C   UNL     1      34.425 -19.897 -21.111  0.00  0.00    +0.231 C 
ATOM     12  H   UNL     1      36.298 -20.671 -21.011  0.00  0.00    +0.155 HD
BRANCH  11  13
ATOM     13  C   UNL     1      34.885 -19.295 -22.435  0.00  0.00    +0.111 C 
BRANCH  13  14
ATOM     14  C   UNL     1      34.775 -17.807 -22.493  0.00  0.00    -0.017 C 
ATOM     15  C   UNL     1      34.646 -17.143 -23.713  0.00  0.00    -0.025 C 
ATOM     16  C   UNL     1      34.804 -17.080 -21.303  0.00  0.00    -0.004 C 
ATOM     17  C   UNL     1      34.546 -15.752 -23.744  0.00  0.00    -0.005 C 
ATOM     18  C   UNL     1      34.612 -17.902 -25.000  0.00  0.00    +0.031 C 
ATOM     19  C   UNL     1      34.704 -15.688 -21.334  0.00  0.00    -0.000 C 
ATOM     20  C   UNL     1      34.576 -15.025 -22.554  0.00  0.00    -0.000 C 
ENDBRANCH  13  14
ENDBRANCH  11  13
ENDBRANCH   4  10
BRANCH   1  21
ATOM     21  S   UNL     1      35.267 -23.587 -15.367  0.00  0.00    +0.060 S 
ATOM     22  O   UNL     1      35.210 -25.011 -15.654  0.00  0.00    -0.153 OA
ATOM     23  O   UNL     1      36.334 -23.064 -14.528  0.00  0.00    -0.153 OA
BRANCH  21  24
ATOM     24  N   UNL     1      33.765 -23.093 -14.722  0.00  0.00    -0.168 NA
ATOM     25  H   UNL     1      33.164 -22.865 -15.515  0.00  0.00    +0.149 HD
BRANCH  24  26
ATOM     26  C   UNL     1      33.001 -24.003 -13.857  0.00  0.00    +0.200 C 
BRANCH  26  28
ATOM     27  O   UNL     1      30.882 -23.694 -12.705  0.00  0.00    -0.249 OA
ATOM     28  C   UNL     1      31.647 -23.410 -13.615  0.00  0.00    +0.332 C 
BRANCH  28  29
ATOM     29  O   UNL     1      31.368 -22.484 -14.570  0.00  0.00    -0.479 OA
ATOM     30  H   UNL     1      32.054 -22.156 -15.117  0.00  0.00    +0.295 HD
ENDBRANCH  28  29
ENDBRANCH  26  28
ENDBRANCH  24  26
ENDBRANCH  21  24
ENDBRANCH   1  21
TORSDOF 8
ENDMDL
MODEL 7
REMARK VINA RESULT:     -10.6      6.687     12.186
REMARK  Name = 1944
REMARK  8 active torsions:
REMARK  status: ('A' for Active; 'I' for Inactive)
REMARK    1  A    between atoms: C_1  and  S_21
REMARK    2  A    between atoms: C_4  and  N_10
REMARK    3  A    between atoms: C_11  and  C_13
REMARK    4  A    between atoms: C_13  and  C_14
REMARK    5  A    between atoms: S_21  and  N_24
REMARK    6  A    between atoms: N_24  and  C_26
REMARK    7  A    between atoms: C_26  and  C_28
REMARK    8  A    between atoms: C_28  and  O_29
REMARK                            x       y       z     vdW  Elec       q    Type
REMARK                         _______ _______ _______ _____ _____    ______ ____
ROOT
ATOM      1  C   UNL     1      32.643 -11.924 -22.745  0.00  0.00    +0.114 C 
ATOM      2  C   UNL     1      32.346 -12.799 -21.700  0.00  0.00    -0.002 C 
ATOM      3  C   UNL     1      33.480 -12.334 -23.782  0.00  0.00    -0.002 C 
ATOM      4  C   UNL     1      33.717 -14.476 -22.729  0.00  0.00    +0.050 C 
ATOM      5  C   UNL     1      32.888 -14.084 -21.692  0.00  0.00    +0.012 C 
ATOM      6  C   UNL     1      34.022 -13.619 -23.775  0.00  0.00    +0.012 C 
ATOM      7  C   UNL     1      31.452 -12.394 -20.573  0.00  0.00    +0.032 C 
ATOM      8  C   UNL     1      33.821 -11.425 -24.918  0.00  0.00    +0.032 C 
ENDROOT
BRANCH   4  10
ATOM      9  O   UNL     1      34.984 -16.036 -20.500  0.00  0.00    -0.274 OA
ATOM     10  N   UNL     1      34.267 -15.780 -22.722  0.00  0.00    -0.284 N 
ATOM     11  C   UNL     1      34.843 -16.452 -21.646  0.00  0.00    +0.231 C 
ATOM     12  H   UNL     1      34.239 -16.270 -23.574  0.00  0.00    +0.155 HD
BRANCH  11  13
ATOM     13  C   UNL     1      35.313 -17.843 -22.062  0.00  0.00    +0.111 C 
BRANCH  13  14
ATOM     14  C   UNL     1      34.707 -18.949 -21.262  0.00  0.00    -0.017 C 
ATOM     15  C   UNL     1      35.509 -19.870 -20.587  0.00  0.00    -0.025 C 
ATOM     16  C   UNL     1      33.318 -19.055 -21.198  0.00  0.00    -0.004 C 
ATOM     17  C   UNL     1      34.921 -20.897 -19.848  0.00  0.00    -0.005 C 
ATOM     18  C   UNL     1      36.999 -19.776 -20.642  0.00  0.00    +0.031 C 
ATOM     19  C   UNL     1      32.730 -20.081 -20.458  0.00  0.00    -0.000 C 
ATOM     20  C   UNL     1      33.532 -21.003 -19.784  0.00  0.00    -0.000 C 
ENDBRANCH  13  14
ENDBRANCH  11  13
ENDBRANCH   4  10
BRANCH   1  21
ATOM     21  S   UNL     1      31.962 -10.306 -22.756  0.00  0.00    +0.060 S 
ATOM     22  O   UNL     1      32.382  -9.638 -23.977  0.00  0.00    -0.153 OA
ATOM     23  O   UNL     1      30.545 -10.428 -22.452  0.00  0.00    -0.153 OA
BRANCH  21  24
ATOM     24  N   UNL     1      32.749  -9.576 -21.429  0.00  0.00    -0.168 NA
ATOM     25  H   UNL     1      33.428  -8.918 -21.814  0.00  0.00    +0.149 HD
BRANCH  24  26
ATOM     26  C   UNL     1      31.968  -8.840 -20.425  0.00  0.00    +0.200 C 
BRANCH  26  28
ATOM     27  O   UNL     1      32.020  -6.592 -21.352  0.00  0.00    -0.249 OA
ATOM     28  C   UNL     1      32.349  -7.392 -20.488  0.00  0.00    +0.332 C 
BRANCH  28  29
ATOM     29  O   UNL     1      33.134  -7.072 -19.427  0.00  0.00    -0.479 OA
ATOM     30  H   UNL     1      32.808  -6.502 -18.758  0.00  0.00    +0.295 HD
ENDBRANCH  28  29
ENDBRANCH  26  28
ENDBRANCH  24  26
ENDBRANCH  21  24
ENDBRANCH   1  21
TORSDOF 8
ENDMDL
MODEL 8
REMARK VINA RESULT:     -10.6      1.695      3.127
REMARK  Name = 1944
REMARK  8 active torsions:
REMARK  status: ('A' for Active; 'I' for Inactive)
REMARK    1  A    between atoms: C_1  and  S_21
REMARK    2  A    between atoms: C_4  and  N_10
REMARK    3  A    between atoms: C_11  and  C_13
REMARK    4  A    between atoms: C_13  and  C_14
REMARK    5  A    between atoms: S_21  and  N_24
REMARK    6  A    between atoms: N_24  and  C_26
REMARK    7  A    between atoms: C_26  and  C_28
REMARK    8  A    between atoms: C_28  and  O_29
REMARK                            x       y       z     vdW  Elec       q    Type
REMARK                         _______ _______ _______ _____ _____    ______ ____
ROOT
ATOM      1  C   UNL     1      35.328 -22.752 -16.854  0.00  0.00    +0.114 C 
ATOM      2  C   UNL     1      36.499 -22.090 -17.226  0.00  0.00    -0.002 C 
ATOM      3  C   UNL     1      34.213 -22.721 -17.691  0.00  0.00    -0.002 C 
ATOM      4  C   UNL     1      35.437 -21.373 -19.253  0.00  0.00    +0.050 C 
ATOM      5  C   UNL     1      36.553 -21.396 -18.434  0.00  0.00    +0.012 C 
ATOM      6  C   UNL     1      34.267 -22.026 -18.899  0.00  0.00    +0.012 C 
ATOM      7  C   UNL     1      37.713 -22.103 -16.355  0.00  0.00    +0.032 C 
ATOM      8  C   UNL     1      32.943 -23.417 -17.326  0.00  0.00    +0.032 C 
ENDROOT
BRANCH   4  10
ATOM      9  O   UNL     1      33.345 -19.733 -20.644  0.00  0.00    -0.274 OA
ATOM     10  N   UNL     1      35.492 -20.669 -20.480  0.00  0.00    -0.284 N 
ATOM     11  C   UNL     1      34.478 -19.921 -21.074  0.00  0.00    +0.231 C 
ATOM     12  H   UNL     1      36.344 -20.713 -20.970  0.00  0.00    +0.155 HD
BRANCH  11  13
ATOM     13  C   UNL     1      34.949 -19.322 -22.397  0.00  0.00    +0.111 C 
BRANCH  13  14
ATOM     14  C   UNL     1      34.803 -17.838 -22.473  0.00  0.00    -0.017 C 
ATOM     15  C   UNL     1      34.626 -17.196 -23.700  0.00  0.00    -0.025 C 
ATOM     16  C   UNL     1      34.849 -17.092 -21.296  0.00  0.00    -0.004 C 
ATOM     17  C   UNL     1      34.494 -15.808 -23.748  0.00  0.00    -0.005 C 
ATOM     18  C   UNL     1      34.573 -17.975 -24.974  0.00  0.00    +0.031 C 
ATOM     19  C   UNL     1      34.716 -15.704 -21.344  0.00  0.00    -0.000 C 
ATOM     20  C   UNL     1      34.540 -15.062 -22.570  0.00  0.00    -0.000 C 
ENDBRANCH  13  14
ENDBRANCH  11  13
ENDBRANCH   4  10
BRANCH   1  21
ATOM     21  S   UNL     1      35.259 -23.626 -15.333  0.00  0.00    +0.060 S 
ATOM     22  O   UNL     1      35.285 -25.051 -15.620  0.00  0.00    -0.153 OA
ATOM     23  O   UNL     1      36.265 -23.050 -14.454  0.00  0.00    -0.153 OA
BRANCH  21  24
ATOM     24  N   UNL     1      33.711 -23.208 -14.749  0.00  0.00    -0.168 NA
ATOM     25  H   UNL     1      33.059 -23.332 -15.525  0.00  0.00    +0.149 HD
BRANCH  24  26
ATOM     26  C   UNL     1      33.141 -23.924 -13.599  0.00  0.00    +0.200 C 
BRANCH  26  28
ATOM     27  O   UNL     1      31.372 -25.496 -14.159  0.00  0.00    -0.249 OA
ATOM     28  C   UNL     1      31.747 -24.353 -13.944  0.00  0.00    +0.332 C 
BRANCH  28  29
ATOM     29  O   UNL     1      30.927 -23.271 -13.988  0.00  0.00    -0.479 OA
ATOM     30  H   UNL     1      30.734 -22.797 -13.204  0.00  0.00    +0.295 HD
ENDBRANCH  28  29
ENDBRANCH  26  28
ENDBRANCH  24  26
ENDBRANCH  21  24
ENDBRANCH   1  21
TORSDOF 8
ENDMDL
MODEL 9
REMARK VINA RESULT:     -10.4      4.913     10.934
REMARK  Name = 1944
REMARK  8 active torsions:
REMARK  status: ('A' for Active; 'I' for Inactive)
REMARK    1  A    between atoms: C_1  and  S_21
REMARK    2  A    between atoms: C_4  and  N_10
REMARK    3  A    between atoms: C_11  and  C_13
REMARK    4  A    between atoms: C_13  and  C_14
REMARK    5  A    between atoms: S_21  and  N_24
REMARK    6  A    between atoms: N_24  and  C_26
REMARK    7  A    between atoms: C_26  and  C_28
REMARK    8  A    between atoms: C_28  and  O_29
REMARK                            x       y       z     vdW  Elec       q    Type
REMARK                         _______ _______ _______ _____ _____    ______ ____
ROOT
ATOM      1  C   UNL     1      33.696 -15.164 -22.792  0.00  0.00    +0.114 C 
ATOM      2  C   UNL     1      34.375 -16.158 -23.497  0.00  0.00    -0.002 C 
ATOM      3  C   UNL     1      33.618 -15.226 -21.400  0.00  0.00    -0.002 C 
ATOM      4  C   UNL     1      34.888 -17.261 -21.430  0.00  0.00    +0.050 C 
ATOM      5  C   UNL     1      34.974 -17.214 -22.811  0.00  0.00    +0.012 C 
ATOM      6  C   UNL     1      34.217 -16.281 -20.714  0.00  0.00    +0.012 C 
ATOM      7  C   UNL     1      34.480 -16.124 -24.988  0.00  0.00    +0.032 C 
ATOM      8  C   UNL     1      32.899 -14.180 -20.612  0.00  0.00    +0.032 C 
ENDROOT
BRANCH   4  10
ATOM      9  O   UNL     1      34.836 -20.211 -21.976  0.00  0.00    -0.274 OA
ATOM     10  N   UNL     1      35.496 -18.332 -20.733  0.00  0.00    -0.284 N 
ATOM     11  C   UNL     1      35.434 -19.689 -21.041  0.00  0.00    +0.231 C 
ATOM     12  H   UNL     1      36.025 -18.090 -19.939  0.00  0.00    +0.155 HD
BRANCH  11  13
ATOM     13  C   UNL     1      36.232 -20.512 -20.034  0.00  0.00    +0.111 C 
BRANCH  13  14
ATOM     14  C   UNL     1      35.387 -21.374 -19.154  0.00  0.00    -0.017 C 
ATOM     15  C   UNL     1      35.868 -21.842 -17.931  0.00  0.00    -0.025 C 
ATOM     16  C   UNL     1      34.100 -21.712 -19.573  0.00  0.00    -0.004 C 
ATOM     17  C   UNL     1      35.063 -22.647 -17.126  0.00  0.00    -0.005 C 
ATOM     18  C   UNL     1      37.243 -21.492 -17.462  0.00  0.00    +0.031 C 
ATOM     19  C   UNL     1      33.295 -22.518 -18.767  0.00  0.00    -0.000 C 
ATOM     20  C   UNL     1      33.776 -22.986 -17.545  0.00  0.00    -0.000 C 
ENDBRANCH  13  14
ENDBRANCH  11  13
ENDBRANCH   4  10
BRANCH   1  21
ATOM     21  S   UNL     1      32.941 -13.835 -23.655  0.00  0.00    +0.060 S 
ATOM     22  O   UNL     1      32.562 -14.303 -24.978  0.00  0.00    -0.153 OA
ATOM     23  O   UNL     1      31.932 -13.263 -22.777  0.00  0.00    -0.153 OA
BRANCH  21  24
ATOM     24  N   UNL     1      34.231 -12.727 -23.809  0.00  0.00    -0.168 NA
ATOM     25  H   UNL     1      35.062 -13.273 -24.039  0.00  0.00    +0.149 HD
BRANCH  24  26
ATOM     26  C   UNL     1      34.152 -11.639 -24.794  0.00  0.00    +0.200 C 
BRANCH  26  28
ATOM     27  O   UNL     1      33.120  -9.830 -23.539  0.00  0.00    -0.249 OA
ATOM     28  C   UNL     1      34.103 -10.333 -24.062  0.00  0.00    +0.332 C 
BRANCH  28  29
ATOM     29  O   UNL     1      35.335  -9.760 -24.055  0.00  0.00    -0.479 OA
ATOM     30  H   UNL     1      36.011 -10.096 -24.609  0.00  0.00    +0.295 HD
ENDBRANCH  28  29
ENDBRANCH  26  28
ENDBRANCH  24  26
ENDBRANCH  21  24
ENDBRANCH   1  21
TORSDOF 8
ENDMDL
