MODEL 1
REMARK VINA RESULT:      -7.4      0.000      0.000
REMARK  Name = 151243
REMARK  5 active torsions:
REMARK  status: ('A' for Active; 'I' for Inactive)
REMARK    1  A    between atoms: C_1  and  C_4
REMARK    2  A    between atoms: C_1  and  N_7
REMARK    3  A    between atoms: C_1  and  C_11
REMARK    4  A    between atoms: C_11  and  C_12
REMARK    5  A    between atoms: C_17  and  O_18
REMARK                            x       y       z     vdW  Elec       q    Type
REMARK                         _______ _______ _______ _____ _____    ______ ____
ROOT
ATOM      1  C   UNL     1      34.855 -17.515 -22.490  0.00  0.00    +0.017 C 
ENDROOT
BRANCH   1   4
ATOM      2  O   UNL     1      34.979 -16.085 -20.532  0.00  0.00    -0.278 OA
ATOM      3  N   UNL     1      34.645 -15.101 -22.581  0.00  0.00    -0.330 N 
ATOM      4  C   UNL     1      34.843 -16.183 -21.751  0.00  0.00    +0.199 C 
ATOM      5  H   UNL     1      34.619 -14.191 -22.206  0.00  0.00    +0.145 HD
ATOM      6  H   UNL     1      34.529 -15.238 -23.548  0.00  0.00    +0.145 HD
ENDBRANCH   1   4
BRANCH   1   7
ATOM      7  N   UNL     1      35.350 -17.240 -23.839  0.00  0.00    +0.388 N 
ATOM      8  H   UNL     1      36.064 -17.926 -24.087  0.00  0.00    -0.089 HD
ATOM      9  H   UNL     1      35.753 -16.304 -23.869  0.00  0.00    -0.089 HD
ATOM     10  H   UNL     1      34.578 -17.299 -24.503  0.00  0.00    -0.089 HD
ENDBRANCH   1   7
BRANCH   1  11
ATOM     11  C   UNL     1      35.763 -18.531 -21.780  0.00  0.00    +0.013 C 
BRANCH  11  12
ATOM     12  C   UNL     1      34.989 -19.561 -20.993  0.00  0.00    -0.024 C 
ATOM     13  C   UNL     1      35.676 -20.519 -20.266  0.00  0.00    -0.001 C 
ATOM     14  C   UNL     1      33.604 -19.528 -21.012  0.00  0.00    -0.001 C 
ATOM     15  C   UNL     1      34.960 -21.470 -19.540  0.00  0.00    +0.036 C 
ATOM     16  C   UNL     1      32.887 -20.479 -20.285  0.00  0.00    +0.036 C 
ATOM     17  C   UNL     1      33.566 -21.450 -19.550  0.00  0.00    +0.134 C 
BRANCH  17  18
ATOM     18  O   UNL     1      32.868 -22.378 -18.840  0.00  0.00    -0.506 OA
ATOM     19  H   UNL     1      32.272 -22.953 -19.278  0.00  0.00    +0.292 HD
ENDBRANCH  17  18
ENDBRANCH  11  12
ENDBRANCH   1  11
TORSDOF 5
ENDMDL
MODEL 2
REMARK VINA RESULT:      -7.2      1.351      2.131
REMARK  Name = 151243
REMARK  5 active torsions:
REMARK  status: ('A' for Active; 'I' for Inactive)
REMARK    1  A    between atoms: C_1  and  C_4
REMARK    2  A    between atoms: C_1  and  N_7
REMARK    3  A    between atoms: C_1  and  C_11
REMARK    4  A    between atoms: C_11  and  C_12
REMARK    5  A    between atoms: C_17  and  O_18
REMARK                            x       y       z     vdW  Elec       q    Type
REMARK                         _______ _______ _______ _____ _____    ______ ____
ROOT
ATOM      1  C   UNL     1      35.306 -17.584 -21.821  0.00  0.00    +0.017 C 
ENDROOT
BRANCH   1   4
ATOM      2  O   UNL     1      35.112 -15.406 -22.872  0.00  0.00    -0.278 OA
ATOM      3  N   UNL     1      35.370 -17.247 -24.221  0.00  0.00    -0.330 N 
ATOM      4  C   UNL     1      35.256 -16.620 -22.999  0.00  0.00    +0.199 C 
ATOM      5  H   UNL     1      35.349 -16.716 -25.051  0.00  0.00    +0.145 HD
ATOM      6  H   UNL     1      35.470 -18.225 -24.265  0.00  0.00    +0.145 HD
ENDBRANCH   1   4
BRANCH   1   7
ATOM      7  N   UNL     1      34.988 -16.801 -20.626  0.00  0.00    +0.388 N 
ATOM      8  H   UNL     1      34.139 -16.258 -20.792  0.00  0.00    -0.089 HD
ATOM      9  H   UNL     1      35.760 -16.169 -20.418  0.00  0.00    -0.089 HD
ATOM     10  H   UNL     1      34.839 -17.429 -19.837  0.00  0.00    -0.089 HD
ENDBRANCH   1   7
BRANCH   1  11
ATOM     11  C   UNL     1      34.297 -18.729 -22.000  0.00  0.00    +0.013 C 
BRANCH  11  12
ATOM     12  C   UNL     1      34.460 -19.822 -20.971  0.00  0.00    -0.024 C 
ATOM     13  C   UNL     1      33.334 -20.387 -20.396  0.00  0.00    -0.001 C 
ATOM     14  C   UNL     1      35.734 -20.239 -20.622  0.00  0.00    -0.001 C 
ATOM     15  C   UNL     1      33.486 -21.397 -19.446  0.00  0.00    +0.036 C 
ATOM     16  C   UNL     1      35.886 -21.249 -19.671  0.00  0.00    +0.036 C 
ATOM     17  C   UNL     1      34.761 -21.827 -19.083  0.00  0.00    +0.134 C 
BRANCH  17  18
ATOM     18  O   UNL     1      34.908 -22.813 -18.157  0.00  0.00    -0.506 OA
ATOM     19  H   UNL     1      35.273 -22.617 -17.317  0.00  0.00    +0.292 HD
ENDBRANCH  17  18
ENDBRANCH  11  12
ENDBRANCH   1  11
TORSDOF 5
ENDMDL
MODEL 3
REMARK VINA RESULT:      -7.1      1.975      2.640
REMARK  Name = 151243
REMARK  5 active torsions:
REMARK  status: ('A' for Active; 'I' for Inactive)
REMARK    1  A    between atoms: C_1  and  C_4
REMARK    2  A    between atoms: C_1  and  N_7
REMARK    3  A    between atoms: C_1  and  C_11
REMARK    4  A    between atoms: C_11  and  C_12
REMARK    5  A    between atoms: C_17  and  O_18
REMARK                            x       y       z     vdW  Elec       q    Type
REMARK                         _______ _______ _______ _____ _____    ______ ____
ROOT
ATOM      1  C   UNL     1      35.332 -18.220 -23.002  0.00  0.00    +0.017 C 
ENDROOT
BRANCH   1   4
ATOM      2  O   UNL     1      34.867 -19.941 -24.648  0.00  0.00    -0.278 OA
ATOM      3  N   UNL     1      34.232 -17.784 -25.118  0.00  0.00    -0.330 N 
ATOM      4  C   UNL     1      34.793 -18.758 -24.321  0.00  0.00    +0.199 C 
ATOM      5  H   UNL     1      33.853 -18.024 -25.995  0.00  0.00    +0.145 HD
ATOM      6  H   UNL     1      34.211 -16.850 -24.812  0.00  0.00    +0.145 HD
ENDBRANCH   1   4
BRANCH   1   7
ATOM      7  N   UNL     1      35.731 -16.834 -23.247  0.00  0.00    +0.388 N 
ATOM      8  H   UNL     1      35.245 -16.219 -22.593  0.00  0.00    -0.089 HD
ATOM      9  H   UNL     1      35.488 -16.574 -24.202  0.00  0.00    -0.089 HD
ATOM     10  H   UNL     1      36.738 -16.742 -23.115  0.00  0.00    -0.089 HD
ENDBRANCH   1   7
BRANCH   1  11
ATOM     11  C   UNL     1      34.263 -18.287 -21.901  0.00  0.00    +0.013 C 
BRANCH  11  12
ATOM     12  C   UNL     1      34.406 -19.502 -21.016  0.00  0.00    -0.024 C 
ATOM     13  C   UNL     1      33.270 -20.108 -20.504  0.00  0.00    -0.001 C 
ATOM     14  C   UNL     1      35.671 -19.989 -20.733  0.00  0.00    -0.001 C 
ATOM     15  C   UNL     1      33.403 -21.230 -19.687  0.00  0.00    +0.036 C 
ATOM     16  C   UNL     1      35.805 -21.112 -19.915  0.00  0.00    +0.036 C 
ATOM     17  C   UNL     1      34.670 -21.732 -19.393  0.00  0.00    +0.134 C 
BRANCH  17  18
ATOM     18  O   UNL     1      34.799 -22.828 -18.596  0.00  0.00    -0.506 OA
ATOM     19  H   UNL     1      34.400 -23.638 -18.845  0.00  0.00    +0.292 HD
ENDBRANCH  17  18
ENDBRANCH  11  12
ENDBRANCH   1  11
TORSDOF 5
ENDMDL
MODEL 4
REMARK VINA RESULT:      -6.9      3.153      5.438
REMARK  Name = 151243
REMARK  5 active torsions:
REMARK  status: ('A' for Active; 'I' for Inactive)
REMARK    1  A    between atoms: C_1  and  C_4
REMARK    2  A    between atoms: C_1  and  N_7
REMARK    3  A    between atoms: C_1  and  C_11
REMARK    4  A    between atoms: C_11  and  C_12
REMARK    5  A    between atoms: C_17  and  O_18
REMARK                            x       y       z     vdW  Elec       q    Type
REMARK                         _______ _______ _______ _____ _____    ______ ____
ROOT
ATOM      1  C   UNL     1      33.826 -20.341 -20.809  0.00  0.00    +0.017 C 
ENDROOT
BRANCH   1   4
ATOM      2  O   UNL     1      35.236 -21.446 -19.171  0.00  0.00    -0.278 OA
ATOM      3  N   UNL     1      33.010 -22.007 -19.247  0.00  0.00    -0.330 N 
ATOM      4  C   UNL     1      34.118 -21.302 -19.664  0.00  0.00    +0.199 C 
ATOM      5  H   UNL     1      33.087 -22.657 -18.511  0.00  0.00    +0.145 HD
ATOM      6  H   UNL     1      32.141 -21.861 -19.686  0.00  0.00    +0.145 HD
ENDBRANCH   1   4
BRANCH   1   7
ATOM      7  N   UNL     1      32.572 -19.664 -20.477  0.00  0.00    +0.388 N 
ATOM      8  H   UNL     1      31.888 -19.833 -21.214  0.00  0.00    -0.089 HD
ATOM      9  H   UNL     1      32.739 -18.661 -20.392  0.00  0.00    -0.089 HD
ATOM     10  H   UNL     1      32.215 -20.025 -19.593  0.00  0.00    -0.089 HD
ENDBRANCH   1   7
BRANCH   1  11
ATOM     11  C   UNL     1      34.963 -19.321 -20.977  0.00  0.00    +0.013 C 
BRANCH  11  12
ATOM     12  C   UNL     1      34.897 -18.580 -22.290  0.00  0.00    -0.024 C 
ATOM     13  C   UNL     1      34.706 -19.292 -23.464  0.00  0.00    -0.001 C 
ATOM     14  C   UNL     1      35.028 -17.201 -22.298  0.00  0.00    -0.001 C 
ATOM     15  C   UNL     1      34.645 -18.607 -24.677  0.00  0.00    +0.036 C 
ATOM     16  C   UNL     1      34.967 -16.515 -23.511  0.00  0.00    +0.036 C 
ATOM     17  C   UNL     1      34.776 -17.218 -24.701  0.00  0.00    +0.134 C 
BRANCH  17  18
ATOM     18  O   UNL     1      34.716 -16.551 -25.885  0.00  0.00    -0.506 OA
ATOM     19  H   UNL     1      33.889 -16.406 -26.300  0.00  0.00    +0.292 HD
ENDBRANCH  17  18
ENDBRANCH  11  12
ENDBRANCH   1  11
TORSDOF 5
ENDMDL
MODEL 5
REMARK VINA RESULT:      -6.9      2.991      5.426
REMARK  Name = 151243
REMARK  5 active torsions:
REMARK  status: ('A' for Active; 'I' for Inactive)
REMARK    1  A    between atoms: C_1  and  C_4
REMARK    2  A    between atoms: C_1  and  N_7
REMARK    3  A    between atoms: C_1  and  C_11
REMARK    4  A    between atoms: C_11  and  C_12
REMARK    5  A    between atoms: C_17  and  O_18
REMARK                            x       y       z     vdW  Elec       q    Type
REMARK                         _______ _______ _______ _____ _____    ______ ____
ROOT
ATOM      1  C   UNL     1      34.737 -20.457 -20.795  0.00  0.00    +0.017 C 
ENDROOT
BRANCH   1   4
ATOM      2  O   UNL     1      35.100 -22.507 -19.547  0.00  0.00    -0.278 OA
ATOM      3  N   UNL     1      36.483 -20.720 -19.133  0.00  0.00    -0.330 N 
ATOM      4  C   UNL     1      35.441 -21.348 -19.779  0.00  0.00    +0.199 C 
ATOM      5  H   UNL     1      37.007 -21.207 -18.455  0.00  0.00    +0.145 HD
ATOM      6  H   UNL     1      36.704 -19.786 -19.349  0.00  0.00    +0.145 HD
ENDBRANCH   1   4
BRANCH   1   7
ATOM      7  N   UNL     1      33.391 -20.213 -20.276  0.00  0.00    +0.388 N 
ATOM      8  H   UNL     1      32.777 -20.982 -20.547  0.00  0.00    -0.089 HD
ATOM      9  H   UNL     1      33.031 -19.340 -20.660  0.00  0.00    -0.089 HD
ATOM     10  H   UNL     1      33.426 -20.149 -19.259  0.00  0.00    -0.089 HD
ENDBRANCH   1   7
BRANCH   1  11
ATOM     11  C   UNL     1      35.491 -19.132 -20.983  0.00  0.00    +0.013 C 
BRANCH  11  12
ATOM     12  C   UNL     1      35.197 -18.472 -22.309  0.00  0.00    -0.024 C 
ATOM     13  C   UNL     1      35.240 -17.090 -22.404  0.00  0.00    -0.001 C 
ATOM     14  C   UNL     1      34.889 -19.260 -23.405  0.00  0.00    -0.001 C 
ATOM     15  C   UNL     1      34.968 -16.481 -23.629  0.00  0.00    +0.036 C 
ATOM     16  C   UNL     1      34.616 -18.651 -24.631  0.00  0.00    +0.036 C 
ATOM     17  C   UNL     1      34.655 -17.262 -24.742  0.00  0.00    +0.134 C 
BRANCH  17  18
ATOM     18  O   UNL     1      34.391 -16.666 -25.936  0.00  0.00    -0.506 OA
ATOM     19  H   UNL     1      34.072 -17.176 -26.654  0.00  0.00    +0.292 HD
ENDBRANCH  17  18
ENDBRANCH  11  12
ENDBRANCH   1  11
TORSDOF 5
ENDMDL
MODEL 6
REMARK VINA RESULT:      -6.7      2.901      5.469
REMARK  Name = 151243
REMARK  5 active torsions:
REMARK  status: ('A' for Active; 'I' for Inactive)
REMARK    1  A    between atoms: C_1  and  C_4
REMARK    2  A    between atoms: C_1  and  N_7
REMARK    3  A    between atoms: C_1  and  C_11
REMARK    4  A    between atoms: C_11  and  C_12
REMARK    5  A    between atoms: C_17  and  O_18
REMARK                            x       y       z     vdW  Elec       q    Type
REMARK                         _______ _______ _______ _____ _____    ______ ____
ROOT
ATOM      1  C   UNL     1      34.898 -19.936 -21.191  0.00  0.00    +0.017 C 
ENDROOT
BRANCH   1   4
ATOM      2  O   UNL     1      35.090 -21.838 -19.696  0.00  0.00    -0.278 OA
ATOM      3  N   UNL     1      36.685 -20.190 -19.572  0.00  0.00    -0.330 N 
ATOM      4  C   UNL     1      35.547 -20.767 -20.091  0.00  0.00    +0.199 C 
ATOM      5  H   UNL     1      37.184 -20.644 -18.854  0.00  0.00    +0.145 HD
ATOM      6  H   UNL     1      36.999 -19.324 -19.918  0.00  0.00    +0.145 HD
ENDBRANCH   1   4
BRANCH   1   7
ATOM      7  N   UNL     1      33.553 -19.600 -20.722  0.00  0.00    +0.388 N 
ATOM      8  H   UNL     1      33.102 -20.438 -20.353  0.00  0.00    -0.089 HD
ATOM      9  H   UNL     1      33.004 -19.232 -21.498  0.00  0.00    -0.089 HD
ATOM     10  H   UNL     1      33.616 -18.897 -19.986  0.00  0.00    -0.089 HD
ENDBRANCH   1   7
BRANCH   1  11
ATOM     11  C   UNL     1      35.707 -18.660 -21.469  0.00  0.00    +0.013 C 
BRANCH  11  12
ATOM     12  C   UNL     1      35.263 -17.946 -22.723  0.00  0.00    -0.024 C 
ATOM     13  C   UNL     1      34.974 -18.684 -23.860  0.00  0.00    -0.001 C 
ATOM     14  C   UNL     1      35.152 -16.565 -22.713  0.00  0.00    -0.001 C 
ATOM     15  C   UNL     1      34.564 -18.023 -25.017  0.00  0.00    +0.036 C 
ATOM     16  C   UNL     1      34.742 -15.904 -23.872  0.00  0.00    +0.036 C 
ATOM     17  C   UNL     1      34.449 -16.633 -25.023  0.00  0.00    +0.134 C 
BRANCH  17  18
ATOM     18  O   UNL     1      34.048 -15.990 -26.154  0.00  0.00    -0.506 OA
ATOM     19  H   UNL     1      33.470 -16.416 -26.756  0.00  0.00    +0.292 HD
ENDBRANCH  17  18
ENDBRANCH  11  12
ENDBRANCH   1  11
TORSDOF 5
ENDMDL
MODEL 7
REMARK VINA RESULT:      -6.7      2.895      5.430
REMARK  Name = 151243
REMARK  5 active torsions:
REMARK  status: ('A' for Active; 'I' for Inactive)
REMARK    1  A    between atoms: C_1  and  C_4
REMARK    2  A    between atoms: C_1  and  N_7
REMARK    3  A    between atoms: C_1  and  C_11
REMARK    4  A    between atoms: C_11  and  C_12
REMARK    5  A    between atoms: C_17  and  O_18
REMARK                            x       y       z     vdW  Elec       q    Type
REMARK                         _______ _______ _______ _____ _____    ______ ____
ROOT
ATOM      1  C   UNL     1      34.869 -20.832 -19.790  0.00  0.00    +0.017 C 
ENDROOT
BRANCH   1   4
ATOM      2  O   UNL     1      35.019 -22.681 -18.226  0.00  0.00    -0.278 OA
ATOM      3  N   UNL     1      33.013 -22.306 -19.279  0.00  0.00    -0.330 N 
ATOM      4  C   UNL     1      34.334 -22.025 -19.008  0.00  0.00    +0.199 C 
ATOM      5  H   UNL     1      32.567 -23.059 -18.827  0.00  0.00    +0.145 HD
ATOM      6  H   UNL     1      32.515 -21.755 -19.925  0.00  0.00    +0.145 HD
ENDBRANCH   1   4
BRANCH   1   7
ATOM      7  N   UNL     1      36.108 -21.273 -20.431  0.00  0.00    +0.388 N 
ATOM      8  H   UNL     1      35.971 -22.200 -20.835  0.00  0.00    -0.089 HD
ATOM      9  H   UNL     1      36.854 -21.313 -19.737  0.00  0.00    -0.089 HD
ATOM     10  H   UNL     1      36.363 -20.616 -21.168  0.00  0.00    -0.089 HD
ENDBRANCH   1   7
BRANCH   1  11
ATOM     11  C   UNL     1      33.854 -20.363 -20.844  0.00  0.00    +0.013 C 
BRANCH  11  12
ATOM     12  C   UNL     1      34.339 -19.173 -21.637  0.00  0.00    -0.024 C 
ATOM     13  C   UNL     1      34.419 -17.934 -21.023  0.00  0.00    -0.001 C 
ATOM     14  C   UNL     1      34.696 -19.343 -22.965  0.00  0.00    -0.001 C 
ATOM     15  C   UNL     1      34.867 -16.835 -21.756  0.00  0.00    +0.036 C 
ATOM     16  C   UNL     1      35.143 -18.244 -23.699  0.00  0.00    +0.036 C 
ATOM     17  C   UNL     1      35.228 -16.990 -23.094  0.00  0.00    +0.134 C 
BRANCH  17  18
ATOM     18  O   UNL     1      35.666 -15.918 -23.808  0.00  0.00    -0.506 OA
ATOM     19  H   UNL     1      36.541 -15.604 -23.694  0.00  0.00    +0.292 HD
ENDBRANCH  17  18
ENDBRANCH  11  12
ENDBRANCH   1  11
TORSDOF 5
ENDMDL
MODEL 8
REMARK VINA RESULT:      -6.6      2.783      5.394
REMARK  Name = 151243
REMARK  5 active torsions:
REMARK  status: ('A' for Active; 'I' for Inactive)
REMARK    1  A    between atoms: C_1  and  C_4
REMARK    2  A    between atoms: C_1  and  N_7
REMARK    3  A    between atoms: C_1  and  C_11
REMARK    4  A    between atoms: C_11  and  C_12
REMARK    5  A    between atoms: C_17  and  O_18
REMARK                            x       y       z     vdW  Elec       q    Type
REMARK                         _______ _______ _______ _____ _____    ______ ____
ROOT
ATOM      1  C   UNL     1      34.620 -19.954 -20.539  0.00  0.00    +0.017 C 
ENDROOT
BRANCH   1   4
ATOM      2  O   UNL     1      32.235 -20.166 -20.935  0.00  0.00    -0.278 OA
ATOM      3  N   UNL     1      33.223 -21.604 -19.441  0.00  0.00    -0.330 N 
ATOM      4  C   UNL     1      33.239 -20.567 -20.349  0.00  0.00    +0.199 C 
ATOM      5  H   UNL     1      32.379 -22.071 -19.242  0.00  0.00    +0.145 HD
ATOM      6  H   UNL     1      34.055 -21.875 -18.990  0.00  0.00    +0.145 HD
ENDBRANCH   1   4
BRANCH   1   7
ATOM      7  N   UNL     1      35.588 -20.954 -20.085  0.00  0.00    +0.388 N 
ATOM      8  H   UNL     1      36.090 -21.332 -20.889  0.00  0.00    -0.089 HD
ATOM      9  H   UNL     1      35.097 -21.709 -19.606  0.00  0.00    -0.089 HD
ATOM     10  H   UNL     1      36.251 -20.518 -19.444  0.00  0.00    -0.089 HD
ENDBRANCH   1   7
BRANCH   1  11
ATOM     11  C   UNL     1      34.867 -19.597 -22.013  0.00  0.00    +0.013 C 
BRANCH  11  12
ATOM     12  C   UNL     1      34.823 -18.110 -22.272  0.00  0.00    -0.024 C 
ATOM     13  C   UNL     1      34.657 -17.240 -21.206  0.00  0.00    -0.001 C 
ATOM     14  C   UNL     1      34.949 -17.644 -23.570  0.00  0.00    -0.001 C 
ATOM     15  C   UNL     1      34.617 -15.866 -21.446  0.00  0.00    +0.036 C 
ATOM     16  C   UNL     1      34.908 -16.270 -23.810  0.00  0.00    +0.036 C 
ATOM     17  C   UNL     1      34.742 -15.382 -22.748  0.00  0.00    +0.134 C 
BRANCH  17  18
ATOM     18  O   UNL     1      34.703 -14.041 -22.980  0.00  0.00    -0.506 OA
ATOM     19  H   UNL     1      34.315 -13.713 -23.767  0.00  0.00    +0.292 HD
ENDBRANCH  17  18
ENDBRANCH  11  12
ENDBRANCH   1  11
TORSDOF 5
ENDMDL
MODEL 9
REMARK VINA RESULT:      -6.4      4.594      6.449
REMARK  Name = 151243
REMARK  5 active torsions:
REMARK  status: ('A' for Active; 'I' for Inactive)
REMARK    1  A    between atoms: C_1  and  C_4
REMARK    2  A    between atoms: C_1  and  N_7
REMARK    3  A    between atoms: C_1  and  C_11
REMARK    4  A    between atoms: C_11  and  C_12
REMARK    5  A    between atoms: C_17  and  O_18
REMARK                            x       y       z     vdW  Elec       q    Type
REMARK                         _______ _______ _______ _____ _____    ______ ____
ROOT
ATOM      1  C   UNL     1      33.428 -22.892 -16.973  0.00  0.00    +0.017 C 
ENDROOT
BRANCH   1   4
ATOM      2  O   UNL     1      31.038 -22.523 -17.177  0.00  0.00    -0.278 OA
ATOM      3  N   UNL     1      31.792 -23.854 -15.464  0.00  0.00    -0.330 N 
ATOM      4  C   UNL     1      31.967 -23.058 -16.575  0.00  0.00    +0.199 C 
ATOM      5  H   UNL     1      30.885 -24.027 -15.121  0.00  0.00    +0.145 HD
ATOM      6  H   UNL     1      32.573 -24.247 -15.013  0.00  0.00    +0.145 HD
ENDBRANCH   1   4
BRANCH   1   7
ATOM      7  N   UNL     1      34.197 -23.813 -16.136  0.00  0.00    +0.388 N 
ATOM      8  H   UNL     1      33.933 -23.685 -15.158  0.00  0.00    -0.089 HD
ATOM      9  H   UNL     1      35.193 -23.622 -16.246  0.00  0.00    -0.089 HD
ATOM     10  H   UNL     1      34.001 -24.773 -16.418  0.00  0.00    -0.089 HD
ENDBRANCH   1   7
BRANCH   1  11
ATOM     11  C   UNL     1      33.635 -23.215 -18.461  0.00  0.00    +0.013 C 
BRANCH  11  12
ATOM     12  C   UNL     1      34.139 -22.033 -19.254  0.00  0.00    -0.024 C 
ATOM     13  C   UNL     1      35.504 -21.843 -19.398  0.00  0.00    -0.001 C 
ATOM     14  C   UNL     1      33.226 -21.160 -19.823  0.00  0.00    -0.001 C 
ATOM     15  C   UNL     1      35.968 -20.751 -20.131  0.00  0.00    +0.036 C 
ATOM     16  C   UNL     1      33.690 -20.067 -20.556  0.00  0.00    +0.036 C 
ATOM     17  C   UNL     1      35.061 -19.863 -20.709  0.00  0.00    +0.134 C 
BRANCH  17  18
ATOM     18  O   UNL     1      35.516 -18.798 -21.425  0.00  0.00    -0.506 OA
ATOM     19  H   UNL     1      36.361 -18.830 -21.826  0.00  0.00    +0.292 HD
ENDBRANCH  17  18
ENDBRANCH  11  12
ENDBRANCH   1  11
TORSDOF 5
ENDMDL
