MODEL 1
REMARK VINA RESULT:     -12.9      0.000      0.000
REMARK  Name = 448408
REMARK  8 active torsions:
REMARK  status: ('A' for Active; 'I' for Inactive)
REMARK    1  A    between atoms: N_2  and  C_25
REMARK    2  A    between atoms: C_3  and  C_6
REMARK    3  A    between atoms: C_5  and  N_12
REMARK    4  A    between atoms: C_25  and  C_26
REMARK    5  A    between atoms: C_27  and  S_32
REMARK    6  A    between atoms: S_32  and  C_33
REMARK    7  A    between atoms: C_34  and  C_39
REMARK    8  A    between atoms: C_39  and  O_40
REMARK                            x       y       z     vdW  Elec       q    Type
REMARK                         _______ _______ _______ _____ _____    ______ ____
ROOT
ATOM      1  O   UNL     1      34.067 -14.414 -21.472  0.00  0.00    -0.270 OA
ATOM      2  N   UNL     1      32.943 -13.882 -23.429  0.00  0.00    -0.297 N 
ATOM      3  C   UNL     1      33.722 -14.723 -22.626  0.00  0.00    +0.246 C 
ATOM      4  H   UNL     1      32.707 -14.190 -24.334  0.00  0.00    +0.150 HD
ENDROOT
BRANCH   3   6
ATOM      5  C   UNL     1      34.899 -18.284 -22.932  0.00  0.00    +0.090 C 
ATOM      6  C   UNL     1      34.145 -15.987 -23.210  0.00  0.00    +0.055 C 
ATOM      7  C   UNL     1      34.488 -17.057 -22.383  0.00  0.00    +0.023 C 
ATOM      8  C   UNL     1      34.957 -18.410 -24.330  0.00  0.00    +0.018 C 
ATOM      9  C   UNL     1      34.207 -16.129 -24.597  0.00  0.00    +0.005 C 
ATOM     10  C   UNL     1      34.613 -17.339 -25.156  0.00  0.00    +0.002 C 
BRANCH   5  12
ATOM     11  O   UNL     1      32.922 -21.904 -19.773  0.00  0.00    -0.207 OA
ATOM     12  N   UNL     1      35.240 -19.351 -22.108  0.00  0.00    -0.137 N 
ATOM     13  N   UNL     1      36.353 -19.404 -21.329  0.00  0.00    -0.215 N 
ATOM     14  N   UNL     1      34.217 -20.137 -21.584  0.00  0.00    -0.143 NA
ATOM     15  N   UNL     1      36.726 -20.650 -19.244  0.00  0.00    -0.309 NA
ATOM     16  N   UNL     1      34.847 -21.959 -18.482  0.00  0.00    -0.251 NA
ATOM     17  N   UNL     1      36.819 -21.939 -17.273  0.00  0.00    -0.283 N 
ATOM     18  C   UNL     1      36.102 -20.220 -20.276  0.00  0.00    +0.243 C 
ATOM     19  C   UNL     1      34.714 -20.653 -20.504  0.00  0.00    +0.241 C 
ATOM     20  C   UNL     1      34.076 -21.567 -19.550  0.00  0.00    +0.239 C 
ATOM     21  C   UNL     1      36.084 -21.519 -18.358  0.00  0.00    +0.208 C 
ATOM     22  H   UNL     1      37.199 -18.930 -21.501  0.00  0.00    +0.175 HD
ATOM     23  H   UNL     1      37.745 -21.628 -17.155  0.00  0.00    +0.156 HD
ATOM     24  H   UNL     1      36.418 -22.552 -16.615  0.00  0.00    +0.156 HD
ENDBRANCH   5  12
ENDBRANCH   3   6
BRANCH   2  25
ATOM     25  C   UNL     1      32.466 -12.586 -23.002  0.00  0.00    +0.117 C 
BRANCH  25  26
ATOM     26  C   UNL     1      33.265 -11.468 -23.607  0.00  0.00    +0.003 C 
ATOM     27  C   UNL     1      33.098 -10.146 -23.203  0.00  0.00    +0.027 C 
ATOM     28  C   UNL     1      34.188 -11.791 -24.597  0.00  0.00    -0.002 C 
ATOM     29  C   UNL     1      33.861  -9.140 -23.794  0.00  0.00    +0.006 C 
ATOM     30  C   UNL     1      34.951 -10.784 -25.188  0.00  0.00    -0.000 C 
ATOM     31  C   UNL     1      34.788  -9.459 -24.786  0.00  0.00    +0.000 C 
BRANCH  27  32
ATOM     32  S   UNL     1      31.924  -9.686 -21.935  0.00  0.00    -0.087 S 
BRANCH  32  33
ATOM     33  C   UNL     1      31.657  -7.963 -22.324  0.00  0.00    +0.028 C 
ATOM     34  C   UNL     1      32.112  -6.942 -21.488  0.00  0.00    +0.013 C 
ATOM     35  C   UNL     1      30.972  -7.647 -23.499  0.00  0.00    +0.006 C 
ATOM     36  C   UNL     1      31.884  -5.608 -21.827  0.00  0.00    -0.001 C 
ATOM     37  C   UNL     1      30.744  -6.313 -23.837  0.00  0.00    +0.000 C 
ATOM     38  C   UNL     1      31.199  -5.294 -23.001  0.00  0.00    -0.000 C 
BRANCH  34  39
ATOM     39  C   UNL     1      32.849  -7.228 -20.219  0.00  0.00    +0.164 C 
BRANCH  39  40
ATOM     40  O   UNL     1      31.945  -7.764 -19.263  0.00  0.00    -0.377 OA
ATOM     41  H   UNL     1      32.430  -8.001 -18.457  0.00  0.00    +0.211 HD
ENDBRANCH  39  40
ENDBRANCH  34  39
ENDBRANCH  32  33
ENDBRANCH  27  32
ENDBRANCH  25  26
ENDBRANCH   2  25
TORSDOF 8
ENDMDL
MODEL 2
REMARK VINA RESULT:     -12.9      6.153     10.388
REMARK  Name = 448408
REMARK  8 active torsions:
REMARK  status: ('A' for Active; 'I' for Inactive)
REMARK    1  A    between atoms: N_2  and  C_25
REMARK    2  A    between atoms: C_3  and  C_6
REMARK    3  A    between atoms: C_5  and  N_12
REMARK    4  A    between atoms: C_25  and  C_26
REMARK    5  A    between atoms: C_27  and  S_32
REMARK    6  A    between atoms: S_32  and  C_33
REMARK    7  A    between atoms: C_34  and  C_39
REMARK    8  A    between atoms: C_39  and  O_40
REMARK                            x       y       z     vdW  Elec       q    Type
REMARK                         _______ _______ _______ _____ _____    ______ ____
ROOT
ATOM      1  O   UNL     1      30.875 -22.125 -17.519  0.00  0.00    -0.270 OA
ATOM      2  N   UNL     1      33.112 -22.557 -17.952  0.00  0.00    -0.297 N 
ATOM      3  C   UNL     1      31.955 -22.630 -17.166  0.00  0.00    +0.246 C 
ATOM      4  H   UNL     1      33.933 -22.979 -17.611  0.00  0.00    +0.150 HD
ENDROOT
BRANCH   3   6
ATOM      5  C   UNL     1      33.444 -24.389 -14.192  0.00  0.00    +0.090 C 
ATOM      6  C   UNL     1      32.069 -23.310 -15.886  0.00  0.00    +0.055 C 
ATOM      7  C   UNL     1      33.318 -23.730 -15.427  0.00  0.00    +0.023 C 
ATOM      8  C   UNL     1      32.285 -24.617 -13.430  0.00  0.00    +0.018 C 
ATOM      9  C   UNL     1      30.928 -23.544 -15.117  0.00  0.00    +0.005 C 
ATOM     10  C   UNL     1      31.036 -24.197 -13.890  0.00  0.00    +0.002 C 
BRANCH   5  12
ATOM     11  O   UNL     1      37.533 -22.929 -11.339  0.00  0.00    -0.207 OA
ATOM     12  N   UNL     1      34.688 -24.806 -13.733  0.00  0.00    -0.137 N 
ATOM     13  N   UNL     1      35.566 -25.557 -14.449  0.00  0.00    -0.215 N 
ATOM     14  N   UNL     1      35.345 -24.017 -12.792  0.00  0.00    -0.143 NA
ATOM     15  N   UNL     1      38.015 -25.666 -14.272  0.00  0.00    -0.309 NA
ATOM     16  N   UNL     1      38.986 -24.234 -12.589  0.00  0.00    -0.251 NA
ATOM     17  N   UNL     1      40.340 -25.579 -13.896  0.00  0.00    -0.283 N 
ATOM     18  C   UNL     1      36.820 -25.291 -14.006  0.00  0.00    +0.243 C 
ATOM     19  C   UNL     1      36.602 -24.296 -12.945  0.00  0.00    +0.241 C 
ATOM     20  C   UNL     1      37.754 -23.754 -12.213  0.00  0.00    +0.239 C 
ATOM     21  C   UNL     1      39.087 -25.127 -13.554  0.00  0.00    +0.208 C 
ATOM     22  H   UNL     1      35.331 -26.188 -15.168  0.00  0.00    +0.175 HD
ATOM     23  H   UNL     1      40.446 -26.246 -14.612  0.00  0.00    +0.156 HD
ATOM     24  H   UNL     1      41.133 -25.235 -13.423  0.00  0.00    +0.156 HD
ENDBRANCH   5  12
ENDBRANCH   3   6
BRANCH   2  25
ATOM     25  C   UNL     1      33.165 -21.895 -19.236  0.00  0.00    +0.117 C 
BRANCH  25  26
ATOM     26  C   UNL     1      34.525 -21.325 -19.517  0.00  0.00    +0.003 C 
ATOM     27  C   UNL     1      34.722 -20.337 -20.477  0.00  0.00    +0.027 C 
ATOM     28  C   UNL     1      35.600 -21.818 -18.783  0.00  0.00    -0.002 C 
ATOM     29  C   UNL     1      36.004 -19.838 -20.705  0.00  0.00    +0.006 C 
ATOM     30  C   UNL     1      36.882 -21.320 -19.011  0.00  0.00    -0.000 C 
ATOM     31  C   UNL     1      37.085 -20.329 -19.971  0.00  0.00    +0.000 C 
BRANCH  27  32
ATOM     32  S   UNL     1      33.371 -19.675 -21.442  0.00  0.00    -0.087 S 
BRANCH  32  33
ATOM     33  C   UNL     1      33.989 -18.042 -21.823  0.00  0.00    +0.028 C 
ATOM     34  C   UNL     1      34.532 -17.735 -23.072  0.00  0.00    +0.013 C 
ATOM     35  C   UNL     1      33.921 -17.060 -20.834  0.00  0.00    +0.006 C 
ATOM     36  C   UNL     1      35.004 -16.448 -23.331  0.00  0.00    -0.001 C 
ATOM     37  C   UNL     1      34.393 -15.773 -21.093  0.00  0.00    +0.000 C 
ATOM     38  C   UNL     1      34.935 -15.467 -22.342  0.00  0.00    -0.000 C 
BRANCH  34  39
ATOM     39  C   UNL     1      34.627 -18.751 -24.165  0.00  0.00    +0.164 C 
BRANCH  39  40
ATOM     40  O   UNL     1      34.599 -18.089 -25.422  0.00  0.00    -0.377 OA
ATOM     41  H   UNL     1      34.790 -17.147 -25.296  0.00  0.00    +0.211 HD
ENDBRANCH  39  40
ENDBRANCH  34  39
ENDBRANCH  32  33
ENDBRANCH  27  32
ENDBRANCH  25  26
ENDBRANCH   2  25
TORSDOF 8
ENDMDL
MODEL 3
REMARK VINA RESULT:     -12.7      5.006     13.269
REMARK  Name = 448408
REMARK  8 active torsions:
REMARK  status: ('A' for Active; 'I' for Inactive)
REMARK    1  A    between atoms: N_2  and  C_25
REMARK    2  A    between atoms: C_3  and  C_6
REMARK    3  A    between atoms: C_5  and  N_12
REMARK    4  A    between atoms: C_25  and  C_26
REMARK    5  A    between atoms: C_27  and  S_32
REMARK    6  A    between atoms: S_32  and  C_33
REMARK    7  A    between atoms: C_34  and  C_39
REMARK    8  A    between atoms: C_39  and  O_40
REMARK                            x       y       z     vdW  Elec       q    Type
REMARK                         _______ _______ _______ _____ _____    ______ ____
ROOT
ATOM      1  O   UNL     1      32.733 -21.900 -20.025  0.00  0.00    -0.270 OA
ATOM      2  N   UNL     1      34.504 -22.589 -18.698  0.00  0.00    -0.297 N 
ATOM      3  C   UNL     1      33.903 -21.740 -19.634  0.00  0.00    +0.246 C 
ATOM      4  H   UNL     1      35.435 -22.404 -18.433  0.00  0.00    +0.150 HD
ENDROOT
BRANCH   3   6
ATOM      5  C   UNL     1      34.882 -18.506 -21.289  0.00  0.00    +0.090 C 
ATOM      6  C   UNL     1      34.717 -20.657 -20.164  0.00  0.00    +0.055 C 
ATOM      7  C   UNL     1      34.108 -19.559 -20.772  0.00  0.00    +0.023 C 
ATOM      8  C   UNL     1      36.280 -18.582 -21.180  0.00  0.00    +0.018 C 
ATOM      9  C   UNL     1      36.108 -20.718 -20.063  0.00  0.00    +0.005 C 
ATOM     10  C   UNL     1      36.889 -19.680 -20.571  0.00  0.00    +0.002 C 
BRANCH   5  12
ATOM     11  O   UNL     1      33.945 -16.283 -25.890  0.00  0.00    -0.207 OA
ATOM     12  N   UNL     1      34.276 -17.411 -21.894  0.00  0.00    -0.137 N 
ATOM     13  N   UNL     1      34.257 -16.152 -21.381  0.00  0.00    -0.215 N 
ATOM     14  N   UNL     1      34.177 -17.393 -23.283  0.00  0.00    -0.143 NA
ATOM     15  N   UNL     1      34.079 -14.002 -22.558  0.00  0.00    -0.309 NA
ATOM     16  N   UNL     1      33.916 -14.159 -24.961  0.00  0.00    -0.251 NA
ATOM     17  N   UNL     1      33.898 -12.091 -23.925  0.00  0.00    -0.283 N 
ATOM     18  C   UNL     1      34.145 -15.272 -22.406  0.00  0.00    +0.243 C 
ATOM     19  C   UNL     1      34.100 -16.137 -23.595  0.00  0.00    +0.241 C 
ATOM     20  C   UNL     1      33.979 -15.532 -24.926  0.00  0.00    +0.239 C 
ATOM     21  C   UNL     1      33.965 -13.462 -23.842  0.00  0.00    +0.208 C 
ATOM     22  H   UNL     1      34.314 -15.920 -20.426  0.00  0.00    +0.175 HD
ATOM     23  H   UNL     1      33.931 -11.545 -23.107  0.00  0.00    +0.156 HD
ATOM     24  H   UNL     1      33.816 -11.654 -24.804  0.00  0.00    +0.156 HD
ENDBRANCH   5  12
ENDBRANCH   3   6
BRANCH   2  25
ATOM     25  C   UNL     1      33.835 -23.721 -18.100  0.00  0.00    +0.117 C 
BRANCH  25  26
ATOM     26  C   UNL     1      33.369 -23.424 -16.704  0.00  0.00    +0.003 C 
ATOM     27  C   UNL     1      34.266 -23.176 -15.669  0.00  0.00    +0.027 C 
ATOM     28  C   UNL     1      31.998 -23.404 -16.468  0.00  0.00    -0.002 C 
ATOM     29  C   UNL     1      33.787 -22.906 -14.387  0.00  0.00    +0.006 C 
ATOM     30  C   UNL     1      31.519 -23.134 -15.186  0.00  0.00    -0.000 C 
ATOM     31  C   UNL     1      32.413 -22.884 -14.146  0.00  0.00    +0.000 C 
BRANCH  27  32
ATOM     32  S   UNL     1      36.035 -23.192 -15.927  0.00  0.00    -0.087 S 
BRANCH  32  33
ATOM     33  C   UNL     1      36.595 -23.968 -14.418  0.00  0.00    +0.028 C 
ATOM     34  C   UNL     1      36.626 -25.356 -14.273  0.00  0.00    +0.013 C 
ATOM     35  C   UNL     1      37.007 -23.150 -13.365  0.00  0.00    +0.006 C 
ATOM     36  C   UNL     1      37.070 -25.924 -13.079  0.00  0.00    -0.001 C 
ATOM     37  C   UNL     1      37.450 -23.718 -12.171  0.00  0.00    +0.000 C 
ATOM     38  C   UNL     1      37.482 -25.105 -12.028  0.00  0.00    -0.000 C 
BRANCH  34  39
ATOM     39  C   UNL     1      36.196 -26.276 -15.371  0.00  0.00    +0.164 C 
BRANCH  39  40
ATOM     40  O   UNL     1      37.335 -26.947 -15.892  0.00  0.00    -0.377 OA
ATOM     41  H   UNL     1      38.097 -26.348 -15.879  0.00  0.00    +0.211 HD
ENDBRANCH  39  40
ENDBRANCH  34  39
ENDBRANCH  32  33
ENDBRANCH  27  32
ENDBRANCH  25  26
ENDBRANCH   2  25
TORSDOF 8
ENDMDL
MODEL 4
REMARK VINA RESULT:     -12.4      5.404     13.215
REMARK  Name = 448408
REMARK  8 active torsions:
REMARK  status: ('A' for Active; 'I' for Inactive)
REMARK    1  A    between atoms: N_2  and  C_25
REMARK    2  A    between atoms: C_3  and  C_6
REMARK    3  A    between atoms: C_5  and  N_12
REMARK    4  A    between atoms: C_25  and  C_26
REMARK    5  A    between atoms: C_27  and  S_32
REMARK    6  A    between atoms: S_32  and  C_33
REMARK    7  A    between atoms: C_34  and  C_39
REMARK    8  A    between atoms: C_39  and  O_40
REMARK                            x       y       z     vdW  Elec       q    Type
REMARK                         _______ _______ _______ _____ _____    ______ ____
ROOT
ATOM      1  O   UNL     1      32.676 -21.746 -20.154  0.00  0.00    -0.270 OA
ATOM      2  N   UNL     1      33.885 -22.585 -18.363  0.00  0.00    -0.297 N 
ATOM      3  C   UNL     1      33.726 -21.769 -19.488  0.00  0.00    +0.246 C 
ATOM      4  H   UNL     1      34.744 -22.554 -17.882  0.00  0.00    +0.150 HD
ENDROOT
BRANCH   3   6
ATOM      5  C   UNL     1      35.772 -19.061 -21.114  0.00  0.00    +0.090 C 
ATOM      6  C   UNL     1      34.864 -20.949 -19.875  0.00  0.00    +0.055 C 
ATOM      7  C   UNL     1      34.682 -19.863 -20.731  0.00  0.00    +0.023 C 
ATOM      8  C   UNL     1      37.047 -19.378 -20.616  0.00  0.00    +0.018 C 
ATOM      9  C   UNL     1      36.137 -21.250 -19.389  0.00  0.00    +0.005 C 
ATOM     10  C   UNL     1      37.228 -20.464 -19.760  0.00  0.00    +0.002 C 
BRANCH   5  12
ATOM     11  O   UNL     1      33.147 -14.617 -21.700  0.00  0.00    -0.207 OA
ATOM     12  N   UNL     1      35.591 -17.978 -21.967  0.00  0.00    -0.137 N 
ATOM     13  N   UNL     1      35.600 -18.050 -23.324  0.00  0.00    -0.215 N 
ATOM     14  N   UNL     1      34.823 -16.906 -21.521  0.00  0.00    -0.143 NA
ATOM     15  N   UNL     1      34.486 -16.593 -24.960  0.00  0.00    -0.309 NA
ATOM     16  N   UNL     1      33.197 -14.785 -24.012  0.00  0.00    -0.251 NA
ATOM     17  N   UNL     1      33.319 -15.050 -26.306  0.00  0.00    -0.283 N 
ATOM     18  C   UNL     1      34.845 -17.035 -23.813  0.00  0.00    +0.243 C 
ATOM     19  C   UNL     1      34.379 -16.344 -22.601  0.00  0.00    +0.241 C 
ATOM     20  C   UNL     1      33.515 -15.164 -22.729  0.00  0.00    +0.239 C 
ATOM     21  C   UNL     1      33.661 -15.467 -25.040  0.00  0.00    +0.208 C 
ATOM     22  H   UNL     1      36.075 -18.725 -23.861  0.00  0.00    +0.175 HD
ATOM     23  H   UNL     1      33.651 -15.539 -27.093  0.00  0.00    +0.156 HD
ATOM     24  H   UNL     1      32.740 -14.262 -26.425  0.00  0.00    +0.156 HD
ENDBRANCH   5  12
ENDBRANCH   3   6
BRANCH   2  25
ATOM     25  C   UNL     1      32.857 -23.473 -17.868  0.00  0.00    +0.117 C 
BRANCH  25  26
ATOM     26  C   UNL     1      32.652 -23.326 -16.388  0.00  0.00    +0.003 C 
ATOM     27  C   UNL     1      33.716 -23.380 -15.492  0.00  0.00    +0.027 C 
ATOM     28  C   UNL     1      31.353 -23.132 -15.928  0.00  0.00    -0.002 C 
ATOM     29  C   UNL     1      33.479 -23.239 -14.126  0.00  0.00    +0.006 C 
ATOM     30  C   UNL     1      31.116 -22.991 -14.561  0.00  0.00    -0.000 C 
ATOM     31  C   UNL     1      32.178 -23.044 -13.660  0.00  0.00    +0.000 C 
BRANCH  27  32
ATOM     32  S   UNL     1      35.401 -23.628 -16.039  0.00  0.00    -0.087 S 
BRANCH  32  33
ATOM     33  C   UNL     1      36.197 -24.076 -14.504  0.00  0.00    +0.028 C 
ATOM     34  C   UNL     1      36.555 -25.395 -14.220  0.00  0.00    +0.013 C 
ATOM     35  C   UNL     1      36.460 -23.068 -13.575  0.00  0.00    +0.006 C 
ATOM     36  C   UNL     1      37.176 -25.705 -13.010  0.00  0.00    -0.001 C 
ATOM     37  C   UNL     1      37.080 -23.378 -12.364  0.00  0.00    +0.000 C 
ATOM     38  C   UNL     1      37.438 -24.697 -12.082  0.00  0.00    -0.000 C 
BRANCH  34  39
ATOM     39  C   UNL     1      36.296 -26.510 -15.181  0.00  0.00    +0.164 C 
BRANCH  39  40
ATOM     40  O   UNL     1      37.493 -26.808 -15.887  0.00  0.00    -0.377 OA
ATOM     41  H   UNL     1      37.598 -27.770 -15.954  0.00  0.00    +0.211 HD
ENDBRANCH  39  40
ENDBRANCH  34  39
ENDBRANCH  32  33
ENDBRANCH  27  32
ENDBRANCH  25  26
ENDBRANCH   2  25
TORSDOF 8
ENDMDL
MODEL 5
REMARK VINA RESULT:     -12.3      1.773      2.954
REMARK  Name = 448408
REMARK  8 active torsions:
REMARK  status: ('A' for Active; 'I' for Inactive)
REMARK    1  A    between atoms: N_2  and  C_25
REMARK    2  A    between atoms: C_3  and  C_6
REMARK    3  A    between atoms: C_5  and  N_12
REMARK    4  A    between atoms: C_25  and  C_26
REMARK    5  A    between atoms: C_27  and  S_32
REMARK    6  A    between atoms: S_32  and  C_33
REMARK    7  A    between atoms: C_34  and  C_39
REMARK    8  A    between atoms: C_39  and  O_40
REMARK                            x       y       z     vdW  Elec       q    Type
REMARK                         _______ _______ _______ _____ _____    ______ ____
ROOT
ATOM      1  O   UNL     1      34.943 -13.998 -23.595  0.00  0.00    -0.270 OA
ATOM      2  N   UNL     1      32.670 -14.368 -23.332  0.00  0.00    -0.297 N 
ATOM      3  C   UNL     1      33.996 -14.794 -23.466  0.00  0.00    +0.246 C 
ATOM      4  H   UNL     1      31.969 -15.052 -23.234  0.00  0.00    +0.150 HD
ENDROOT
BRANCH   3   6
ATOM      5  C   UNL     1      34.344 -18.348 -22.283  0.00  0.00    +0.090 C 
ATOM      6  C   UNL     1      34.231 -16.229 -23.474  0.00  0.00    +0.055 C 
ATOM      7  C   UNL     1      34.119 -16.961 -22.292  0.00  0.00    +0.023 C 
ATOM      8  C   UNL     1      34.684 -18.982 -23.490  0.00  0.00    +0.018 C 
ATOM      9  C   UNL     1      34.570 -16.874 -24.665  0.00  0.00    +0.005 C 
ATOM     10  C   UNL     1      34.796 -18.249 -24.673  0.00  0.00    +0.002 C 
BRANCH   5  12
ATOM     11  O   UNL     1      36.903 -21.596 -19.137  0.00  0.00    -0.207 OA
ATOM     12  N   UNL     1      34.231 -19.078 -21.105  0.00  0.00    -0.137 N 
ATOM     13  N   UNL     1      33.099 -19.702 -20.685  0.00  0.00    -0.215 N 
ATOM     14  N   UNL     1      35.371 -19.700 -20.601  0.00  0.00    -0.143 NA
ATOM     15  N   UNL     1      32.864 -21.671 -19.232  0.00  0.00    -0.309 NA
ATOM     16  N   UNL     1      34.940 -22.620 -18.449  0.00  0.00    -0.251 NA
ATOM     17  N   UNL     1      32.921 -23.561 -17.825  0.00  0.00    -0.283 N 
ATOM     18  C   UNL     1      33.453 -20.747 -19.896  0.00  0.00    +0.243 C 
ATOM     19  C   UNL     1      34.922 -20.685 -19.887  0.00  0.00    +0.241 C 
ATOM     20  C   UNL     1      35.683 -21.678 -19.120  0.00  0.00    +0.239 C 
ATOM     21  C   UNL     1      33.624 -22.599 -18.514  0.00  0.00    +0.208 C 
ATOM     22  H   UNL     1      32.178 -19.440 -20.914  0.00  0.00    +0.175 HD
ATOM     23  H   UNL     1      31.937 -23.569 -17.855  0.00  0.00    +0.156 HD
ATOM     24  H   UNL     1      33.403 -24.241 -17.301  0.00  0.00    +0.156 HD
ENDBRANCH   5  12
ENDBRANCH   3   6
BRANCH   2  25
ATOM     25  C   UNL     1      32.273 -12.977 -23.331  0.00  0.00    +0.117 C 
BRANCH  25  26
ATOM     26  C   UNL     1      32.035 -12.463 -21.940  0.00  0.00    +0.003 C 
ATOM     27  C   UNL     1      31.501 -11.199 -21.707  0.00  0.00    +0.027 C 
ATOM     28  C   UNL     1      32.368 -13.295 -20.875  0.00  0.00    -0.002 C 
ATOM     29  C   UNL     1      31.299 -10.763 -20.398  0.00  0.00    +0.006 C 
ATOM     30  C   UNL     1      32.166 -12.859 -19.566  0.00  0.00    -0.000 C 
ATOM     31  C   UNL     1      31.631 -11.594 -19.327  0.00  0.00    +0.000 C 
BRANCH  27  32
ATOM     32  S   UNL     1      31.059 -10.099 -23.045  0.00  0.00    -0.087 S 
BRANCH  32  33
ATOM     33  C   UNL     1      32.576  -9.177 -23.246  0.00  0.00    +0.028 C 
ATOM     34  C   UNL     1      32.742  -7.906 -22.693  0.00  0.00    +0.013 C 
ATOM     35  C   UNL     1      33.613  -9.757 -23.979  0.00  0.00    +0.006 C 
ATOM     36  C   UNL     1      33.942  -7.217 -22.871  0.00  0.00    -0.001 C 
ATOM     37  C   UNL     1      34.812  -9.068 -24.158  0.00  0.00    +0.000 C 
ATOM     38  C   UNL     1      34.977  -7.798 -23.604  0.00  0.00    -0.000 C 
BRANCH  34  39
ATOM     39  C   UNL     1      31.663  -7.241 -21.900  0.00  0.00    +0.164 C 
BRANCH  39  40
ATOM     40  O   UNL     1      32.155  -6.938 -20.601  0.00  0.00    -0.377 OA
ATOM     41  H   UNL     1      31.901  -7.644 -19.987  0.00  0.00    +0.211 HD
ENDBRANCH  39  40
ENDBRANCH  34  39
ENDBRANCH  32  33
ENDBRANCH  27  32
ENDBRANCH  25  26
ENDBRANCH   2  25
TORSDOF 8
ENDMDL
MODEL 6
REMARK VINA RESULT:     -12.2      1.725      2.584
REMARK  Name = 448408
REMARK  8 active torsions:
REMARK  status: ('A' for Active; 'I' for Inactive)
REMARK    1  A    between atoms: N_2  and  C_25
REMARK    2  A    between atoms: C_3  and  C_6
REMARK    3  A    between atoms: C_5  and  N_12
REMARK    4  A    between atoms: C_25  and  C_26
REMARK    5  A    between atoms: C_27  and  S_32
REMARK    6  A    between atoms: S_32  and  C_33
REMARK    7  A    between atoms: C_34  and  C_39
REMARK    8  A    between atoms: C_39  and  O_40
REMARK                            x       y       z     vdW  Elec       q    Type
REMARK                         _______ _______ _______ _____ _____    ______ ____
ROOT
ATOM      1  O   UNL     1      32.721 -13.700 -21.649  0.00  0.00    -0.270 OA
ATOM      2  N   UNL     1      32.840 -13.299 -23.929  0.00  0.00    -0.297 N 
ATOM      3  C   UNL     1      33.055 -14.077 -22.786  0.00  0.00    +0.246 C 
ATOM      4  H   UNL     1      33.130 -13.659 -24.799  0.00  0.00    +0.150 HD
ENDROOT
BRANCH   3   6
ATOM      5  C   UNL     1      34.344 -17.548 -22.117  0.00  0.00    +0.090 C 
ATOM      6  C   UNL     1      33.717 -15.359 -22.974  0.00  0.00    +0.055 C 
ATOM      7  C   UNL     1      33.708 -16.306 -21.950  0.00  0.00    +0.023 C 
ATOM      8  C   UNL     1      34.988 -17.816 -23.336  0.00  0.00    +0.018 C 
ATOM      9  C   UNL     1      34.361 -15.640 -24.179  0.00  0.00    +0.005 C 
ATOM     10  C   UNL     1      34.996 -16.868 -24.360  0.00  0.00    +0.002 C 
BRANCH   5  12
ATOM     11  O   UNL     1      37.159 -21.311 -19.901  0.00  0.00    -0.207 OA
ATOM     12  N   UNL     1      34.335 -18.493 -21.096  0.00  0.00    -0.137 N 
ATOM     13  N   UNL     1      33.242 -19.199 -20.703  0.00  0.00    -0.215 N 
ATOM     14  N   UNL     1      35.511 -19.187 -20.827  0.00  0.00    -0.143 NA
ATOM     15  N   UNL     1      33.128 -21.413 -19.642  0.00  0.00    -0.309 NA
ATOM     16  N   UNL     1      35.261 -22.472 -19.248  0.00  0.00    -0.251 NA
ATOM     17  N   UNL     1      33.301 -23.538 -18.637  0.00  0.00    -0.283 N 
ATOM     18  C   UNL     1      33.659 -20.372 -20.166  0.00  0.00    +0.243 C 
ATOM     19  C   UNL     1      35.124 -20.296 -20.278  0.00  0.00    +0.241 C 
ATOM     20  C   UNL     1      35.945 -21.410 -19.789  0.00  0.00    +0.239 C 
ATOM     21  C   UNL     1      33.944 -22.454 -19.189  0.00  0.00    +0.208 C 
ATOM     22  H   UNL     1      32.305 -18.908 -20.794  0.00  0.00    +0.175 HD
ATOM     23  H   UNL     1      32.319 -23.552 -18.579  0.00  0.00    +0.156 HD
ATOM     24  H   UNL     1      33.825 -24.301 -18.301  0.00  0.00    +0.156 HD
ENDBRANCH   5  12
ENDBRANCH   3   6
BRANCH   2  25
ATOM     25  C   UNL     1      32.218 -11.995 -23.903  0.00  0.00    +0.117 C 
BRANCH  25  26
ATOM     26  C   UNL     1      33.219 -10.891 -24.083  0.00  0.00    +0.003 C 
ATOM     27  C   UNL     1      32.934  -9.576 -23.726  0.00  0.00    +0.027 C 
ATOM     28  C   UNL     1      34.458 -11.221 -24.624  0.00  0.00    -0.002 C 
ATOM     29  C   UNL     1      33.895  -8.584 -23.913  0.00  0.00    +0.006 C 
ATOM     30  C   UNL     1      35.420 -10.228 -24.811  0.00  0.00    -0.000 C 
ATOM     31  C   UNL     1      35.139  -8.910 -24.455  0.00  0.00    +0.000 C 
BRANCH  27  32
ATOM     32  S   UNL     1      31.356  -9.108 -23.028  0.00  0.00    -0.087 S 
BRANCH  32  33
ATOM     33  C   UNL     1      31.533  -9.700 -21.352  0.00  0.00    +0.028 C 
ATOM     34  C   UNL     1      32.122  -8.920 -20.355  0.00  0.00    +0.013 C 
ATOM     35  C   UNL     1      31.066 -10.980 -21.048  0.00  0.00    +0.006 C 
ATOM     36  C   UNL     1      32.242  -9.418 -19.058  0.00  0.00    -0.001 C 
ATOM     37  C   UNL     1      31.187 -11.478 -19.751  0.00  0.00    +0.000 C 
ATOM     38  C   UNL     1      31.775 -10.697 -18.756  0.00  0.00    -0.000 C 
BRANCH  34  39
ATOM     39  C   UNL     1      32.637  -7.543 -20.630  0.00  0.00    +0.164 C 
BRANCH  39  40
ATOM     40  O   UNL     1      33.278  -7.043 -19.464  0.00  0.00    -0.377 OA
ATOM     41  H   UNL     1      33.828  -6.280 -19.700  0.00  0.00    +0.211 HD
ENDBRANCH  39  40
ENDBRANCH  34  39
ENDBRANCH  32  33
ENDBRANCH  27  32
ENDBRANCH  25  26
ENDBRANCH   2  25
TORSDOF 8
ENDMDL
MODEL 7
REMARK VINA RESULT:     -12.1      5.124      9.426
REMARK  Name = 448408
REMARK  8 active torsions:
REMARK  status: ('A' for Active; 'I' for Inactive)
REMARK    1  A    between atoms: N_2  and  C_25
REMARK    2  A    between atoms: C_3  and  C_6
REMARK    3  A    between atoms: C_5  and  N_12
REMARK    4  A    between atoms: C_25  and  C_26
REMARK    5  A    between atoms: C_27  and  S_32
REMARK    6  A    between atoms: S_32  and  C_33
REMARK    7  A    between atoms: C_34  and  C_39
REMARK    8  A    between atoms: C_39  and  O_40
REMARK                            x       y       z     vdW  Elec       q    Type
REMARK                         _______ _______ _______ _____ _____    ______ ____
ROOT
ATOM      1  O   UNL     1      33.585 -23.448 -19.505  0.00  0.00    -0.270 OA
ATOM      2  N   UNL     1      33.100 -21.264 -18.896  0.00  0.00    -0.297 N 
ATOM      3  C   UNL     1      33.279 -22.625 -18.623  0.00  0.00    +0.246 C 
ATOM      4  H   UNL     1      32.858 -20.668 -18.151  0.00  0.00    +0.150 HD
ENDROOT
BRANCH   3   6
ATOM      5  C   UNL     1      33.942 -23.997 -15.183  0.00  0.00    +0.090 C 
ATOM      6  C   UNL     1      33.068 -23.057 -17.251  0.00  0.00    +0.055 C 
ATOM      7  C   UNL     1      34.131 -23.575 -16.511  0.00  0.00    +0.023 C 
ATOM      8  C   UNL     1      32.660 -23.887 -14.618  0.00  0.00    +0.018 C 
ATOM      9  C   UNL     1      31.801 -22.954 -16.675  0.00  0.00    +0.005 C 
ATOM     10  C   UNL     1      31.597 -23.368 -15.359  0.00  0.00    +0.002 C 
BRANCH   5  12
ATOM     11  O   UNL     1      37.872 -22.670 -12.056  0.00  0.00    -0.207 OA
ATOM     12  N   UNL     1      35.001 -24.513 -14.445  0.00  0.00    -0.137 N 
ATOM     13  N   UNL     1      35.776 -25.562 -14.829  0.00  0.00    -0.215 N 
ATOM     14  N   UNL     1      35.694 -23.655 -13.594  0.00  0.00    -0.143 NA
ATOM     15  N   UNL     1      38.103 -26.071 -14.223  0.00  0.00    -0.309 NA
ATOM     16  N   UNL     1      39.149 -24.480 -12.741  0.00  0.00    -0.251 NA
ATOM     17  N   UNL     1      40.328 -26.324 -13.488  0.00  0.00    -0.283 N 
ATOM     18  C   UNL     1      36.994 -25.431 -14.247  0.00  0.00    +0.243 C 
ATOM     19  C   UNL     1      36.870 -24.187 -13.471  0.00  0.00    +0.241 C 
ATOM     20  C   UNL     1      38.013 -23.707 -12.687  0.00  0.00    +0.239 C 
ATOM     21  C   UNL     1      39.170 -25.581 -13.465  0.00  0.00    +0.208 C 
ATOM     22  H   UNL     1      35.499 -26.293 -15.428  0.00  0.00    +0.175 HD
ATOM     23  H   UNL     1      40.372 -27.151 -14.020  0.00  0.00    +0.156 HD
ATOM     24  H   UNL     1      41.113 -26.028 -12.973  0.00  0.00    +0.156 HD
ENDBRANCH   5  12
ENDBRANCH   3   6
BRANCH   2  25
ATOM     25  C   UNL     1      33.250 -20.686 -20.213  0.00  0.00    +0.117 C 
BRANCH  25  26
ATOM     26  C   UNL     1      34.649 -20.197 -20.455  0.00  0.00    +0.003 C 
ATOM     27  C   UNL     1      34.907 -18.903 -20.897  0.00  0.00    +0.027 C 
ATOM     28  C   UNL     1      35.695 -21.085 -20.224  0.00  0.00    -0.002 C 
ATOM     29  C   UNL     1      36.223 -18.494 -21.110  0.00  0.00    +0.006 C 
ATOM     30  C   UNL     1      37.011 -20.675 -20.436  0.00  0.00    -0.000 C 
ATOM     31  C   UNL     1      37.275 -19.380 -20.879  0.00  0.00    +0.000 C 
BRANCH  27  32
ATOM     32  S   UNL     1      33.593 -17.731 -21.207  0.00  0.00    -0.087 S 
BRANCH  32  33
ATOM     33  C   UNL     1      34.016 -17.169 -22.850  0.00  0.00    +0.028 C 
ATOM     34  C   UNL     1      34.016 -15.814 -23.186  0.00  0.00    +0.013 C 
ATOM     35  C   UNL     1      34.351 -18.124 -23.812  0.00  0.00    +0.006 C 
ATOM     36  C   UNL     1      34.352 -15.415 -24.479  0.00  0.00    -0.001 C 
ATOM     37  C   UNL     1      34.686 -17.724 -25.105  0.00  0.00    +0.000 C 
ATOM     38  C   UNL     1      34.686 -16.370 -25.439  0.00  0.00    -0.000 C 
BRANCH  34  39
ATOM     39  C   UNL     1      33.665 -14.753 -22.193  0.00  0.00    +0.164 C 
BRANCH  39  40
ATOM     40  O   UNL     1      32.256 -14.570 -22.181  0.00  0.00    -0.377 OA
ATOM     41  H   UNL     1      32.052 -13.633 -22.036  0.00  0.00    +0.211 HD
ENDBRANCH  39  40
ENDBRANCH  34  39
ENDBRANCH  32  33
ENDBRANCH  27  32
ENDBRANCH  25  26
ENDBRANCH   2  25
TORSDOF 8
ENDMDL
MODEL 8
REMARK VINA RESULT:     -12.0      3.622     11.576
REMARK  Name = 448408
REMARK  8 active torsions:
REMARK  status: ('A' for Active; 'I' for Inactive)
REMARK    1  A    between atoms: N_2  and  C_25
REMARK    2  A    between atoms: C_3  and  C_6
REMARK    3  A    between atoms: C_5  and  N_12
REMARK    4  A    between atoms: C_25  and  C_26
REMARK    5  A    between atoms: C_27  and  S_32
REMARK    6  A    between atoms: S_32  and  C_33
REMARK    7  A    between atoms: C_34  and  C_39
REMARK    8  A    between atoms: C_39  and  O_40
REMARK                            x       y       z     vdW  Elec       q    Type
REMARK                         _______ _______ _______ _____ _____    ______ ____
ROOT
ATOM      1  O   UNL     1      32.543 -14.186 -22.384  0.00  0.00    -0.270 OA
ATOM      2  N   UNL     1      34.685 -14.776 -23.045  0.00  0.00    -0.297 N 
ATOM      3  C   UNL     1      33.572 -13.928 -23.034  0.00  0.00    +0.246 C 
ATOM      4  H   UNL     1      35.467 -14.510 -23.582  0.00  0.00    +0.150 HD
ENDROOT
BRANCH   3   6
ATOM      5  C   UNL     1      33.528 -10.298 -24.024  0.00  0.00    +0.090 C 
ATOM      6  C   UNL     1      33.652 -12.722 -23.843  0.00  0.00    +0.055 C 
ATOM      7  C   UNL     1      33.454 -11.473 -23.255  0.00  0.00    +0.023 C 
ATOM      8  C   UNL     1      33.804 -10.409 -25.396  0.00  0.00    +0.018 C 
ATOM      9  C   UNL     1      33.925 -12.815 -25.208  0.00  0.00    +0.005 C 
ATOM     10  C   UNL     1      34.001 -11.660 -25.984  0.00  0.00    +0.002 C 
BRANCH   5  12
ATOM     11  O   UNL     1      32.098  -7.951 -19.615  0.00  0.00    -0.207 OA
ATOM     12  N   UNL     1      33.332  -9.053 -23.437  0.00  0.00    -0.137 N 
ATOM     13  N   UNL     1      32.826  -7.965 -24.078  0.00  0.00    -0.215 N 
ATOM     14  N   UNL     1      33.080  -8.998 -22.069  0.00  0.00    -0.143 NA
ATOM     15  N   UNL     1      31.605  -6.047 -23.144  0.00  0.00    -0.309 NA
ATOM     16  N   UNL     1      31.258  -6.116 -20.757  0.00  0.00    -0.251 NA
ATOM     17  N   UNL     1      30.463  -4.334 -21.998  0.00  0.00    -0.283 N 
ATOM     18  C   UNL     1      32.231  -7.164 -23.159  0.00  0.00    +0.243 C 
ATOM     19  C   UNL     1      32.432  -7.888 -21.894  0.00  0.00    +0.241 C 
ATOM     20  C   UNL     1      31.913  -7.320 -20.645  0.00  0.00    +0.239 C 
ATOM     21  C   UNL     1      31.125  -5.538 -21.934  0.00  0.00    +0.208 C 
ATOM     22  H   UNL     1      32.884  -7.789 -25.045  0.00  0.00    +0.175 HD
ATOM     23  H   UNL     1      30.349  -3.879 -22.863  0.00  0.00    +0.156 HD
ATOM     24  H   UNL     1      30.103  -3.926 -21.177  0.00  0.00    +0.156 HD
ENDBRANCH   5  12
ENDBRANCH   3   6
BRANCH   2  25
ATOM     25  C   UNL     1      34.750 -16.021 -22.314  0.00  0.00    +0.117 C 
BRANCH  25  26
ATOM     26  C   UNL     1      34.745 -17.211 -23.229  0.00  0.00    +0.003 C 
ATOM     27  C   UNL     1      35.287 -18.434 -22.844  0.00  0.00    +0.027 C 
ATOM     28  C   UNL     1      34.179 -17.057 -24.491  0.00  0.00    -0.002 C 
ATOM     29  C   UNL     1      35.262 -19.512 -23.729  0.00  0.00    +0.006 C 
ATOM     30  C   UNL     1      34.154 -18.135 -25.375  0.00  0.00    -0.000 C 
ATOM     31  C   UNL     1      34.695 -19.362 -24.994  0.00  0.00    +0.000 C 
BRANCH  27  32
ATOM     32  S   UNL     1      36.025 -18.676 -21.234  0.00  0.00    -0.087 S 
BRANCH  32  33
ATOM     33  C   UNL     1      34.886 -19.844 -20.507  0.00  0.00    +0.028 C 
ATOM     34  C   UNL     1      35.332 -20.948 -19.777  0.00  0.00    +0.013 C 
ATOM     35  C   UNL     1      33.518 -19.635 -20.683  0.00  0.00    +0.006 C 
ATOM     36  C   UNL     1      34.411 -21.838 -19.224  0.00  0.00    -0.001 C 
ATOM     37  C   UNL     1      32.597 -20.525 -20.131  0.00  0.00    +0.000 C 
ATOM     38  C   UNL     1      33.044 -21.627 -19.402  0.00  0.00    -0.000 C 
BRANCH  34  39
ATOM     39  C   UNL     1      36.786 -21.217 -19.559  0.00  0.00    +0.164 C 
BRANCH  39  40
ATOM     40  O   UNL     1      36.980 -21.700 -18.236  0.00  0.00    -0.377 OA
ATOM     41  H   UNL     1      37.930 -21.781 -18.057  0.00  0.00    +0.211 HD
ENDBRANCH  39  40
ENDBRANCH  34  39
ENDBRANCH  32  33
ENDBRANCH  27  32
ENDBRANCH  25  26
ENDBRANCH   2  25
TORSDOF 8
ENDMDL
MODEL 9
REMARK VINA RESULT:     -12.0      3.762      7.163
REMARK  Name = 448408
REMARK  8 active torsions:
REMARK  status: ('A' for Active; 'I' for Inactive)
REMARK    1  A    between atoms: N_2  and  C_25
REMARK    2  A    between atoms: C_3  and  C_6
REMARK    3  A    between atoms: C_5  and  N_12
REMARK    4  A    between atoms: C_25  and  C_26
REMARK    5  A    between atoms: C_27  and  S_32
REMARK    6  A    between atoms: S_32  and  C_33
REMARK    7  A    between atoms: C_34  and  C_39
REMARK    8  A    between atoms: C_39  and  O_40
REMARK                            x       y       z     vdW  Elec       q    Type
REMARK                         _______ _______ _______ _____ _____    ______ ____
ROOT
ATOM      1  O   UNL     1      37.224 -21.005 -20.499  0.00  0.00    -0.270 OA
ATOM      2  N   UNL     1      35.574 -19.415 -20.850  0.00  0.00    -0.297 N 
ATOM      3  C   UNL     1      36.076 -20.585 -20.269  0.00  0.00    +0.246 C 
ATOM      4  H   UNL     1      34.656 -19.140 -20.623  0.00  0.00    +0.150 HD
ENDROOT
BRANCH   3   6
ATOM      5  C   UNL     1      34.847 -22.703 -17.413  0.00  0.00    +0.090 C 
ATOM      6  C   UNL     1      35.184 -21.320 -19.386  0.00  0.00    +0.055 C 
ATOM      7  C   UNL     1      35.697 -21.988 -18.274  0.00  0.00    +0.023 C 
ATOM      8  C   UNL     1      33.471 -22.731 -17.695  0.00  0.00    +0.018 C 
ATOM      9  C   UNL     1      33.814 -21.356 -19.652  0.00  0.00    +0.005 C 
ATOM     10  C   UNL     1      32.959 -22.061 -18.807  0.00  0.00    +0.002 C 
BRANCH   5  12
ATOM     11  O   UNL     1      33.641 -24.393 -12.650  0.00  0.00    -0.207 OA
ATOM     12  N   UNL     1      35.358 -23.369 -16.304  0.00  0.00    -0.137 N 
ATOM     13  N   UNL     1      36.630 -23.244 -15.842  0.00  0.00    -0.215 N 
ATOM     14  N   UNL     1      34.480 -23.724 -15.282  0.00  0.00    -0.143 NA
ATOM     15  N   UNL     1      37.487 -23.554 -13.560  0.00  0.00    -0.309 NA
ATOM     16  N   UNL     1      35.829 -24.166 -11.916  0.00  0.00    -0.251 NA
ATOM     17  N   UNL     1      38.043 -23.913 -11.297  0.00  0.00    -0.283 N 
ATOM     18  C   UNL     1      36.633 -23.510 -14.512  0.00  0.00    +0.243 C 
ATOM     19  C   UNL     1      35.222 -23.809 -14.222  0.00  0.00    +0.241 C 
ATOM     20  C   UNL     1      34.822 -24.152 -12.852  0.00  0.00    +0.239 C 
ATOM     21  C   UNL     1      37.068 -23.884 -12.268  0.00  0.00    +0.208 C 
ATOM     22  H   UNL     1      37.417 -23.001 -16.382  0.00  0.00    +0.175 HD
ATOM     23  H   UNL     1      38.977 -23.707 -11.530  0.00  0.00    +0.156 HD
ATOM     24  H   UNL     1      37.806 -24.139 -10.369  0.00  0.00    +0.156 HD
ENDBRANCH   5  12
ENDBRANCH   3   6
BRANCH   2  25
ATOM     25  C   UNL     1      36.328 -18.589 -21.766  0.00  0.00    +0.117 C 
BRANCH  25  26
ATOM     26  C   UNL     1      35.484 -18.102 -22.908  0.00  0.00    +0.003 C 
ATOM     27  C   UNL     1      34.853 -16.862 -22.876  0.00  0.00    +0.027 C 
ATOM     28  C   UNL     1      35.346 -18.935 -24.014  0.00  0.00    -0.002 C 
ATOM     29  C   UNL     1      34.078 -16.452 -23.960  0.00  0.00    +0.006 C 
ATOM     30  C   UNL     1      34.571 -18.524 -25.098  0.00  0.00    -0.000 C 
ATOM     31  C   UNL     1      33.937 -17.283 -25.071  0.00  0.00    +0.000 C 
BRANCH  27  32
ATOM     32  S   UNL     1      35.003 -15.761 -21.475  0.00  0.00    -0.087 S 
BRANCH  32  33
ATOM     33  C   UNL     1      33.909 -14.436 -21.962  0.00  0.00    +0.028 C 
ATOM     34  C   UNL     1      32.728 -14.165 -21.269  0.00  0.00    +0.013 C 
ATOM     35  C   UNL     1      34.258 -13.660 -23.069  0.00  0.00    +0.006 C 
ATOM     36  C   UNL     1      31.900 -13.121 -21.680  0.00  0.00    -0.001 C 
ATOM     37  C   UNL     1      33.429 -12.616 -23.481  0.00  0.00    +0.000 C 
ATOM     38  C   UNL     1      32.250 -12.347 -22.786  0.00  0.00    -0.000 C 
BRANCH  34  39
ATOM     39  C   UNL     1      32.308 -14.966 -20.078  0.00  0.00    +0.164 C 
BRANCH  39  40
ATOM     40  O   UNL     1      31.616 -16.128 -20.515  0.00  0.00    -0.377 OA
ATOM     41  H   UNL     1      31.811 -16.865 -19.916  0.00  0.00    +0.211 HD
ENDBRANCH  39  40
ENDBRANCH  34  39
ENDBRANCH  32  33
ENDBRANCH  27  32
ENDBRANCH  25  26
ENDBRANCH   2  25
TORSDOF 8
ENDMDL
