MODEL 1
REMARK VINA RESULT:     -12.7      0.000      0.000
REMARK  Name = 11974440
REMARK  4 active torsions:
REMARK  status: ('A' for Active; 'I' for Inactive)
REMARK    1  A    between atoms: C_1  and  C_25
REMARK    2  A    between atoms: C_2  and  N_31
REMARK    3  A    between atoms: C_5  and  C_12
REMARK    4  A    between atoms: C_17  and  C_21
REMARK                            x       y       z     vdW  Elec       q    Type
REMARK                         _______ _______ _______ _____ _____    ______ ____
ROOT
ATOM      1  C   UNL     1      34.663 -19.850 -20.438  0.00  0.00    +0.009 C 
ATOM      2  C   UNL     1      35.721 -20.972 -20.271  0.00  0.00    -0.057 C 
ATOM      3  C   UNL     1      35.527 -21.702 -18.927  0.00  0.00    +0.009 C 
ATOM      4  C   UNL     1      33.234 -20.438 -20.367  0.00  0.00    +0.028 C 
ATOM      5  C   UNL     1      34.091 -22.023 -18.642  0.00  0.00    +0.025 C 
ATOM      6  C   UNL     1      33.058 -21.469 -19.291  0.00  0.00    -0.026 C 
ENDROOT
BRANCH   5  12
ATOM      7  O   UNL     1      32.789 -23.726 -17.749  0.00  0.00    -0.270 OA
ATOM      8  N   UNL     1      34.659 -23.107 -16.514  0.00  0.00    -0.267 N 
ATOM      9  N   UNL     1      36.888 -24.224 -15.341  0.00  0.00    -0.292 N 
ATOM     10  N   UNL     1      35.832 -25.793 -14.254  0.00  0.00    -0.132 NA
ATOM     11  N   UNL     1      37.194 -25.978 -14.092  0.00  0.00    -0.125 NA
ATOM     12  C   UNL     1      33.788 -23.022 -17.597  0.00  0.00    +0.245 C 
ATOM     13  C   UNL     1      35.820 -22.230 -16.261  0.00  0.00    +0.119 C 
ATOM     14  C   UNL     1      34.391 -24.100 -15.462  0.00  0.00    +0.160 C 
ATOM     15  C   UNL     1      37.094 -23.068 -16.187  0.00  0.00    +0.130 C 
ATOM     16  C   UNL     1      35.660 -24.731 -15.013  0.00  0.00    +0.164 A 
ATOM     17  C   UNL     1      37.810 -25.024 -14.755  0.00  0.00    +0.238 A 
BRANCH  17  21
ATOM     18  F   UNL     1      39.942 -25.895 -15.403  0.00  0.00    -0.163 F 
ATOM     19  F   UNL     1      39.625 -23.768 -15.678  0.00  0.00    -0.163 F 
ATOM     20  F   UNL     1      39.882 -24.575 -13.676  0.00  0.00    -0.163 F 
ATOM     21  C   UNL     1      39.265 -24.823 -14.876  0.00  0.00    +0.452 C 
ENDBRANCH  17  21
ENDBRANCH   5  12
BRANCH   1  25
ATOM     22  F   UNL     1      35.342 -17.095 -20.424  0.00  0.00    -0.204 F 
ATOM     23  F   UNL     1      34.611 -19.446 -25.307  0.00  0.00    -0.202 F 
ATOM     24  F   UNL     1      35.270 -16.798 -25.146  0.00  0.00    -0.202 F 
ATOM     25  C   UNL     1      34.829 -19.025 -21.705  0.00  0.00    +0.006 C 
ATOM     26  C   UNL     1      35.164 -17.678 -21.617  0.00  0.00    +0.138 C 
ATOM     27  C   UNL     1      34.641 -19.627 -22.946  0.00  0.00    +0.030 C 
ATOM     28  C   UNL     1      34.791 -18.873 -24.110  0.00  0.00    +0.167 C 
ATOM     29  C   UNL     1      35.314 -16.925 -22.781  0.00  0.00    +0.061 C 
ATOM     30  C   UNL     1      35.128 -17.523 -24.028  0.00  0.00    +0.170 C 
ENDBRANCH   1  25
BRANCH   2  31
ATOM     31  N   UNL     1      37.085 -20.437 -20.339  0.00  0.00    +0.382 N 
ATOM     32  H   UNL     1      37.141 -19.580 -19.788  0.00  0.00    -0.089 HD
ATOM     33  H   UNL     1      37.321 -20.233 -21.309  0.00  0.00    -0.089 HD
ATOM     34  H   UNL     1      37.738 -21.125 -19.965  0.00  0.00    -0.089 HD
ENDBRANCH   2  31
TORSDOF 4
ENDMDL
MODEL 2
REMARK VINA RESULT:     -12.5      3.756      4.690
REMARK  Name = 11974440
REMARK  4 active torsions:
REMARK  status: ('A' for Active; 'I' for Inactive)
REMARK    1  A    between atoms: C_1  and  C_25
REMARK    2  A    between atoms: C_2  and  N_31
REMARK    3  A    between atoms: C_5  and  C_12
REMARK    4  A    between atoms: C_17  and  C_21
REMARK                            x       y       z     vdW  Elec       q    Type
REMARK                         _______ _______ _______ _____ _____    ______ ____
ROOT
ATOM      1  C   UNL     1      35.065 -19.720 -21.731  0.00  0.00    +0.009 C 
ATOM      2  C   UNL     1      33.933 -19.826 -20.676  0.00  0.00    -0.057 C 
ATOM      3  C   UNL     1      34.208 -20.991 -19.703  0.00  0.00    +0.009 C 
ATOM      4  C   UNL     1      36.433 -19.509 -21.039  0.00  0.00    +0.028 C 
ATOM      5  C   UNL     1      35.631 -21.032 -19.234  0.00  0.00    +0.025 C 
ATOM      6  C   UNL     1      36.632 -20.362 -19.821  0.00  0.00    -0.026 C 
ENDROOT
BRANCH   5  12
ATOM      7  O   UNL     1      37.038 -21.645 -17.490  0.00  0.00    -0.270 OA
ATOM      8  N   UNL     1      35.012 -22.777 -17.623  0.00  0.00    -0.267 N 
ATOM      9  N   UNL     1      32.832 -23.408 -16.059  0.00  0.00    -0.292 N 
ATOM     10  N   UNL     1      33.963 -24.212 -14.376  0.00  0.00    -0.132 NA
ATOM     11  N   UNL     1      32.621 -24.176 -14.036  0.00  0.00    -0.125 NA
ATOM     12  C   UNL     1      35.956 -21.845 -18.045  0.00  0.00    +0.245 C 
ATOM     13  C   UNL     1      33.741 -23.097 -18.304  0.00  0.00    +0.119 C 
ATOM     14  C   UNL     1      35.300 -23.594 -16.433  0.00  0.00    +0.160 C 
ATOM     15  C   UNL     1      32.569 -22.835 -17.361  0.00  0.00    +0.130 C 
ATOM     16  C   UNL     1      34.077 -23.743 -15.601  0.00  0.00    +0.164 A 
ATOM     17  C   UNL     1      31.960 -23.689 -15.062  0.00  0.00    +0.238 A 
BRANCH  17  21
ATOM     18  F   UNL     1      30.143 -22.134 -15.157  0.00  0.00    -0.163 F 
ATOM     19  F   UNL     1      29.925 -23.973 -16.286  0.00  0.00    -0.163 F 
ATOM     20  F   UNL     1      29.802 -24.012 -14.116  0.00  0.00    -0.163 F 
ATOM     21  C   UNL     1      30.507 -23.458 -15.154  0.00  0.00    +0.452 C 
ENDBRANCH  17  21
ENDBRANCH   5  12
BRANCH   1  25
ATOM     22  F   UNL     1      34.898 -20.266 -24.510  0.00  0.00    -0.204 F 
ATOM     23  F   UNL     1      34.361 -15.046 -22.971  0.00  0.00    -0.202 F 
ATOM     24  F   UNL     1      34.220 -15.716 -25.617  0.00  0.00    -0.202 F 
ATOM     25  C   UNL     1      34.836 -18.643 -22.780  0.00  0.00    +0.006 C 
ATOM     26  C   UNL     1      34.765 -18.990 -24.126  0.00  0.00    +0.138 C 
ATOM     27  C   UNL     1      34.701 -17.316 -22.385  0.00  0.00    +0.030 C 
ATOM     28  C   UNL     1      34.491 -16.326 -23.345  0.00  0.00    +0.167 C 
ATOM     29  C   UNL     1      34.555 -18.000 -25.085  0.00  0.00    +0.061 C 
ATOM     30  C   UNL     1      34.418 -16.668 -24.695  0.00  0.00    +0.170 C 
ENDBRANCH   1  25
BRANCH   2  31
ATOM     31  N   UNL     1      32.626 -20.023 -21.310  0.00  0.00    +0.382 N 
ATOM     32  H   UNL     1      32.093 -19.154 -21.266  0.00  0.00    -0.089 HD
ATOM     33  H   UNL     1      32.119 -20.759 -20.821  0.00  0.00    -0.089 HD
ATOM     34  H   UNL     1      32.759 -20.290 -22.286  0.00  0.00    -0.089 HD
ENDBRANCH   2  31
TORSDOF 4
ENDMDL
MODEL 3
REMARK VINA RESULT:     -12.4      3.648      4.416
REMARK  Name = 11974440
REMARK  4 active torsions:
REMARK  status: ('A' for Active; 'I' for Inactive)
REMARK    1  A    between atoms: C_1  and  C_25
REMARK    2  A    between atoms: C_2  and  N_31
REMARK    3  A    between atoms: C_5  and  C_12
REMARK    4  A    between atoms: C_17  and  C_21
REMARK                            x       y       z     vdW  Elec       q    Type
REMARK                         _______ _______ _______ _____ _____    ______ ____
ROOT
ATOM      1  C   UNL     1      35.139 -20.103 -21.221  0.00  0.00    +0.009 C 
ATOM      2  C   UNL     1      33.981 -20.172 -20.192  0.00  0.00    -0.057 C 
ATOM      3  C   UNL     1      34.196 -21.345 -19.215  0.00  0.00    +0.009 C 
ATOM      4  C   UNL     1      36.497 -19.937 -20.499  0.00  0.00    +0.028 C 
ATOM      5  C   UNL     1      35.606 -21.434 -18.714  0.00  0.00    +0.025 C 
ATOM      6  C   UNL     1      36.641 -20.797 -19.278  0.00  0.00    -0.026 C 
ENDROOT
BRANCH   5  12
ATOM      7  O   UNL     1      36.961 -22.107 -16.951  0.00  0.00    -0.270 OA
ATOM      8  N   UNL     1      34.885 -23.143 -17.106  0.00  0.00    -0.267 N 
ATOM      9  N   UNL     1      32.659 -23.666 -15.569  0.00  0.00    -0.292 N 
ATOM     10  N   UNL     1      33.730 -24.517 -13.869  0.00  0.00    -0.132 NA
ATOM     11  N   UNL     1      32.387 -24.417 -13.546  0.00  0.00    -0.125 NA
ATOM     12  C   UNL     1      35.877 -22.258 -17.519  0.00  0.00    +0.245 C 
ATOM     13  C   UNL     1      33.610 -23.404 -17.803  0.00  0.00    +0.119 C 
ATOM     14  C   UNL     1      35.120 -23.969 -15.911  0.00  0.00    +0.160 C 
ATOM     15  C   UNL     1      32.439 -23.085 -16.875  0.00  0.00    +0.130 C 
ATOM     16  C   UNL     1      33.881 -24.057 -15.094  0.00  0.00    +0.164 A 
ATOM     17  C   UNL     1      31.762 -23.902 -14.582  0.00  0.00    +0.238 A 
BRANCH  17  21
ATOM     18  F   UNL     1      30.022 -22.264 -14.706  0.00  0.00    -0.163 F 
ATOM     19  F   UNL     1      29.731 -24.096 -15.829  0.00  0.00    -0.163 F 
ATOM     20  F   UNL     1      29.580 -24.119 -13.660  0.00  0.00    -0.163 F 
ATOM     21  C   UNL     1      30.324 -23.604 -14.692  0.00  0.00    +0.452 C 
ENDBRANCH  17  21
ENDBRANCH   5  12
BRANCH   1  25
ATOM     22  F   UNL     1      35.151 -17.331 -20.616  0.00  0.00    -0.204 F 
ATOM     23  F   UNL     1      34.470 -18.723 -25.861  0.00  0.00    -0.202 F 
ATOM     24  F   UNL     1      34.502 -16.087 -25.135  0.00  0.00    -0.202 F 
ATOM     25  C   UNL     1      34.969 -19.019 -22.274  0.00  0.00    +0.006 C 
ATOM     26  C   UNL     1      34.987 -17.679 -21.899  0.00  0.00    +0.138 C 
ATOM     27  C   UNL     1      34.795 -19.377 -23.608  0.00  0.00    +0.030 C 
ATOM     28  C   UNL     1      34.638 -18.385 -24.575  0.00  0.00    +0.167 C 
ATOM     29  C   UNL     1      34.830 -16.687 -22.867  0.00  0.00    +0.061 C 
ATOM     30  C   UNL     1      34.656 -17.040 -24.205  0.00  0.00    +0.170 C 
ENDBRANCH   1  25
BRANCH   2  31
ATOM     31  N   UNL     1      32.683 -20.326 -20.855  0.00  0.00    +0.382 N 
ATOM     32  H   UNL     1      32.080 -20.921 -20.286  0.00  0.00    -0.089 HD
ATOM     33  H   UNL     1      32.817 -20.754 -21.770  0.00  0.00    -0.089 HD
ATOM     34  H   UNL     1      32.248 -19.410 -20.967  0.00  0.00    -0.089 HD
ENDBRANCH   2  31
TORSDOF 4
ENDMDL
MODEL 4
REMARK VINA RESULT:     -11.5      0.744      1.524
REMARK  Name = 11974440
REMARK  4 active torsions:
REMARK  status: ('A' for Active; 'I' for Inactive)
REMARK    1  A    between atoms: C_1  and  C_25
REMARK    2  A    between atoms: C_2  and  N_31
REMARK    3  A    between atoms: C_5  and  C_12
REMARK    4  A    between atoms: C_17  and  C_21
REMARK                            x       y       z     vdW  Elec       q    Type
REMARK                         _______ _______ _______ _____ _____    ______ ____
ROOT
ATOM      1  C   UNL     1      34.625 -19.621 -20.375  0.00  0.00    +0.009 C 
ATOM      2  C   UNL     1      35.683 -20.752 -20.290  0.00  0.00    -0.057 C 
ATOM      3  C   UNL     1      35.485 -21.580 -19.004  0.00  0.00    +0.009 C 
ATOM      4  C   UNL     1      33.196 -20.212 -20.351  0.00  0.00    +0.028 C 
ATOM      5  C   UNL     1      34.048 -21.921 -18.747  0.00  0.00    +0.025 C 
ATOM      6  C   UNL     1      33.017 -21.320 -19.355  0.00  0.00    -0.026 C 
ENDROOT
BRANCH   5  12
ATOM      7  O   UNL     1      32.784 -23.729 -18.021  0.00  0.00    -0.270 OA
ATOM      8  N   UNL     1      34.566 -23.109 -16.663  0.00  0.00    -0.267 N 
ATOM      9  N   UNL     1      36.787 -24.203 -15.452  0.00  0.00    -0.292 N 
ATOM     10  N   UNL     1      35.754 -25.879 -14.513  0.00  0.00    -0.132 NA
ATOM     11  N   UNL     1      37.114 -26.016 -14.297  0.00  0.00    -0.125 NA
ATOM     12  C   UNL     1      33.743 -22.994 -17.779  0.00  0.00    +0.245 C 
ATOM     13  C   UNL     1      35.673 -22.202 -16.301  0.00  0.00    +0.119 C 
ATOM     14  C   UNL     1      34.295 -24.176 -15.686  0.00  0.00    +0.160 C 
ATOM     15  C   UNL     1      36.979 -22.989 -16.216  0.00  0.00    +0.130 C 
ATOM     16  C   UNL     1      35.569 -24.780 -15.215  0.00  0.00    +0.164 A 
ATOM     17  C   UNL     1      37.717 -24.997 -14.870  0.00  0.00    +0.238 A 
BRANCH  17  21
ATOM     18  F   UNL     1      39.922 -25.773 -15.379  0.00  0.00    -0.163 F 
ATOM     19  F   UNL     1      39.521 -23.666 -15.702  0.00  0.00    -0.163 F 
ATOM     20  F   UNL     1      39.697 -24.439 -13.678  0.00  0.00    -0.163 F 
ATOM     21  C   UNL     1      39.165 -24.729 -14.909  0.00  0.00    +0.452 C 
ENDBRANCH  17  21
ENDBRANCH   5  12
BRANCH   1  25
ATOM     22  F   UNL     1      34.941 -20.577 -23.028  0.00  0.00    -0.204 F 
ATOM     23  F   UNL     1      34.960 -15.154 -22.327  0.00  0.00    -0.202 F 
ATOM     24  F   UNL     1      35.253 -16.213 -24.830  0.00  0.00    -0.202 F 
ATOM     25  C   UNL     1      34.793 -18.705 -21.578  0.00  0.00    +0.006 C 
ATOM     26  C   UNL     1      34.942 -19.249 -22.849  0.00  0.00    +0.138 C 
ATOM     27  C   UNL     1      34.799 -17.325 -21.395  0.00  0.00    +0.030 C 
ATOM     28  C   UNL     1      34.953 -16.483 -22.496  0.00  0.00    +0.167 C 
ATOM     29  C   UNL     1      35.097 -18.407 -23.950  0.00  0.00    +0.061 C 
ATOM     30  C   UNL     1      35.102 -17.023 -23.773  0.00  0.00    +0.170 C 
ENDBRANCH   1  25
BRANCH   2  31
ATOM     31  N   UNL     1      37.046 -20.214 -20.315  0.00  0.00    +0.382 N 
ATOM     32  H   UNL     1      37.416 -20.273 -21.264  0.00  0.00    -0.089 HD
ATOM     33  H   UNL     1      37.637 -20.757 -19.686  0.00  0.00    -0.089 HD
ATOM     34  H   UNL     1      37.033 -19.239 -20.016  0.00  0.00    -0.089 HD
ENDBRANCH   2  31
TORSDOF 4
ENDMDL
MODEL 5
REMARK VINA RESULT:     -11.5     10.377     16.123
REMARK  Name = 11974440
REMARK  4 active torsions:
REMARK  status: ('A' for Active; 'I' for Inactive)
REMARK    1  A    between atoms: C_1  and  C_25
REMARK    2  A    between atoms: C_2  and  N_31
REMARK    3  A    between atoms: C_5  and  C_12
REMARK    4  A    between atoms: C_17  and  C_21
REMARK                            x       y       z     vdW  Elec       q    Type
REMARK                         _______ _______ _______ _____ _____    ______ ____
ROOT
ATOM      1  C   UNL     1      32.882 -12.239 -23.823  0.00  0.00    +0.009 C 
ATOM      2  C   UNL     1      33.975 -11.140 -23.779  0.00  0.00    -0.057 C 
ATOM      3  C   UNL     1      33.342  -9.758 -23.518  0.00  0.00    +0.009 C 
ATOM      4  C   UNL     1      32.093 -12.271 -22.493  0.00  0.00    +0.028 C 
ATOM      5  C   UNL     1      32.311  -9.788 -22.430  0.00  0.00    +0.025 C 
ATOM      6  C   UNL     1      31.755 -10.911 -21.957  0.00  0.00    -0.026 C 
ENDROOT
BRANCH   5  12
ATOM      7  O   UNL     1      32.037  -8.371 -20.610  0.00  0.00    -0.270 OA
ATOM      8  N   UNL     1      31.366  -7.536 -22.673  0.00  0.00    -0.267 N 
ATOM      9  N   UNL     1      31.749  -5.342 -24.297  0.00  0.00    -0.292 N 
ATOM     10  N   UNL     1      31.335  -3.836 -22.774  0.00  0.00    -0.132 NA
ATOM     11  N   UNL     1      31.755  -3.199 -23.929  0.00  0.00    -0.125 NA
ATOM     12  C   UNL     1      31.891  -8.508 -21.826  0.00  0.00    +0.245 C 
ATOM     13  C   UNL     1      31.105  -7.691 -24.118  0.00  0.00    +0.119 C 
ATOM     14  C   UNL     1      30.949  -6.245 -22.104  0.00  0.00    +0.160 C 
ATOM     15  C   UNL     1      31.899  -6.648 -24.902  0.00  0.00    +0.130 C 
ATOM     16  C   UNL     1      31.338  -5.132 -23.009  0.00  0.00    +0.164 A 
ATOM     17  C   UNL     1      31.999  -4.124 -24.832  0.00  0.00    +0.238 A 
BRANCH  17  21
ATOM     18  F   UNL     1      33.183  -4.973 -26.729  0.00  0.00    -0.163 F 
ATOM     19  F   UNL     1      31.481  -3.689 -27.126  0.00  0.00    -0.163 F 
ATOM     20  F   UNL     1      33.320  -2.840 -26.336  0.00  0.00    -0.163 F 
ATOM     21  C   UNL     1      32.478  -3.916 -26.209  0.00  0.00    +0.452 C 
ENDBRANCH  17  21
ENDBRANCH   5  12
BRANCH   1  25
ATOM     22  F   UNL     1      32.348 -13.566 -26.273  0.00  0.00    -0.204 F 
ATOM     23  F   UNL     1      35.438 -16.230 -22.632  0.00  0.00    -0.202 F 
ATOM     24  F   UNL     1      34.845 -17.390 -25.035  0.00  0.00    -0.202 F 
ATOM     25  C   UNL     1      33.411 -13.627 -24.153  0.00  0.00    +0.006 C 
ATOM     26  C   UNL     1      33.106 -14.212 -25.377  0.00  0.00    +0.138 C 
ATOM     27  C   UNL     1      34.196 -14.302 -23.223  0.00  0.00    +0.030 C 
ATOM     28  C   UNL     1      34.682 -15.575 -23.522  0.00  0.00    +0.167 C 
ATOM     29  C   UNL     1      33.592 -15.485 -25.677  0.00  0.00    +0.061 C 
ATOM     30  C   UNL     1      34.380 -16.166 -24.749  0.00  0.00    +0.170 C 
ENDBRANCH   1  25
BRANCH   2  31
ATOM     31  N   UNL     1      34.739 -11.094 -25.030  0.00  0.00    +0.382 N 
ATOM     32  H   UNL     1      35.734 -11.197 -24.824  0.00  0.00    -0.089 HD
ATOM     33  H   UNL     1      34.579 -10.201 -25.493  0.00  0.00    -0.089 HD
ATOM     34  H   UNL     1      34.439 -11.854 -25.640  0.00  0.00    -0.089 HD
ENDBRANCH   2  31
TORSDOF 4
ENDMDL
MODEL 6
REMARK VINA RESULT:     -11.4      4.159     10.125
REMARK  Name = 11974440
REMARK  4 active torsions:
REMARK  status: ('A' for Active; 'I' for Inactive)
REMARK    1  A    between atoms: C_1  and  C_25
REMARK    2  A    between atoms: C_2  and  N_31
REMARK    3  A    between atoms: C_5  and  C_12
REMARK    4  A    between atoms: C_17  and  C_21
REMARK                            x       y       z     vdW  Elec       q    Type
REMARK                         _______ _______ _______ _____ _____    ______ ____
ROOT
ATOM      1  C   UNL     1      34.883 -21.415 -19.723  0.00  0.00    +0.009 C 
ATOM      2  C   UNL     1      36.117 -20.532 -20.046  0.00  0.00    -0.057 C 
ATOM      3  C   UNL     1      36.017 -19.966 -21.477  0.00  0.00    +0.009 C 
ATOM      4  C   UNL     1      33.578 -20.598 -19.870  0.00  0.00    +0.028 C 
ATOM      5  C   UNL     1      34.652 -19.437 -21.799  0.00  0.00    +0.025 C 
ATOM      6  C   UNL     1      33.556 -19.707 -21.077  0.00  0.00    -0.026 C 
ENDROOT
BRANCH   5  12
ATOM      7  O   UNL     1      34.293 -19.078 -24.065  0.00  0.00    -0.270 OA
ATOM      8  N   UNL     1      34.591 -17.179 -22.758  0.00  0.00    -0.267 N 
ATOM      9  N   UNL     1      33.362 -14.775 -22.203  0.00  0.00    -0.292 N 
ATOM     10  N   UNL     1      33.098 -14.151 -24.277  0.00  0.00    -0.132 NA
ATOM     11  N   UNL     1      32.469 -13.234 -23.451  0.00  0.00    -0.125 NA
ATOM     12  C   UNL     1      34.500 -18.551 -22.971  0.00  0.00    +0.245 C 
ATOM     13  C   UNL     1      34.912 -16.517 -21.478  0.00  0.00    +0.119 C 
ATOM     14  C   UNL     1      34.431 -16.268 -23.903  0.00  0.00    +0.160 C 
ATOM     15  C   UNL     1      33.771 -15.585 -21.076  0.00  0.00    +0.130 C 
ATOM     16  C   UNL     1      33.632 -15.079 -23.510  0.00  0.00    +0.164 A 
ATOM     17  C   UNL     1      32.640 -13.629 -22.209  0.00  0.00    +0.238 A 
BRANCH  17  21
ATOM     18  F   UNL     1      31.939 -13.819 -19.929  0.00  0.00    -0.163 F 
ATOM     19  F   UNL     1      32.965 -11.994 -20.494  0.00  0.00    -0.163 F 
ATOM     20  F   UNL     1      30.928 -12.346 -21.169  0.00  0.00    -0.163 F 
ATOM     21  C   UNL     1      32.137 -12.971 -20.991  0.00  0.00    +0.452 C 
ENDBRANCH  17  21
ENDBRANCH   5  12
BRANCH   1  25
ATOM     22  F   UNL     1      32.717 -22.876 -18.617  0.00  0.00    -0.204 F 
ATOM     23  F   UNL     1      37.251 -22.486 -15.585  0.00  0.00    -0.202 F 
ATOM     24  F   UNL     1      35.087 -23.865 -14.643  0.00  0.00    -0.202 F 
ATOM     25  C   UNL     1      34.936 -22.077 -18.355  0.00  0.00    +0.006 C 
ATOM     26  C   UNL     1      33.832 -22.778 -17.881  0.00  0.00    +0.138 C 
ATOM     27  C   UNL     1      36.091 -21.975 -17.586  0.00  0.00    +0.030 C 
ATOM     28  C   UNL     1      36.143 -22.581 -16.331  0.00  0.00    +0.167 C 
ATOM     29  C   UNL     1      33.883 -23.384 -16.626  0.00  0.00    +0.061 C 
ATOM     30  C   UNL     1      35.039 -23.285 -15.850  0.00  0.00    +0.170 C 
ENDBRANCH   1  25
BRANCH   2  31
ATOM     31  N   UNL     1      37.367 -21.285 -19.909  0.00  0.00    +0.382 N 
ATOM     32  H   UNL     1      37.153 -22.268 -19.736  0.00  0.00    -0.089 HD
ATOM     33  H   UNL     1      37.904 -20.912 -19.127  0.00  0.00    -0.089 HD
ATOM     34  H   UNL     1      37.910 -21.202 -20.768  0.00  0.00    -0.089 HD
ENDBRANCH   2  31
TORSDOF 4
ENDMDL
MODEL 7
REMARK VINA RESULT:     -11.3     10.523     16.153
REMARK  Name = 11974440
REMARK  4 active torsions:
REMARK  status: ('A' for Active; 'I' for Inactive)
REMARK    1  A    between atoms: C_1  and  C_25
REMARK    2  A    between atoms: C_2  and  N_31
REMARK    3  A    between atoms: C_5  and  C_12
REMARK    4  A    between atoms: C_17  and  C_21
REMARK                            x       y       z     vdW  Elec       q    Type
REMARK                         _______ _______ _______ _____ _____    ______ ____
ROOT
ATOM      1  C   UNL     1      32.832 -12.075 -23.727  0.00  0.00    +0.009 C 
ATOM      2  C   UNL     1      33.967 -11.023 -23.626  0.00  0.00    -0.057 C 
ATOM      3  C   UNL     1      33.383  -9.623 -23.352  0.00  0.00    +0.009 C 
ATOM      4  C   UNL     1      32.001 -12.104 -22.422  0.00  0.00    +0.028 C 
ATOM      5  C   UNL     1      32.318  -9.633 -22.296  0.00  0.00    +0.025 C 
ATOM      6  C   UNL     1      31.702 -10.742 -21.866  0.00  0.00    -0.026 C 
ENDROOT
BRANCH   5  12
ATOM      7  O   UNL     1      32.137  -8.211 -20.469  0.00  0.00    -0.270 OA
ATOM      8  N   UNL     1      31.369  -7.379 -22.499  0.00  0.00    -0.267 N 
ATOM      9  N   UNL     1      31.679  -5.191 -24.145  0.00  0.00    -0.292 N 
ATOM     10  N   UNL     1      31.343  -3.679 -22.609  0.00  0.00    -0.132 NA
ATOM     11  N   UNL     1      31.709  -3.047 -23.785  0.00  0.00    -0.125 NA
ATOM     12  C   UNL     1      31.931  -8.350 -21.676  0.00  0.00    +0.245 C 
ATOM     13  C   UNL     1      31.038  -7.537 -23.929  0.00  0.00    +0.119 C 
ATOM     14  C   UNL     1      30.983  -6.085 -21.913  0.00  0.00    +0.160 C 
ATOM     15  C   UNL     1      31.795  -6.498 -24.753  0.00  0.00    +0.130 C 
ATOM     16  C   UNL     1      31.331  -4.975 -22.839  0.00  0.00    +0.164 A 
ATOM     17  C   UNL     1      31.906  -3.974 -24.695  0.00  0.00    +0.238 A 
BRANCH  17  21
ATOM     18  F   UNL     1      33.094  -4.781 -26.609  0.00  0.00    -0.163 F 
ATOM     19  F   UNL     1      31.274  -3.661 -26.980  0.00  0.00    -0.163 F 
ATOM     20  F   UNL     1      33.058  -2.632 -26.284  0.00  0.00    -0.163 F 
ATOM     21  C   UNL     1      32.318  -3.771 -26.095  0.00  0.00    +0.452 C 
ENDBRANCH  17  21
ENDBRANCH   5  12
BRANCH   1  25
ATOM     22  F   UNL     1      34.517 -13.603 -22.030  0.00  0.00    -0.204 F 
ATOM     23  F   UNL     1      32.998 -15.910 -26.751  0.00  0.00    -0.202 F 
ATOM     24  F   UNL     1      34.620 -17.270 -25.020  0.00  0.00    -0.202 F 
ATOM     25  C   UNL     1      33.314 -13.476 -24.072  0.00  0.00    +0.006 C 
ATOM     26  C   UNL     1      34.139 -14.163 -23.188  0.00  0.00    +0.138 C 
ATOM     27  C   UNL     1      32.926 -14.059 -25.275  0.00  0.00    +0.030 C 
ATOM     28  C   UNL     1      33.367 -15.343 -25.594  0.00  0.00    +0.167 C 
ATOM     29  C   UNL     1      34.580 -15.447 -23.508  0.00  0.00    +0.061 C 
ATOM     30  C   UNL     1      34.194 -16.037 -24.711  0.00  0.00    +0.170 C 
ENDBRANCH   1  25
BRANCH   2  31
ATOM     31  N   UNL     1      34.771 -10.982 -24.851  0.00  0.00    +0.382 N 
ATOM     32  H   UNL     1      34.425 -10.237 -25.458  0.00  0.00    -0.089 HD
ATOM     33  H   UNL     1      34.699 -11.876 -25.335  0.00  0.00    -0.089 HD
ATOM     34  H   UNL     1      35.745 -10.800 -24.612  0.00  0.00    -0.089 HD
ENDBRANCH   2  31
TORSDOF 4
ENDMDL
MODEL 8
REMARK VINA RESULT:     -10.7      5.945     11.399
REMARK  Name = 11974440
REMARK  4 active torsions:
REMARK  status: ('A' for Active; 'I' for Inactive)
REMARK    1  A    between atoms: C_1  and  C_25
REMARK    2  A    between atoms: C_2  and  N_31
REMARK    3  A    between atoms: C_5  and  C_12
REMARK    4  A    between atoms: C_17  and  C_21
REMARK                            x       y       z     vdW  Elec       q    Type
REMARK                         _______ _______ _______ _____ _____    ______ ____
ROOT
ATOM      1  C   UNL     1      34.012 -18.653 -22.009  0.00  0.00    +0.009 C 
ATOM      2  C   UNL     1      35.002 -18.515 -23.195  0.00  0.00    -0.057 C 
ATOM      3  C   UNL     1      34.526 -17.421 -24.171  0.00  0.00    +0.009 C 
ATOM      4  C   UNL     1      33.876 -17.308 -21.257  0.00  0.00    +0.028 C 
ATOM      5  C   UNL     1      34.068 -16.177 -23.471  0.00  0.00    +0.025 C 
ATOM      6  C   UNL     1      33.786 -16.115 -22.163  0.00  0.00    -0.026 C 
ENDROOT
BRANCH   5  12
ATOM      7  O   UNL     1      33.775 -15.044 -25.478  0.00  0.00    -0.270 OA
ATOM      8  N   UNL     1      33.986 -13.726 -23.574  0.00  0.00    -0.267 N 
ATOM      9  N   UNL     1      32.684 -11.686 -22.256  0.00  0.00    -0.292 N 
ATOM     10  N   UNL     1      32.473 -10.372 -23.984  0.00  0.00    -0.132 NA
ATOM     11  N   UNL     1      31.797  -9.813 -22.914  0.00  0.00    -0.125 NA
ATOM     12  C   UNL     1      33.934 -14.936 -24.261  0.00  0.00    +0.245 C 
ATOM     13  C   UNL     1      34.251 -13.555 -22.132  0.00  0.00    +0.119 C 
ATOM     14  C   UNL     1      33.843 -12.472 -24.330  0.00  0.00    +0.160 C 
ATOM     15  C   UNL     1      33.075 -12.837 -21.472  0.00  0.00    +0.130 C 
ATOM     16  C   UNL     1      33.003 -11.506 -23.574  0.00  0.00    +0.164 A 
ATOM     17  C   UNL     1      31.937 -10.619 -21.885  0.00  0.00    +0.238 A 
BRANCH  17  21
ATOM     18  F   UNL     1      30.117 -10.950 -20.368  0.00  0.00    -0.163 F 
ATOM     19  F   UNL     1      32.118 -11.026 -19.535  0.00  0.00    -0.163 F 
ATOM     20  F   UNL     1      31.275  -9.122 -20.159  0.00  0.00    -0.163 F 
ATOM     21  C   UNL     1      31.380 -10.438 -20.533  0.00  0.00    +0.452 C 
ENDBRANCH  17  21
ENDBRANCH   5  12
BRANCH   1  25
ATOM     22  F   UNL     1      32.068 -20.098 -20.530  0.00  0.00    -0.204 F 
ATOM     23  F   UNL     1      37.305 -21.467 -19.747  0.00  0.00    -0.202 F 
ATOM     24  F   UNL     1      35.328 -22.777 -18.388  0.00  0.00    -0.202 F 
ATOM     25  C   UNL     1      34.364 -19.766 -21.033  0.00  0.00    +0.006 C 
ATOM     26  C   UNL     1      33.354 -20.430 -20.345  0.00  0.00    +0.138 C 
ATOM     27  C   UNL     1      35.697 -20.111 -20.836  0.00  0.00    +0.030 C 
ATOM     28  C   UNL     1      36.023 -21.130 -19.942  0.00  0.00    +0.167 C 
ATOM     29  C   UNL     1      33.679 -21.449 -19.451  0.00  0.00    +0.061 C 
ATOM     30  C   UNL     1      35.014 -21.800 -19.249  0.00  0.00    +0.170 C 
ENDBRANCH   1  25
BRANCH   2  31
ATOM     31  N   UNL     1      35.149 -19.781 -23.920  0.00  0.00    +0.382 N 
ATOM     32  H   UNL     1      34.547 -20.487 -23.495  0.00  0.00    -0.089 HD
ATOM     33  H   UNL     1      36.119 -20.089 -23.872  0.00  0.00    -0.089 HD
ATOM     34  H   UNL     1      34.880 -19.647 -24.895  0.00  0.00    -0.089 HD
ENDBRANCH   2  31
TORSDOF 4
ENDMDL
MODEL 9
REMARK VINA RESULT:     -10.6      3.739      9.987
REMARK  Name = 11974440
REMARK  4 active torsions:
REMARK  status: ('A' for Active; 'I' for Inactive)
REMARK    1  A    between atoms: C_1  and  C_25
REMARK    2  A    between atoms: C_2  and  N_31
REMARK    3  A    between atoms: C_5  and  C_12
REMARK    4  A    between atoms: C_17  and  C_21
REMARK                            x       y       z     vdW  Elec       q    Type
REMARK                         _______ _______ _______ _____ _____    ______ ____
ROOT
ATOM      1  C   UNL     1      35.084 -21.279 -18.566  0.00  0.00    +0.009 C 
ATOM      2  C   UNL     1      33.908 -21.627 -19.516  0.00  0.00    -0.057 C 
ATOM      3  C   UNL     1      33.753 -20.545 -20.604  0.00  0.00    +0.009 C 
ATOM      4  C   UNL     1      36.403 -21.150 -19.363  0.00  0.00    +0.028 C 
ATOM      5  C   UNL     1      35.063 -20.135 -21.205  0.00  0.00    +0.025 C 
ATOM      6  C   UNL     1      36.256 -20.412 -20.662  0.00  0.00    -0.026 C 
ENDROOT
BRANCH   5  12
ATOM      7  O   UNL     1      34.987 -20.051 -23.525  0.00  0.00    -0.270 OA
ATOM      8  N   UNL     1      35.094 -18.006 -22.426  0.00  0.00    -0.267 N 
ATOM      9  N   UNL     1      33.775 -15.588 -22.315  0.00  0.00    -0.292 N 
ATOM     10  N   UNL     1      33.766 -15.216 -24.465  0.00  0.00    -0.132 NA
ATOM     11  N   UNL     1      33.027 -14.228 -23.837  0.00  0.00    -0.125 NA
ATOM     12  C   UNL     1      35.048 -19.395 -22.484  0.00  0.00    +0.245 C 
ATOM     13  C   UNL     1      35.244 -17.191 -21.203  0.00  0.00    +0.119 C 
ATOM     14  C   UNL     1      35.068 -17.239 -23.682  0.00  0.00    +0.160 C 
ATOM     15  C   UNL     1      34.050 -16.250 -21.059  0.00  0.00    +0.130 C 
ATOM     16  C   UNL     1      34.211 -16.034 -23.533  0.00  0.00    +0.164 A 
ATOM     17  C   UNL     1      33.045 -14.471 -22.546  0.00  0.00    +0.238 A 
BRANCH  17  21
ATOM     18  F   UNL     1      33.251 -13.060 -20.625  0.00  0.00    -0.163 F 
ATOM     19  F   UNL     1      31.574 -12.683 -21.947  0.00  0.00    -0.163 F 
ATOM     20  F   UNL     1      31.577 -14.446 -20.675  0.00  0.00    -0.163 F 
ATOM     21  C   UNL     1      32.386 -13.690 -21.485  0.00  0.00    +0.452 C 
ENDBRANCH  17  21
ENDBRANCH   5  12
BRANCH   1  25
ATOM     22  F   UNL     1      37.538 -21.629 -17.186  0.00  0.00    -0.204 F 
ATOM     23  F   UNL     1      33.307 -24.677 -15.537  0.00  0.00    -0.202 F 
ATOM     24  F   UNL     1      35.731 -24.911 -14.295  0.00  0.00    -0.202 F 
ATOM     25  C   UNL     1      35.261 -22.257 -17.414  0.00  0.00    +0.006 C 
ATOM     26  C   UNL     1      36.496 -22.371 -16.786  0.00  0.00    +0.138 C 
ATOM     27  C   UNL     1      34.182 -23.031 -16.998  0.00  0.00    +0.030 C 
ATOM     28  C   UNL     1      34.341 -23.928 -15.942  0.00  0.00    +0.167 C 
ATOM     29  C   UNL     1      36.655 -23.269 -15.730  0.00  0.00    +0.061 C 
ATOM     30  C   UNL     1      35.577 -24.047 -15.308  0.00  0.00    +0.170 C 
ENDBRANCH   1  25
BRANCH   2  31
ATOM     31  N   UNL     1      32.646 -21.759 -18.781  0.00  0.00    +0.382 N 
ATOM     32  H   UNL     1      31.880 -21.410 -19.357  0.00  0.00    -0.089 HD
ATOM     33  H   UNL     1      32.697 -21.217 -17.919  0.00  0.00    -0.089 HD
ATOM     34  H   UNL     1      32.484 -22.741 -18.558  0.00  0.00    -0.089 HD
ENDBRANCH   2  31
TORSDOF 4
ENDMDL
