MODEL 1
REMARK VINA RESULT:      -8.6      0.000      0.000
REMARK  Name = 24748051
REMARK  5 active torsions:
REMARK  status: ('A' for Active; 'I' for Inactive)
REMARK    1  A    between atoms: C_1  and  C_7
REMARK    2  A    between atoms: C_3  and  O_13
REMARK    3  A    between atoms: C_4  and  C_15
REMARK    4  A    between atoms: C_15  and  C_16
REMARK    5  A    between atoms: C_16  and  N_17
REMARK                            x       y       z     vdW  Elec       q    Type
REMARK                         _______ _______ _______ _____ _____    ______ ____
ROOT
ATOM      1  C   UNL     1      34.690 -18.471 -22.025  0.00  0.00    +0.011 C 
ATOM      2  C   UNL     1      34.538 -17.331 -21.236  0.00  0.00    -0.006 C 
ATOM      3  C   UNL     1      34.873 -18.346 -23.403  0.00  0.00    +0.130 C 
ATOM      4  C   UNL     1      34.569 -16.067 -21.824  0.00  0.00    -0.024 C 
ATOM      5  C   UNL     1      34.905 -17.082 -23.991  0.00  0.00    +0.036 C 
ATOM      6  C   UNL     1      34.752 -15.942 -23.201  0.00  0.00    -0.001 C 
ENDROOT
BRANCH   1   7
ATOM      7  C   UNL     1      34.652 -19.840 -21.369  0.00  0.00    +0.025 C 
ATOM      8  C   UNL     1      35.923 -20.116 -20.548  0.00  0.00    +0.004 C 
ATOM      9  C   UNL     1      33.390 -20.027 -20.509  0.00  0.00    +0.004 C 
ATOM     10  C   UNL     1      35.879 -21.499 -19.899  0.00  0.00    +0.000 C 
ATOM     11  C   UNL     1      33.356 -21.410 -19.862  0.00  0.00    +0.000 C 
ATOM     12  C   UNL     1      34.622 -21.685 -19.056  0.00  0.00    +0.000 C 
ENDBRANCH   1   7
BRANCH   3  13
ATOM     13  O   UNL     1      35.021 -19.449 -24.188  0.00  0.00    -0.506 OA
ATOM     14  H   UNL     1      35.867 -19.839 -24.295  0.00  0.00    +0.292 HD
ENDBRANCH   3  13
BRANCH   4  15
ATOM     15  C   UNL     1      34.408 -14.848 -20.980  0.00  0.00    +0.002 C 
BRANCH  15  16
ATOM     16  C   UNL     1      32.935 -14.557 -20.659  0.00  0.00    -0.081 C 
BRANCH  16  17
ATOM     17  N   UNL     1      32.318 -13.718 -21.680  0.00  0.00    +0.381 N 
ATOM     18  H   UNL     1      31.984 -14.304 -22.445  0.00  0.00    -0.089 HD
ATOM     19  H   UNL     1      33.007 -13.056 -22.037  0.00  0.00    -0.089 HD
ATOM     20  H   UNL     1      31.534 -13.208 -21.274  0.00  0.00    -0.089 HD
ENDBRANCH  16  17
ENDBRANCH  15  16
ENDBRANCH   4  15
TORSDOF 5
ENDMDL
MODEL 2
REMARK VINA RESULT:      -8.3      2.864      5.672
REMARK  Name = 24748051
REMARK  5 active torsions:
REMARK  status: ('A' for Active; 'I' for Inactive)
REMARK    1  A    between atoms: C_1  and  C_7
REMARK    2  A    between atoms: C_3  and  O_13
REMARK    3  A    between atoms: C_4  and  C_15
REMARK    4  A    between atoms: C_15  and  C_16
REMARK    5  A    between atoms: C_16  and  N_17
REMARK                            x       y       z     vdW  Elec       q    Type
REMARK                         _______ _______ _______ _____ _____    ______ ____
ROOT
ATOM      1  C   UNL     1      35.569 -18.873 -21.723  0.00  0.00    +0.011 C 
ATOM      2  C   UNL     1      34.393 -19.451 -21.248  0.00  0.00    -0.006 C 
ATOM      3  C   UNL     1      36.804 -19.298 -21.230  0.00  0.00    +0.130 C 
ATOM      4  C   UNL     1      34.450 -20.454 -20.280  0.00  0.00    -0.024 C 
ATOM      5  C   UNL     1      36.861 -20.300 -20.262  0.00  0.00    +0.036 C 
ATOM      6  C   UNL     1      35.684 -20.878 -19.787  0.00  0.00    -0.001 C 
ENDROOT
BRANCH   1   7
ATOM      7  C   UNL     1      35.489 -17.782 -22.776  0.00  0.00    +0.025 C 
ATOM      8  C   UNL     1      34.818 -18.281 -24.067  0.00  0.00    +0.004 C 
ATOM      9  C   UNL     1      34.785 -16.522 -22.241  0.00  0.00    +0.004 C 
ATOM     10  C   UNL     1      34.750 -17.179 -25.123  0.00  0.00    +0.000 C 
ATOM     11  C   UNL     1      34.717 -15.428 -23.304  0.00  0.00    +0.000 C 
ATOM     12  C   UNL     1      34.060 -15.928 -24.587  0.00  0.00    +0.000 C 
ENDBRANCH   1   7
BRANCH   3  13
ATOM     13  O   UNL     1      37.963 -18.742 -21.682  0.00  0.00    -0.506 OA
ATOM     14  H   UNL     1      38.078 -17.812 -21.656  0.00  0.00    +0.292 HD
ENDBRANCH   3  13
BRANCH   4  15
ATOM     15  C   UNL     1      33.192 -21.073 -19.772  0.00  0.00    +0.002 C 
BRANCH  15  16
ATOM     16  C   UNL     1      33.468 -22.247 -18.822  0.00  0.00    -0.081 C 
BRANCH  16  17
ATOM     17  N   UNL     1      32.317 -22.532 -17.972  0.00  0.00    +0.381 N 
ATOM     18  H   UNL     1      31.568 -21.873 -18.183  0.00  0.00    -0.089 HD
ATOM     19  H   UNL     1      32.587 -22.438 -16.993  0.00  0.00    -0.089 HD
ATOM     20  H   UNL     1      31.993 -23.483 -18.146  0.00  0.00    -0.089 HD
ENDBRANCH  16  17
ENDBRANCH  15  16
ENDBRANCH   4  15
TORSDOF 5
ENDMDL
MODEL 3
REMARK VINA RESULT:      -8.1      2.396      3.476
REMARK  Name = 24748051
REMARK  5 active torsions:
REMARK  status: ('A' for Active; 'I' for Inactive)
REMARK    1  A    between atoms: C_1  and  C_7
REMARK    2  A    between atoms: C_3  and  O_13
REMARK    3  A    between atoms: C_4  and  C_15
REMARK    4  A    between atoms: C_15  and  C_16
REMARK    5  A    between atoms: C_16  and  N_17
REMARK                            x       y       z     vdW  Elec       q    Type
REMARK                         _______ _______ _______ _____ _____    ______ ____
ROOT
ATOM      1  C   UNL     1      34.728 -16.878 -21.897  0.00  0.00    +0.011 C 
ATOM      2  C   UNL     1      34.540 -17.051 -23.268  0.00  0.00    -0.006 C 
ATOM      3  C   UNL     1      34.667 -15.600 -21.341  0.00  0.00    +0.130 C 
ATOM      4  C   UNL     1      34.290 -15.947 -24.083  0.00  0.00    -0.024 C 
ATOM      5  C   UNL     1      34.417 -14.495 -22.155  0.00  0.00    +0.036 C 
ATOM      6  C   UNL     1      34.229 -14.669 -23.526  0.00  0.00    -0.001 C 
ENDROOT
BRANCH   1   7
ATOM      7  C   UNL     1      35.000 -18.091 -21.026  0.00  0.00    +0.025 C 
ATOM      8  C   UNL     1      33.903 -19.159 -21.172  0.00  0.00    +0.004 C 
ATOM      9  C   UNL     1      36.391 -18.690 -21.298  0.00  0.00    +0.004 C 
ATOM     10  C   UNL     1      34.181 -20.371 -20.285  0.00  0.00    +0.000 C 
ATOM     11  C   UNL     1      36.659 -19.903 -20.409  0.00  0.00    +0.000 C 
ATOM     12  C   UNL     1      35.565 -20.957 -20.550  0.00  0.00    +0.000 C 
ENDBRANCH   1   7
BRANCH   3  13
ATOM     13  O   UNL     1      34.851 -15.413 -20.004  0.00  0.00    -0.506 OA
ATOM     14  H   UNL     1      34.185 -15.674 -19.399  0.00  0.00    +0.292 HD
ENDBRANCH   3  13
BRANCH   4  15
ATOM     15  C   UNL     1      34.087 -16.131 -25.548  0.00  0.00    +0.002 C 
BRANCH  15  16
ATOM     16  C   UNL     1      32.944 -15.260 -26.089  0.00  0.00    -0.081 C 
BRANCH  16  17
ATOM     17  N   UNL     1      33.442 -14.194 -26.950  0.00  0.00    +0.381 N 
ATOM     18  H   UNL     1      32.662 -13.617 -27.264  0.00  0.00    -0.089 HD
ATOM     19  H   UNL     1      33.909 -14.602 -27.759  0.00  0.00    -0.089 HD
ATOM     20  H   UNL     1      34.104 -13.618 -26.430  0.00  0.00    -0.089 HD
ENDBRANCH  16  17
ENDBRANCH  15  16
ENDBRANCH   4  15
TORSDOF 5
ENDMDL
MODEL 4
REMARK VINA RESULT:      -8.1      2.890      5.879
REMARK  Name = 24748051
REMARK  5 active torsions:
REMARK  status: ('A' for Active; 'I' for Inactive)
REMARK    1  A    between atoms: C_1  and  C_7
REMARK    2  A    between atoms: C_3  and  O_13
REMARK    3  A    between atoms: C_4  and  C_15
REMARK    4  A    between atoms: C_15  and  C_16
REMARK    5  A    between atoms: C_16  and  N_17
REMARK                            x       y       z     vdW  Elec       q    Type
REMARK                         _______ _______ _______ _____ _____    ______ ____
ROOT
ATOM      1  C   UNL     1      34.302 -19.729 -20.942  0.00  0.00    +0.011 C 
ATOM      2  C   UNL     1      35.546 -20.134 -20.459  0.00  0.00    -0.006 C 
ATOM      3  C   UNL     1      33.143 -20.381 -20.519  0.00  0.00    +0.130 C 
ATOM      4  C   UNL     1      35.631 -21.192 -19.553  0.00  0.00    -0.024 C 
ATOM      5  C   UNL     1      33.228 -21.439 -19.613  0.00  0.00    +0.036 C 
ATOM      6  C   UNL     1      34.473 -21.844 -19.130  0.00  0.00    -0.001 C 
ENDROOT
BRANCH   1   7
ATOM      7  C   UNL     1      34.227 -18.578 -21.928  0.00  0.00    +0.025 C 
ATOM      8  C   UNL     1      34.648 -17.245 -21.285  0.00  0.00    +0.004 C 
ATOM      9  C   UNL     1      35.048 -18.859 -23.199  0.00  0.00    +0.004 C 
ATOM     10  C   UNL     1      34.560 -16.091 -22.283  0.00  0.00    +0.000 C 
ATOM     11  C   UNL     1      34.959 -17.699 -24.189  0.00  0.00    +0.000 C 
ATOM     12  C   UNL     1      35.367 -16.377 -23.546  0.00  0.00    +0.000 C 
ENDBRANCH   1   7
BRANCH   3  13
ATOM     13  O   UNL     1      31.920 -20.000 -20.983  0.00  0.00    -0.506 OA
ATOM     14  H   UNL     1      31.386 -19.422 -20.475  0.00  0.00    +0.292 HD
ENDBRANCH   3  13
BRANCH   4  15
ATOM     15  C   UNL     1      36.961 -21.624 -19.035  0.00  0.00    +0.002 C 
BRANCH  15  16
ATOM     16  C   UNL     1      36.931 -21.901 -17.525  0.00  0.00    -0.081 C 
BRANCH  16  17
ATOM     17  N   UNL     1      37.405 -20.754 -16.759  0.00  0.00    +0.381 N 
ATOM     18  H   UNL     1      38.143 -20.279 -17.279  0.00  0.00    -0.089 HD
ATOM     19  H   UNL     1      37.772 -21.072 -15.863  0.00  0.00    -0.089 HD
ATOM     20  H   UNL     1      36.632 -20.108 -16.600  0.00  0.00    -0.089 HD
ENDBRANCH  16  17
ENDBRANCH  15  16
ENDBRANCH   4  15
TORSDOF 5
ENDMDL
MODEL 5
REMARK VINA RESULT:      -8.0      2.675      5.730
REMARK  Name = 24748051
REMARK  5 active torsions:
REMARK  status: ('A' for Active; 'I' for Inactive)
REMARK    1  A    between atoms: C_1  and  C_7
REMARK    2  A    between atoms: C_3  and  O_13
REMARK    3  A    between atoms: C_4  and  C_15
REMARK    4  A    between atoms: C_15  and  C_16
REMARK    5  A    between atoms: C_16  and  N_17
REMARK                            x       y       z     vdW  Elec       q    Type
REMARK                         _______ _______ _______ _____ _____    ______ ____
ROOT
ATOM      1  C   UNL     1      34.149 -16.854 -21.840  0.00  0.00    +0.011 C 
ATOM      2  C   UNL     1      33.424 -17.761 -21.068  0.00  0.00    -0.006 C 
ATOM      3  C   UNL     1      35.163 -17.310 -22.683  0.00  0.00    +0.130 C 
ATOM      4  C   UNL     1      33.712 -19.124 -21.138  0.00  0.00    -0.024 C 
ATOM      5  C   UNL     1      35.452 -18.673 -22.754  0.00  0.00    +0.036 C 
ATOM      6  C   UNL     1      34.726 -19.580 -21.981  0.00  0.00    -0.001 C 
ENDROOT
BRANCH   1   7
ATOM      7  C   UNL     1      33.823 -15.374 -21.751  0.00  0.00    +0.025 C 
ATOM      8  C   UNL     1      33.256 -14.832 -23.075  0.00  0.00    +0.004 C 
ATOM      9  C   UNL     1      32.873 -15.068 -20.580  0.00  0.00    +0.004 C 
ATOM     10  C   UNL     1      32.940 -13.340 -22.977  0.00  0.00    +0.000 C 
ATOM     11  C   UNL     1      32.558 -13.576 -20.492  0.00  0.00    +0.000 C 
ATOM     12  C   UNL     1      32.006 -13.039 -21.809  0.00  0.00    +0.000 C 
ENDBRANCH   1   7
BRANCH   3  13
ATOM     13  O   UNL     1      35.883 -16.438 -23.443  0.00  0.00    -0.506 OA
ATOM     14  H   UNL     1      36.811 -16.541 -23.522  0.00  0.00    +0.292 HD
ENDBRANCH   3  13
BRANCH   4  15
ATOM     15  C   UNL     1      32.935 -20.094 -20.314  0.00  0.00    +0.002 C 
BRANCH  15  16
ATOM     16  C   UNL     1      33.822 -21.213 -19.749  0.00  0.00    -0.081 C 
BRANCH  16  17
ATOM     17  N   UNL     1      33.031 -22.238 -19.079  0.00  0.00    +0.381 N 
ATOM     18  H   UNL     1      32.111 -22.297 -19.516  0.00  0.00    -0.089 HD
ATOM     19  H   UNL     1      32.924 -21.995 -18.095  0.00  0.00    -0.089 HD
ATOM     20  H   UNL     1      33.503 -23.139 -19.158  0.00  0.00    -0.089 HD
ENDBRANCH  16  17
ENDBRANCH  15  16
ENDBRANCH   4  15
TORSDOF 5
ENDMDL
MODEL 6
REMARK VINA RESULT:      -8.0      1.284      1.872
REMARK  Name = 24748051
REMARK  5 active torsions:
REMARK  status: ('A' for Active; 'I' for Inactive)
REMARK    1  A    between atoms: C_1  and  C_7
REMARK    2  A    between atoms: C_3  and  O_13
REMARK    3  A    between atoms: C_4  and  C_15
REMARK    4  A    between atoms: C_15  and  C_16
REMARK    5  A    between atoms: C_16  and  N_17
REMARK                            x       y       z     vdW  Elec       q    Type
REMARK                         _______ _______ _______ _____ _____    ______ ____
ROOT
ATOM      1  C   UNL     1      34.621 -17.988 -22.073  0.00  0.00    +0.011 C 
ATOM      2  C   UNL     1      34.469 -16.629 -21.800  0.00  0.00    -0.006 C 
ATOM      3  C   UNL     1      34.817 -18.417 -23.386  0.00  0.00    +0.130 C 
ATOM      4  C   UNL     1      34.512 -15.699 -22.838  0.00  0.00    -0.024 C 
ATOM      5  C   UNL     1      34.860 -17.488 -24.426  0.00  0.00    +0.036 C 
ATOM      6  C   UNL     1      34.708 -16.128 -24.151  0.00  0.00    -0.001 C 
ENDROOT
BRANCH   1   7
ATOM      7  C   UNL     1      34.571 -18.987 -20.931  0.00  0.00    +0.025 C 
ATOM      8  C   UNL     1      33.290 -19.838 -20.972  0.00  0.00    +0.004 C 
ATOM      9  C   UNL     1      35.824 -19.880 -20.897  0.00  0.00    +0.004 C 
ATOM     10  C   UNL     1      33.244 -20.834 -19.814  0.00  0.00    +0.000 C 
ATOM     11  C   UNL     1      35.768 -20.874 -19.739  0.00  0.00    +0.000 C 
ATOM     12  C   UNL     1      34.492 -21.710 -19.776  0.00  0.00    +0.000 C 
ENDBRANCH   1   7
BRANCH   3  13
ATOM     13  O   UNL     1      34.965 -19.741 -23.672  0.00  0.00    -0.506 OA
ATOM     14  H   UNL     1      34.560 -20.386 -23.126  0.00  0.00    +0.292 HD
ENDBRANCH   3  13
BRANCH   4  15
ATOM     15  C   UNL     1      34.351 -14.246 -22.546  0.00  0.00    +0.002 C 
BRANCH  15  16
ATOM     16  C   UNL     1      33.533 -13.525 -23.627  0.00  0.00    -0.081 C 
BRANCH  16  17
ATOM     17  N   UNL     1      34.145 -12.257 -24.007  0.00  0.00    +0.381 N 
ATOM     18  H   UNL     1      34.810 -12.414 -24.764  0.00  0.00    -0.089 HD
ATOM     19  H   UNL     1      34.632 -11.861 -23.204  0.00  0.00    -0.089 HD
ATOM     20  H   UNL     1      33.421 -11.610 -24.319  0.00  0.00    -0.089 HD
ENDBRANCH  16  17
ENDBRANCH  15  16
ENDBRANCH   4  15
TORSDOF 5
ENDMDL
MODEL 7
REMARK VINA RESULT:      -7.7      4.312      7.223
REMARK  Name = 24748051
REMARK  5 active torsions:
REMARK  status: ('A' for Active; 'I' for Inactive)
REMARK    1  A    between atoms: C_1  and  C_7
REMARK    2  A    between atoms: C_3  and  O_13
REMARK    3  A    between atoms: C_4  and  C_15
REMARK    4  A    between atoms: C_15  and  C_16
REMARK    5  A    between atoms: C_16  and  N_17
REMARK                            x       y       z     vdW  Elec       q    Type
REMARK                         _______ _______ _______ _____ _____    ______ ____
ROOT
ATOM      1  C   UNL     1      35.314 -21.536 -19.085  0.00  0.00    +0.011 C 
ATOM      2  C   UNL     1      36.366 -21.562 -18.171  0.00  0.00    -0.006 C 
ATOM      3  C   UNL     1      34.144 -22.250 -18.823  0.00  0.00    +0.130 C 
ATOM      4  C   UNL     1      36.250 -22.302 -16.994  0.00  0.00    -0.024 C 
ATOM      5  C   UNL     1      34.027 -22.991 -17.647  0.00  0.00    +0.036 C 
ATOM      6  C   UNL     1      35.080 -23.016 -16.732  0.00  0.00    -0.001 C 
ENDROOT
BRANCH   1   7
ATOM      7  C   UNL     1      35.457 -20.726 -20.361  0.00  0.00    +0.025 C 
ATOM      8  C   UNL     1      34.187 -19.915 -20.670  0.00  0.00    +0.004 C 
ATOM      9  C   UNL     1      36.697 -19.814 -20.323  0.00  0.00    +0.004 C 
ATOM     10  C   UNL     1      34.339 -19.111 -21.961  0.00  0.00    +0.000 C 
ATOM     11  C   UNL     1      36.838 -19.011 -21.615  0.00  0.00    +0.000 C 
ATOM     12  C   UNL     1      35.573 -18.215 -21.924  0.00  0.00    +0.000 C 
ENDBRANCH   1   7
BRANCH   3  13
ATOM     13  O   UNL     1      33.107 -22.237 -19.707  0.00  0.00    -0.506 OA
ATOM     14  H   UNL     1      32.652 -23.032 -19.906  0.00  0.00    +0.292 HD
ENDBRANCH   3  13
BRANCH   4  15
ATOM     15  C   UNL     1      37.374 -22.329 -16.015  0.00  0.00    +0.002 C 
BRANCH  15  16
ATOM     16  C   UNL     1      37.332 -23.575 -15.119  0.00  0.00    -0.081 C 
BRANCH  16  17
ATOM     17  N   UNL     1      38.447 -24.473 -15.396  0.00  0.00    +0.381 N 
ATOM     18  H   UNL     1      39.245 -24.213 -14.816  0.00  0.00    -0.089 HD
ATOM     19  H   UNL     1      38.704 -24.401 -16.380  0.00  0.00    -0.089 HD
ATOM     20  H   UNL     1      38.171 -25.432 -15.186  0.00  0.00    -0.089 HD
ENDBRANCH  16  17
ENDBRANCH  15  16
ENDBRANCH   4  15
TORSDOF 5
ENDMDL
MODEL 8
REMARK VINA RESULT:      -7.6      3.658      6.949
REMARK  Name = 24748051
REMARK  5 active torsions:
REMARK  status: ('A' for Active; 'I' for Inactive)
REMARK    1  A    between atoms: C_1  and  C_7
REMARK    2  A    between atoms: C_3  and  O_13
REMARK    3  A    between atoms: C_4  and  C_15
REMARK    4  A    between atoms: C_15  and  C_16
REMARK    5  A    between atoms: C_16  and  N_17
REMARK                            x       y       z     vdW  Elec       q    Type
REMARK                         _______ _______ _______ _____ _____    ______ ____
ROOT
ATOM      1  C   UNL     1      33.103 -14.238 -22.973  0.00  0.00    +0.011 C 
ATOM      2  C   UNL     1      33.971 -15.308 -22.759  0.00  0.00    -0.006 C 
ATOM      3  C   UNL     1      32.410 -13.677 -21.899  0.00  0.00    +0.130 C 
ATOM      4  C   UNL     1      34.146 -15.819 -21.473  0.00  0.00    -0.024 C 
ATOM      5  C   UNL     1      32.585 -14.187 -20.613  0.00  0.00    +0.036 C 
ATOM      6  C   UNL     1      33.454 -15.258 -20.400  0.00  0.00    -0.001 C 
ENDROOT
BRANCH   1   7
ATOM      7  C   UNL     1      32.923 -13.696 -24.379  0.00  0.00    +0.025 C 
ATOM      8  C   UNL     1      33.852 -12.501 -24.656  0.00  0.00    +0.004 C 
ATOM      9  C   UNL     1      33.107 -14.793 -25.443  0.00  0.00    +0.004 C 
ATOM     10  C   UNL     1      33.657 -11.958 -26.070  0.00  0.00    +0.000 C 
ATOM     11  C   UNL     1      32.914 -14.241 -26.854  0.00  0.00    +0.000 C 
ATOM     12  C   UNL     1      33.830 -13.050 -27.121  0.00  0.00    +0.000 C 
ENDBRANCH   1   7
BRANCH   3  13
ATOM     13  O   UNL     1      31.557 -12.632 -22.091  0.00  0.00    -0.506 OA
ATOM     14  H   UNL     1      31.314 -12.088 -21.367  0.00  0.00    +0.292 HD
ENDBRANCH   3  13
BRANCH   4  15
ATOM     15  C   UNL     1      35.075 -16.962 -21.244  0.00  0.00    +0.002 C 
BRANCH  15  16
ATOM     16  C   UNL     1      34.932 -18.048 -22.320  0.00  0.00    -0.081 C 
BRANCH  16  17
ATOM     17  N   UNL     1      36.147 -18.180 -23.115  0.00  0.00    +0.381 N 
ATOM     18  H   UNL     1      36.929 -18.415 -22.504  0.00  0.00    -0.089 HD
ATOM     19  H   UNL     1      36.340 -17.299 -23.590  0.00  0.00    -0.089 HD
ATOM     20  H   UNL     1      36.023 -18.919 -23.807  0.00  0.00    -0.089 HD
ENDBRANCH  16  17
ENDBRANCH  15  16
ENDBRANCH   4  15
TORSDOF 5
ENDMDL
MODEL 9
REMARK VINA RESULT:      -7.6      8.663     10.921
REMARK  Name = 24748051
REMARK  5 active torsions:
REMARK  status: ('A' for Active; 'I' for Inactive)
REMARK    1  A    between atoms: C_1  and  C_7
REMARK    2  A    between atoms: C_3  and  O_13
REMARK    3  A    between atoms: C_4  and  C_15
REMARK    4  A    between atoms: C_15  and  C_16
REMARK    5  A    between atoms: C_16  and  N_17
REMARK                            x       y       z     vdW  Elec       q    Type
REMARK                         _______ _______ _______ _____ _____    ______ ____
ROOT
ATOM      1  C   UNL     1      32.848  -7.971 -23.006  0.00  0.00    +0.011 C 
ATOM      2  C   UNL     1      31.870  -6.994 -23.186  0.00  0.00    -0.006 C 
ATOM      3  C   UNL     1      34.028  -7.922 -23.748  0.00  0.00    +0.130 C 
ATOM      4  C   UNL     1      32.071  -5.968 -24.109  0.00  0.00    -0.024 C 
ATOM      5  C   UNL     1      34.230  -6.895 -24.671  0.00  0.00    +0.036 C 
ATOM      6  C   UNL     1      33.251  -5.918 -24.851  0.00  0.00    -0.001 C 
ENDROOT
BRANCH   1   7
ATOM      7  C   UNL     1      32.612  -9.082 -21.998  0.00  0.00    +0.025 C 
ATOM      8  C   UNL     1      32.276  -8.528 -20.604  0.00  0.00    +0.004 C 
ATOM      9  C   UNL     1      31.529 -10.066 -22.475  0.00  0.00    +0.004 C 
ATOM     10  C   UNL     1      32.049  -9.653 -19.595  0.00  0.00    +0.000 C 
ATOM     11  C   UNL     1      31.306 -11.185 -21.460  0.00  0.00    +0.000 C 
ATOM     12  C   UNL     1      30.982 -10.632 -20.075  0.00  0.00    +0.000 C 
ENDBRANCH   1   7
BRANCH   3  13
ATOM     13  O   UNL     1      34.993  -8.870 -23.586  0.00  0.00    -0.506 OA
ATOM     14  H   UNL     1      35.882  -8.677 -23.814  0.00  0.00    +0.292 HD
ENDBRANCH   3  13
BRANCH   4  15
ATOM     15  C   UNL     1      31.025  -4.922 -24.301  0.00  0.00    +0.002 C 
BRANCH  15  16
ATOM     16  C   UNL     1      31.266  -3.693 -23.412  0.00  0.00    -0.081 C 
BRANCH  16  17
ATOM     17  N   UNL     1      30.414  -3.712 -22.228  0.00  0.00    +0.381 N 
ATOM     18  H   UNL     1      29.439  -3.610 -22.510  0.00  0.00    -0.089 HD
ATOM     19  H   UNL     1      30.671  -2.942 -21.612  0.00  0.00    -0.089 HD
ATOM     20  H   UNL     1      30.535  -4.597 -21.736  0.00  0.00    -0.089 HD
ENDBRANCH  16  17
ENDBRANCH  15  16
ENDBRANCH   4  15
TORSDOF 5
ENDMDL
