MODEL 1
REMARK VINA RESULT:      -9.4      0.000      0.000
REMARK  Name = 71234
REMARK  5 active torsions:
REMARK  status: ('A' for Active; 'I' for Inactive)
REMARK    1  A    between atoms: C_1  and  N_4
REMARK    2  A    between atoms: C_1  and  C_13
REMARK    3  A    between atoms: C_5  and  C_8
REMARK    4  A    between atoms: C_13  and  N_15
REMARK    5  A    between atoms: C_16  and  C_19
REMARK                            x       y       z     vdW  Elec       q    Type
REMARK                         _______ _______ _______ _____ _____    ______ ____
ROOT
ATOM      1  C   UNL     1      34.485 -20.582 -20.087  0.00  0.00    +0.091 C 
ATOM      2  C   UNL     1      35.824 -21.297 -19.936  0.00  0.00    +0.023 C 
ENDROOT
BRANCH   1   4
ATOM      3  O   UNL     1      35.648 -18.002 -20.573  0.00  0.00    -0.270 OA
ATOM      4  N   UNL     1      34.443 -19.836 -21.323  0.00  0.00    -0.301 N 
ATOM      5  C   UNL     1      35.038 -18.591 -21.461  0.00  0.00    +0.247 C 
ATOM      6  H   UNL     1      33.974 -20.226 -22.095  0.00  0.00    +0.150 HD
BRANCH   5   8
ATOM      7  N   UNL     1      34.782 -15.925 -24.065  0.00  0.00    -0.242 NA
ATOM      8  C   UNL     1      34.881 -17.943 -22.789  0.00  0.00    +0.072 C 
ATOM      9  C   UNL     1      34.702 -18.715 -23.911  0.00  0.00    +0.008 C 
ATOM     10  C   UNL     1      34.918 -16.577 -22.889  0.00  0.00    +0.103 C 
ATOM     11  C   UNL     1      34.560 -18.079 -25.138  0.00  0.00    +0.021 C 
ATOM     12  C   UNL     1      34.607 -16.695 -25.162  0.00  0.00    +0.099 C 
ENDBRANCH   5   8
ENDBRANCH   1   4
BRANCH   1  13
ATOM     13  C   UNL     1      33.292 -21.534 -19.979  0.00  0.00    +0.109 C 
BRANCH  13  15
ATOM     14  O   UNL     1      33.776 -23.987 -18.567  0.00  0.00    -0.270 OA
ATOM     15  N   UNL     1      32.926 -21.830 -18.620  0.00  0.00    -0.299 N 
ATOM     16  C   UNL     1      33.202 -23.051 -18.017  0.00  0.00    +0.247 C 
ATOM     17  H   UNL     1      32.460 -21.138 -18.095  0.00  0.00    +0.150 HD
BRANCH  16  19
ATOM     18  N   UNL     1      33.274 -23.668 -14.334  0.00  0.00    -0.242 NA
ATOM     19  C   UNL     1      32.734 -23.209 -16.616  0.00  0.00    +0.072 C 
ATOM     20  C   UNL     1      31.404 -23.051 -16.317  0.00  0.00    +0.008 C 
ATOM     21  C   UNL     1      33.632 -23.511 -15.628  0.00  0.00    +0.103 C 
ATOM     22  C   UNL     1      30.996 -23.204 -14.997  0.00  0.00    +0.021 C 
ATOM     23  C   UNL     1      31.961 -23.510 -14.052  0.00  0.00    +0.099 C 
ENDBRANCH  16  19
ENDBRANCH  13  15
ENDBRANCH   1  13
TORSDOF 5
ENDMDL
MODEL 2
REMARK VINA RESULT:      -9.3      2.763      8.291
REMARK  Name = 71234
REMARK  5 active torsions:
REMARK  status: ('A' for Active; 'I' for Inactive)
REMARK    1  A    between atoms: C_1  and  N_4
REMARK    2  A    between atoms: C_1  and  C_13
REMARK    3  A    between atoms: C_5  and  C_8
REMARK    4  A    between atoms: C_13  and  N_15
REMARK    5  A    between atoms: C_16  and  C_19
REMARK                            x       y       z     vdW  Elec       q    Type
REMARK                         _______ _______ _______ _____ _____    ______ ____
ROOT
ATOM      1  C   UNL     1      32.787 -23.321 -15.264  0.00  0.00    +0.091 C 
ATOM      2  C   UNL     1      31.737 -23.723 -14.233  0.00  0.00    +0.023 C 
ENDROOT
BRANCH   1   4
ATOM      3  O   UNL     1      35.452 -22.385 -15.777  0.00  0.00    -0.270 OA
ATOM      4  N   UNL     1      34.013 -24.053 -15.053  0.00  0.00    -0.301 N 
ATOM      5  C   UNL     1      35.259 -23.513 -15.333  0.00  0.00    +0.247 C 
ATOM      6  H   UNL     1      33.962 -24.970 -14.699  0.00  0.00    +0.150 HD
BRANCH   5   8
ATOM      7  N   UNL     1      38.771 -24.623 -14.707  0.00  0.00    -0.242 NA
ATOM      8  C   UNL     1      36.422 -24.405 -15.086  0.00  0.00    +0.072 C 
ATOM      9  C   UNL     1      36.238 -25.765 -15.011  0.00  0.00    +0.008 C 
ATOM     10  C   UNL     1      37.673 -23.869 -14.934  0.00  0.00    +0.103 C 
ATOM     11  C   UNL     1      37.344 -26.573 -14.778  0.00  0.00    +0.021 C 
ATOM     12  C   UNL     1      38.577 -25.959 -14.635  0.00  0.00    +0.099 C 
ENDBRANCH   5   8
ENDBRANCH   1   4
BRANCH   1  13
ATOM     13  C   UNL     1      32.291 -23.480 -16.703  0.00  0.00    +0.109 C 
BRANCH  13  15
ATOM     14  O   UNL     1      33.948 -23.852 -19.018  0.00  0.00    -0.270 OA
ATOM     15  N   UNL     1      32.778 -22.454 -17.585  0.00  0.00    -0.299 N 
ATOM     16  C   UNL     1      33.578 -22.729 -18.687  0.00  0.00    +0.247 C 
ATOM     17  H   UNL     1      32.532 -21.517 -17.401  0.00  0.00    +0.150 HD
BRANCH  16  19
ATOM     18  N   UNL     1      35.819 -20.194 -20.271  0.00  0.00    -0.242 NA
ATOM     19  C   UNL     1      34.019 -21.556 -19.484  0.00  0.00    +0.072 C 
ATOM     20  C   UNL     1      33.090 -20.786 -20.140  0.00  0.00    +0.008 C 
ATOM     21  C   UNL     1      35.350 -21.247 -19.563  0.00  0.00    +0.103 C 
ATOM     22  C   UNL     1      33.533 -19.694 -20.879  0.00  0.00    +0.021 C 
ATOM     23  C   UNL     1      34.894 -19.444 -20.911  0.00  0.00    +0.099 C 
ENDBRANCH  16  19
ENDBRANCH  13  15
ENDBRANCH   1  13
TORSDOF 5
ENDMDL
MODEL 3
REMARK VINA RESULT:      -9.3      2.917      5.408
REMARK  Name = 71234
REMARK  5 active torsions:
REMARK  status: ('A' for Active; 'I' for Inactive)
REMARK    1  A    between atoms: C_1  and  N_4
REMARK    2  A    between atoms: C_1  and  C_13
REMARK    3  A    between atoms: C_5  and  C_8
REMARK    4  A    between atoms: C_13  and  N_15
REMARK    5  A    between atoms: C_16  and  C_19
REMARK                            x       y       z     vdW  Elec       q    Type
REMARK                         _______ _______ _______ _____ _____    ______ ____
ROOT
ATOM      1  C   UNL     1      32.131 -23.425 -16.465  0.00  0.00    +0.091 C 
ATOM      2  C   UNL     1      30.608 -23.341 -16.431  0.00  0.00    +0.023 C 
ENDROOT
BRANCH   1   4
ATOM      3  O   UNL     1      33.847 -23.961 -18.704  0.00  0.00    -0.270 OA
ATOM      4  N   UNL     1      32.674 -22.456 -17.387  0.00  0.00    -0.301 N 
ATOM      5  C   UNL     1      33.498 -22.813 -18.443  0.00  0.00    +0.247 C 
ATOM      6  H   UNL     1      32.451 -21.505 -17.259  0.00  0.00    +0.150 HD
BRANCH   5   8
ATOM      7  N   UNL     1      35.859 -20.457 -20.125  0.00  0.00    -0.242 NA
ATOM      8  C   UNL     1      33.995 -21.694 -19.284  0.00  0.00    +0.072 C 
ATOM      9  C   UNL     1      33.104 -20.901 -19.966  0.00  0.00    +0.008 C 
ATOM     10  C   UNL     1      35.341 -21.457 -19.378  0.00  0.00    +0.103 C 
ATOM     11  C   UNL     1      33.599 -19.863 -20.745  0.00  0.00    +0.021 C 
ATOM     12  C   UNL     1      34.972 -19.684 -20.791  0.00  0.00    +0.099 C 
ENDBRANCH   5   8
ENDBRANCH   1   4
BRANCH   1  13
ATOM     13  C   UNL     1      32.761 -23.279 -15.078  0.00  0.00    +0.109 C 
BRANCH  13  15
ATOM     14  O   UNL     1      35.425 -22.342 -15.593  0.00  0.00    -0.270 OA
ATOM     15  N   UNL     1      33.979 -24.028 -14.928  0.00  0.00    -0.299 N 
ATOM     16  C   UNL     1      35.230 -23.489 -15.202  0.00  0.00    +0.247 C 
ATOM     17  H   UNL     1      33.924 -24.962 -14.617  0.00  0.00    +0.150 HD
BRANCH  16  19
ATOM     18  N   UNL     1      38.733 -24.656 -14.638  0.00  0.00    -0.242 NA
ATOM     19  C   UNL     1      36.389 -24.402 -15.022  0.00  0.00    +0.072 C 
ATOM     20  C   UNL     1      36.202 -25.761 -15.066  0.00  0.00    +0.008 C 
ATOM     21  C   UNL     1      37.638 -23.883 -14.810  0.00  0.00    +0.103 C 
ATOM     22  C   UNL     1      37.305 -26.590 -14.894  0.00  0.00    +0.021 C 
ATOM     23  C   UNL     1      38.537 -25.993 -14.685  0.00  0.00    +0.099 C 
ENDBRANCH  16  19
ENDBRANCH  13  15
ENDBRANCH   1  13
TORSDOF 5
ENDMDL
MODEL 4
REMARK VINA RESULT:      -9.3      2.963      5.099
REMARK  Name = 71234
REMARK  5 active torsions:
REMARK  status: ('A' for Active; 'I' for Inactive)
REMARK    1  A    between atoms: C_1  and  N_4
REMARK    2  A    between atoms: C_1  and  C_13
REMARK    3  A    between atoms: C_5  and  C_8
REMARK    4  A    between atoms: C_13  and  N_15
REMARK    5  A    between atoms: C_16  and  C_19
REMARK                            x       y       z     vdW  Elec       q    Type
REMARK                         _______ _______ _______ _____ _____    ______ ____
ROOT
ATOM      1  C   UNL     1      34.393 -16.095 -21.626  0.00  0.00    +0.091 C 
ATOM      2  C   UNL     1      34.507 -15.177 -20.412  0.00  0.00    +0.023 C 
ENDROOT
BRANCH   1   4
ATOM      3  O   UNL     1      32.249 -14.386 -22.479  0.00  0.00    -0.270 OA
ATOM      4  N   UNL     1      34.339 -15.323 -22.844  0.00  0.00    -0.301 N 
ATOM      5  C   UNL     1      33.254 -14.522 -23.171  0.00  0.00    +0.247 C 
ATOM      6  H   UNL     1      35.100 -15.367 -23.467  0.00  0.00    +0.150 HD
BRANCH   5   8
ATOM      7  N   UNL     1      33.816 -11.792 -25.658  0.00  0.00    -0.242 NA
ATOM      8  C   UNL     1      33.342 -13.812 -24.474  0.00  0.00    +0.072 C 
ATOM      9  C   UNL     1      33.048 -14.480 -25.638  0.00  0.00    +0.008 C 
ATOM     10  C   UNL     1      33.716 -12.496 -24.508  0.00  0.00    +0.103 C 
ATOM     11  C   UNL     1      33.140 -13.789 -26.840  0.00  0.00    +0.021 C 
ATOM     12  C   UNL     1      33.524 -12.459 -26.797  0.00  0.00    +0.099 C 
ENDBRANCH   5   8
ENDBRANCH   1   4
BRANCH   1  13
ATOM     13  C   UNL     1      35.511 -17.138 -21.684  0.00  0.00    +0.109 C 
BRANCH  13  15
ATOM     14  O   UNL     1      34.117 -19.530 -22.443  0.00  0.00    -0.270 OA
ATOM     15  N   UNL     1      35.260 -18.285 -20.854  0.00  0.00    -0.299 N 
ATOM     16  C   UNL     1      34.573 -19.403 -21.309  0.00  0.00    +0.247 C 
ATOM     17  H   UNL     1      35.588 -18.277 -19.926  0.00  0.00    +0.150 HD
BRANCH  16  19
ATOM     18  N   UNL     1      32.852 -21.877 -19.102  0.00  0.00    -0.242 NA
ATOM     19  C   UNL     1      34.372 -20.494 -20.321  0.00  0.00    +0.072 C 
ATOM     20  C   UNL     1      35.459 -21.100 -19.742  0.00  0.00    +0.008 C 
ATOM     21  C   UNL     1      33.104 -20.892 -19.992  0.00  0.00    +0.103 C 
ATOM     22  C   UNL     1      35.241 -22.118 -18.820  0.00  0.00    +0.021 C 
ATOM     23  C   UNL     1      33.931 -22.466 -18.537  0.00  0.00    +0.099 C 
ENDBRANCH  16  19
ENDBRANCH  13  15
ENDBRANCH   1  13
TORSDOF 5
ENDMDL
MODEL 5
REMARK VINA RESULT:      -9.0      2.454      4.252
REMARK  Name = 71234
REMARK  5 active torsions:
REMARK  status: ('A' for Active; 'I' for Inactive)
REMARK    1  A    between atoms: C_1  and  N_4
REMARK    2  A    between atoms: C_1  and  C_13
REMARK    3  A    between atoms: C_5  and  C_8
REMARK    4  A    between atoms: C_13  and  N_15
REMARK    5  A    between atoms: C_16  and  C_19
REMARK                            x       y       z     vdW  Elec       q    Type
REMARK                         _______ _______ _______ _____ _____    ______ ____
ROOT
ATOM      1  C   UNL     1      35.682 -18.214 -22.602  0.00  0.00    +0.091 C 
ATOM      2  C   UNL     1      34.929 -19.279 -23.394  0.00  0.00    +0.023 C 
ENDROOT
BRANCH   1   4
ATOM      3  O   UNL     1      35.327 -15.729 -23.996  0.00  0.00    -0.270 OA
ATOM      4  N   UNL     1      34.797 -17.136 -22.230  0.00  0.00    -0.301 N 
ATOM      5  C   UNL     1      34.694 -15.968 -22.971  0.00  0.00    +0.247 C 
ATOM      6  H   UNL     1      34.246 -17.233 -21.420  0.00  0.00    +0.150 HD
BRANCH   5   8
ATOM      7  N   UNL     1      32.293 -13.107 -22.879  0.00  0.00    -0.242 NA
ATOM      8  C   UNL     1      33.758 -14.943 -22.439  0.00  0.00    +0.072 C 
ATOM      9  C   UNL     1      33.499 -14.886 -21.092  0.00  0.00    +0.008 C 
ATOM     10  C   UNL     1      33.155 -14.061 -23.296  0.00  0.00    +0.103 C 
ATOM     11  C   UNL     1      32.618 -13.918 -20.625  0.00  0.00    +0.021 C 
ATOM     12  C   UNL     1      32.047 -13.060 -21.551  0.00  0.00    +0.099 C 
ENDBRANCH   5   8
ENDBRANCH   1   4
BRANCH   1  13
ATOM     13  C   UNL     1      36.398 -18.785 -21.377  0.00  0.00    +0.109 C 
BRANCH  13  15
ATOM     14  O   UNL     1      37.090 -21.278 -20.133  0.00  0.00    -0.270 OA
ATOM     15  N   UNL     1      35.546 -19.600 -20.552  0.00  0.00    -0.299 N 
ATOM     16  C   UNL     1      35.969 -20.797 -19.990  0.00  0.00    +0.247 C 
ATOM     17  H   UNL     1      34.625 -19.295 -20.379  0.00  0.00    +0.150 HD
BRANCH  16  19
ATOM     18  N   UNL     1      32.677 -22.163 -18.871  0.00  0.00    -0.242 NA
ATOM     19  C   UNL     1      34.961 -21.534 -19.184  0.00  0.00    +0.072 C 
ATOM     20  C   UNL     1      35.354 -22.232 -18.070  0.00  0.00    +0.008 C 
ATOM     21  C   UNL     1      33.644 -21.515 -19.558  0.00  0.00    +0.103 C 
ATOM     22  C   UNL     1      34.389 -22.912 -17.336  0.00  0.00    +0.021 C 
ATOM     23  C   UNL     1      33.077 -22.846 -17.774  0.00  0.00    +0.099 C 
ENDBRANCH  16  19
ENDBRANCH  13  15
ENDBRANCH   1  13
TORSDOF 5
ENDMDL
MODEL 6
REMARK VINA RESULT:      -9.0      4.070      6.502
REMARK  Name = 71234
REMARK  5 active torsions:
REMARK  status: ('A' for Active; 'I' for Inactive)
REMARK    1  A    between atoms: C_1  and  N_4
REMARK    2  A    between atoms: C_1  and  C_13
REMARK    3  A    between atoms: C_5  and  C_8
REMARK    4  A    between atoms: C_13  and  N_15
REMARK    5  A    between atoms: C_16  and  C_19
REMARK                            x       y       z     vdW  Elec       q    Type
REMARK                         _______ _______ _______ _____ _____    ______ ____
ROOT
ATOM      1  C   UNL     1      33.231 -15.219 -22.139  0.00  0.00    +0.091 C 
ATOM      2  C   UNL     1      32.344 -15.412 -20.912  0.00  0.00    +0.023 C 
ENDROOT
BRANCH   1   4
ATOM      3  O   UNL     1      32.735 -13.838 -24.607  0.00  0.00    -0.270 OA
ATOM      4  N   UNL     1      33.441 -13.815 -22.398  0.00  0.00    -0.301 N 
ATOM      5  C   UNL     1      33.171 -13.237 -23.630  0.00  0.00    +0.247 C 
ATOM      6  H   UNL     1      33.791 -13.247 -21.675  0.00  0.00    +0.150 HD
BRANCH   5   8
ATOM      7  N   UNL     1      32.975  -9.551 -23.050  0.00  0.00    -0.242 NA
ATOM      8  C   UNL     1      33.468 -11.785 -23.743  0.00  0.00    +0.072 C 
ATOM      9  C   UNL     1      34.455 -11.352 -24.594  0.00  0.00    +0.008 C 
ATOM     10  C   UNL     1      32.756 -10.884 -22.996  0.00  0.00    +0.103 C 
ATOM     11  C   UNL     1      34.709  -9.988 -24.677  0.00  0.00    +0.021 C 
ATOM     12  C   UNL     1      33.949  -9.138 -23.892  0.00  0.00    +0.099 C 
ENDBRANCH   5   8
ENDBRANCH   1   4
BRANCH   1  13
ATOM     13  C   UNL     1      34.562 -15.964 -22.028  0.00  0.00    +0.109 C 
BRANCH  13  15
ATOM     14  O   UNL     1      34.521 -18.622 -23.113  0.00  0.00    -0.270 OA
ATOM     15  N   UNL     1      34.464 -17.193 -21.287  0.00  0.00    -0.299 N 
ATOM     16  C   UNL     1      34.451 -18.439 -21.900  0.00  0.00    +0.247 C 
ATOM     17  H   UNL     1      34.403 -17.148 -20.305  0.00  0.00    +0.150 HD
BRANCH  16  19
ATOM     18  N   UNL     1      32.883 -21.094 -19.791  0.00  0.00    -0.242 NA
ATOM     19  C   UNL     1      34.317 -19.611 -20.997  0.00  0.00    +0.072 C 
ATOM     20  C   UNL     1      35.441 -20.265 -20.554  0.00  0.00    +0.008 C 
ATOM     21  C   UNL     1      33.075 -20.036 -20.610  0.00  0.00    +0.103 C 
ATOM     22  C   UNL     1      35.285 -21.358 -19.710  0.00  0.00    +0.021 C 
ATOM     23  C   UNL     1      33.997 -21.729 -19.361  0.00  0.00    +0.099 C 
ENDBRANCH  16  19
ENDBRANCH  13  15
ENDBRANCH   1  13
TORSDOF 5
ENDMDL
MODEL 7
REMARK VINA RESULT:      -9.0      4.057      6.383
REMARK  Name = 71234
REMARK  5 active torsions:
REMARK  status: ('A' for Active; 'I' for Inactive)
REMARK    1  A    between atoms: C_1  and  N_4
REMARK    2  A    between atoms: C_1  and  C_13
REMARK    3  A    between atoms: C_5  and  C_8
REMARK    4  A    between atoms: C_13  and  N_15
REMARK    5  A    between atoms: C_16  and  C_19
REMARK                            x       y       z     vdW  Elec       q    Type
REMARK                         _______ _______ _______ _____ _____    ______ ____
ROOT
ATOM      1  C   UNL     1      33.286 -15.322 -22.019  0.00  0.00    +0.091 C 
ATOM      2  C   UNL     1      32.432 -15.577 -20.781  0.00  0.00    +0.023 C 
ENDROOT
BRANCH   1   4
ATOM      3  O   UNL     1      32.843 -13.977 -24.516  0.00  0.00    -0.270 OA
ATOM      4  N   UNL     1      33.409 -13.905 -22.269  0.00  0.00    -0.301 N 
ATOM      5  C   UNL     1      33.173 -13.347 -23.516  0.00  0.00    +0.247 C 
ATOM      6  H   UNL     1      33.672 -13.315 -21.527  0.00  0.00    +0.150 HD
BRANCH   5   8
ATOM      7  N   UNL     1      32.732  -9.689 -22.893  0.00  0.00    -0.242 NA
ATOM      8  C   UNL     1      33.369 -11.877 -23.615  0.00  0.00    +0.072 C 
ATOM      9  C   UNL     1      34.317 -11.368 -24.469  0.00  0.00    +0.008 C 
ATOM     10  C   UNL     1      32.605 -11.035 -22.852  0.00  0.00    +0.103 C 
ATOM     11  C   UNL     1      34.478  -9.990 -24.538  0.00  0.00    +0.021 C 
ATOM     12  C   UNL     1      33.668  -9.201 -23.738  0.00  0.00    +0.099 C 
ENDBRANCH   5   8
ENDBRANCH   1   4
BRANCH   1  13
ATOM     13  C   UNL     1      34.661 -15.987 -21.934  0.00  0.00    +0.109 C 
BRANCH  13  15
ATOM     14  O   UNL     1      34.527 -18.633 -23.041  0.00  0.00    -0.270 OA
ATOM     15  N   UNL     1      34.647 -17.225 -21.202  0.00  0.00    -0.299 N 
ATOM     16  C   UNL     1      34.580 -18.465 -21.826  0.00  0.00    +0.247 C 
ATOM     17  H   UNL     1      34.687 -17.192 -20.218  0.00  0.00    +0.150 HD
BRANCH  16  19
ATOM     18  N   UNL     1      35.761 -21.308 -19.710  0.00  0.00    -0.242 NA
ATOM     19  C   UNL     1      34.548 -19.647 -20.927  0.00  0.00    +0.072 C 
ATOM     20  C   UNL     1      33.343 -20.150 -20.501  0.00  0.00    +0.008 C 
ATOM     21  C   UNL     1      35.719 -20.231 -20.526  0.00  0.00    +0.103 C 
ATOM     22  C   UNL     1      33.344 -21.258 -19.661  0.00  0.00    +0.021 C 
ATOM     23  C   UNL     1      34.568 -21.794 -19.298  0.00  0.00    +0.099 C 
ENDBRANCH  16  19
ENDBRANCH  13  15
ENDBRANCH   1  13
TORSDOF 5
ENDMDL
MODEL 8
REMARK VINA RESULT:      -9.0      2.824      8.306
REMARK  Name = 71234
REMARK  5 active torsions:
REMARK  status: ('A' for Active; 'I' for Inactive)
REMARK    1  A    between atoms: C_1  and  N_4
REMARK    2  A    between atoms: C_1  and  C_13
REMARK    3  A    between atoms: C_5  and  C_8
REMARK    4  A    between atoms: C_13  and  N_15
REMARK    5  A    between atoms: C_16  and  C_19
REMARK                            x       y       z     vdW  Elec       q    Type
REMARK                         _______ _______ _______ _____ _____    ______ ____
ROOT
ATOM      1  C   UNL     1      34.550 -18.564 -23.411  0.00  0.00    +0.091 C 
ATOM      2  C   UNL     1      34.833 -19.203 -24.767  0.00  0.00    +0.023 C 
ENDROOT
BRANCH   1   4
ATOM      3  O   UNL     1      33.028 -18.789 -20.986  0.00  0.00    -0.270 OA
ATOM      4  N   UNL     1      34.761 -19.515 -22.346  0.00  0.00    -0.301 N 
ATOM      5  C   UNL     1      33.969 -19.546 -21.208  0.00  0.00    +0.247 C 
ATOM      6  H   UNL     1      35.495 -20.166 -22.431  0.00  0.00    +0.150 HD
BRANCH   5   8
ATOM      7  N   UNL     1      33.613 -22.235 -18.639  0.00  0.00    -0.242 NA
ATOM      8  C   UNL     1      34.334 -20.569 -20.193  0.00  0.00    +0.072 C 
ATOM      9  C   UNL     1      35.654 -20.787 -19.884  0.00  0.00    +0.008 C 
ATOM     10  C   UNL     1      33.351 -21.291 -19.569  0.00  0.00    +0.103 C 
ATOM     11  C   UNL     1      35.963 -21.751 -18.932  0.00  0.00    +0.021 C 
ATOM     12  C   UNL     1      34.917 -22.441 -18.344  0.00  0.00    +0.099 C 
ENDBRANCH   5   8
ENDBRANCH   1   4
BRANCH   1  13
ATOM     13  C   UNL     1      35.362 -17.288 -23.178  0.00  0.00    +0.109 C 
BRANCH  13  15
ATOM     14  O   UNL     1      34.929 -15.859 -20.726  0.00  0.00    -0.270 OA
ATOM     15  N   UNL     1      34.543 -16.120 -22.998  0.00  0.00    -0.299 N 
ATOM     16  C   UNL     1      34.392 -15.492 -21.768  0.00  0.00    +0.247 C 
ATOM     17  H   UNL     1      34.070 -15.750 -23.779  0.00  0.00    +0.150 HD
BRANCH  16  19
ATOM     18  N   UNL     1      32.524 -12.468 -22.916  0.00  0.00    -0.242 NA
ATOM     19  C   UNL     1      33.490 -14.312 -21.743  0.00  0.00    +0.072 C 
ATOM     20  C   UNL     1      32.822 -13.987 -20.588  0.00  0.00    +0.008 C 
ATOM     21  C   UNL     1      33.328 -13.554 -22.871  0.00  0.00    +0.103 C 
ATOM     22  C   UNL     1      31.984 -12.877 -20.595  0.00  0.00    +0.021 C 
ATOM     23  C   UNL     1      31.871 -12.158 -21.773  0.00  0.00    +0.099 C 
ENDBRANCH  16  19
ENDBRANCH  13  15
ENDBRANCH   1  13
TORSDOF 5
ENDMDL
MODEL 9
REMARK VINA RESULT:      -8.8      4.056      9.649
REMARK  Name = 71234
REMARK  5 active torsions:
REMARK  status: ('A' for Active; 'I' for Inactive)
REMARK    1  A    between atoms: C_1  and  N_4
REMARK    2  A    between atoms: C_1  and  C_13
REMARK    3  A    between atoms: C_5  and  C_8
REMARK    4  A    between atoms: C_13  and  N_15
REMARK    5  A    between atoms: C_16  and  C_19
REMARK                            x       y       z     vdW  Elec       q    Type
REMARK                         _______ _______ _______ _____ _____    ______ ____
ROOT
ATOM      1  C   UNL     1      34.541 -16.022 -21.682  0.00  0.00    +0.091 C 
ATOM      2  C   UNL     1      34.735 -14.945 -20.619  0.00  0.00    +0.023 C 
ENDROOT
BRANCH   1   4
ATOM      3  O   UNL     1      35.739 -18.548 -22.335  0.00  0.00    -0.270 OA
ATOM      4  N   UNL     1      34.254 -17.297 -21.068  0.00  0.00    -0.301 N 
ATOM      5  C   UNL     1      34.888 -18.469 -21.454  0.00  0.00    +0.247 C 
ATOM      6  H   UNL     1      33.582 -17.336 -20.349  0.00  0.00    +0.150 HD
BRANCH   5   8
ATOM      7  N   UNL     1      32.671 -21.092 -19.984  0.00  0.00    -0.242 NA
ATOM      8  C   UNL     1      34.461 -19.701 -20.742  0.00  0.00    +0.072 C 
ATOM      9  C   UNL     1      35.404 -20.548 -20.212  0.00  0.00    +0.008 C 
ATOM     10  C   UNL     1      33.128 -19.989 -20.618  0.00  0.00    +0.103 C 
ATOM     11  C   UNL     1      34.973 -21.693 -19.553  0.00  0.00    +0.021 C 
ATOM     12  C   UNL     1      33.609 -21.917 -19.467  0.00  0.00    +0.099 C 
ENDBRANCH   5   8
ENDBRANCH   1   4
BRANCH   1  13
ATOM     13  C   UNL     1      33.469 -15.652 -22.708  0.00  0.00    +0.109 C 
BRANCH  13  15
ATOM     14  O   UNL     1      34.071 -13.318 -24.268  0.00  0.00    -0.270 OA
ATOM     15  N   UNL     1      32.935 -14.330 -22.517  0.00  0.00    -0.299 N 
ATOM     16  C   UNL     1      33.285 -13.256 -23.326  0.00  0.00    +0.247 C 
ATOM     17  H   UNL     1      32.294 -14.181 -21.784  0.00  0.00    +0.150 HD
BRANCH  16  19
ATOM     18  N   UNL     1      32.550  -9.594 -23.363  0.00  0.00    -0.242 NA
ATOM     19  C   UNL     1      32.666 -11.950 -22.982  0.00  0.00    +0.072 C 
ATOM     20  C   UNL     1      31.690 -11.889 -22.019  0.00  0.00    +0.008 C 
ATOM     21  C   UNL     1      33.072 -10.813 -23.627  0.00  0.00    +0.103 C 
ATOM     22  C   UNL     1      31.128 -10.653 -21.719  0.00  0.00    +0.021 C 
ATOM     23  C   UNL     1      31.589  -9.546 -22.413  0.00  0.00    +0.099 C 
ENDBRANCH  16  19
ENDBRANCH  13  15
ENDBRANCH   1  13
TORSDOF 5
ENDMDL
