MODEL 1
REMARK VINA RESULT:      -6.2      0.000      0.000
REMARK  Name = 4797
REMARK  6 active torsions:
REMARK  status: ('A' for Active; 'I' for Inactive)
REMARK    1  A    between atoms: O_1  and  P_2
REMARK    2  A    between atoms: O_1  and  C_8
REMARK    3  A    between atoms: P_2  and  O_4
REMARK    4  A    between atoms: P_2  and  O_6
REMARK    5  A    between atoms: C_8  and  C_11
REMARK    6  A    between atoms: N_10  and  O_13
REMARK                            x       y       z     vdW  Elec       q    Type
REMARK                         _______ _______ _______ _____ _____    ______ ____
ROOT
ATOM      1  O   UNL     1      38.880 -26.594 -14.136  0.00  0.00    -0.263 OA
ENDROOT
BRANCH   1   2
ATOM      2  P   UNL     1      40.308 -25.909 -14.485  0.00  0.00    +0.474 P 
ATOM      3  O   UNL     1      40.540 -24.572 -13.845  0.00  0.00    -0.227 OA
BRANCH   2   4
ATOM      4  O   UNL     1      40.352 -25.918 -16.102  0.00  0.00    -0.303 OA
ATOM      5  H   UNL     1      40.900 -25.181 -16.414  0.00  0.00    +0.222 HD
ENDBRANCH   2   4
BRANCH   2   6
ATOM      6  O   UNL     1      41.372 -27.056 -14.077  0.00  0.00    -0.303 OA
ATOM      7  H   UNL     1      42.236 -26.650 -13.904  0.00  0.00    +0.222 HD
ENDBRANCH   2   6
ENDBRANCH   1   2
BRANCH   1   8
ATOM      8  C   UNL     1      37.705 -25.824 -14.289  0.00  0.00    +0.240 C 
BRANCH   8  11
ATOM      9  O   UNL     1      37.262 -26.448 -12.009  0.00  0.00    -0.270 OA
ATOM     10  N   UNL     1      35.749 -25.080 -13.028  0.00  0.00    -0.195 N 
ATOM     11  C   UNL     1      36.898 -25.825 -13.006  0.00  0.00    +0.275 C 
ATOM     12  H   UNL     1      35.486 -24.593 -13.842  0.00  0.00    +0.182 HD
BRANCH  10  13
ATOM     13  O   UNL     1      34.957 -25.025 -11.877  0.00  0.00    -0.295 OA
ATOM     14  H   UNL     1      34.176 -24.474 -12.049  0.00  0.00    +0.241 HD
ENDBRANCH  10  13
ENDBRANCH   8  11
ENDBRANCH   1   8
TORSDOF 6
ENDMDL
MODEL 2
REMARK VINA RESULT:      -6.2      2.601      4.742
REMARK  Name = 4797
REMARK  6 active torsions:
REMARK  status: ('A' for Active; 'I' for Inactive)
REMARK    1  A    between atoms: O_1  and  P_2
REMARK    2  A    between atoms: O_1  and  C_8
REMARK    3  A    between atoms: P_2  and  O_4
REMARK    4  A    between atoms: P_2  and  O_6
REMARK    5  A    between atoms: C_8  and  C_11
REMARK    6  A    between atoms: N_10  and  O_13
REMARK                            x       y       z     vdW  Elec       q    Type
REMARK                         _______ _______ _______ _____ _____    ______ ____
ROOT
ATOM      1  O   UNL     1      36.474 -25.550 -11.856  0.00  0.00    -0.263 OA
ENDROOT
BRANCH   1   2
ATOM      2  P   UNL     1      36.068 -24.142 -11.164  0.00  0.00    +0.474 P 
ATOM      3  O   UNL     1      37.194 -23.162 -11.016  0.00  0.00    -0.227 OA
BRANCH   2   4
ATOM      4  O   UNL     1      35.353 -24.587  -9.783  0.00  0.00    -0.303 OA
ATOM      5  H   UNL     1      35.995 -25.045  -9.219  0.00  0.00    +0.222 HD
ENDBRANCH   2   4
BRANCH   2   6
ATOM      6  O   UNL     1      34.832 -23.631 -12.074  0.00  0.00    -0.303 OA
ATOM      7  H   UNL     1      34.044 -24.160 -11.876  0.00  0.00    +0.222 HD
ENDBRANCH   2   6
ENDBRANCH   1   2
BRANCH   1   8
ATOM      8  C   UNL     1      37.711 -25.640 -12.533  0.00  0.00    +0.240 C 
BRANCH   8  11
ATOM      9  O   UNL     1      38.429 -26.952 -14.416  0.00  0.00    -0.270 OA
ATOM     10  N   UNL     1      36.309 -26.117 -14.475  0.00  0.00    -0.195 N 
ATOM     11  C   UNL     1      37.532 -26.295 -13.888  0.00  0.00    +0.275 C 
ATOM     12  H   UNL     1      35.612 -25.586 -14.027  0.00  0.00    +0.182 HD
BRANCH  10  13
ATOM     13  O   UNL     1      36.066 -26.701 -15.723  0.00  0.00    -0.295 OA
ATOM     14  H   UNL     1      36.205 -27.659 -15.663  0.00  0.00    +0.241 HD
ENDBRANCH  10  13
ENDBRANCH   8  11
ENDBRANCH   1   8
TORSDOF 6
ENDMDL
MODEL 3
REMARK VINA RESULT:      -6.2      1.952      2.154
REMARK  Name = 4797
REMARK  6 active torsions:
REMARK  status: ('A' for Active; 'I' for Inactive)
REMARK    1  A    between atoms: O_1  and  P_2
REMARK    2  A    between atoms: O_1  and  C_8
REMARK    3  A    between atoms: P_2  and  O_4
REMARK    4  A    between atoms: P_2  and  O_6
REMARK    5  A    between atoms: C_8  and  C_11
REMARK    6  A    between atoms: N_10  and  O_13
REMARK                            x       y       z     vdW  Elec       q    Type
REMARK                         _______ _______ _______ _____ _____    ______ ____
ROOT
ATOM      1  O   UNL     1      38.832 -26.979 -14.509  0.00  0.00    -0.263 OA
ENDROOT
BRANCH   1   2
ATOM      2  P   UNL     1      40.041 -25.903 -14.602  0.00  0.00    +0.474 P 
ATOM      3  O   UNL     1      39.766 -24.584 -13.942  0.00  0.00    -0.227 OA
BRANCH   2   4
ATOM      4  O   UNL     1      40.366 -25.829 -16.185  0.00  0.00    -0.303 OA
ATOM      5  H   UNL     1      40.399 -24.901 -16.465  0.00  0.00    +0.222 HD
ENDBRANCH   2   4
BRANCH   2   6
ATOM      6  O   UNL     1      41.302 -26.719 -14.001  0.00  0.00    -0.303 OA
ATOM      7  H   UNL     1      41.790 -26.151 -13.385  0.00  0.00    +0.222 HD
ENDBRANCH   2   6
ENDBRANCH   1   2
BRANCH   1   8
ATOM      8  C   UNL     1      37.593 -26.560 -13.972  0.00  0.00    +0.240 C 
BRANCH   8  11
ATOM      9  O   UNL     1      36.124 -26.652 -15.873  0.00  0.00    -0.270 OA
ATOM     10  N   UNL     1      36.634 -24.589 -15.051  0.00  0.00    -0.195 N 
ATOM     11  C   UNL     1      36.721 -25.955 -15.054  0.00  0.00    +0.275 C 
ATOM     12  H   UNL     1      37.124 -24.058 -14.381  0.00  0.00    +0.182 HD
BRANCH  10  13
ATOM     13  O   UNL     1      35.839 -23.959 -16.013  0.00  0.00    -0.295 OA
ATOM     14  H   UNL     1      34.948 -23.819 -15.655  0.00  0.00    +0.241 HD
ENDBRANCH  10  13
ENDBRANCH   8  11
ENDBRANCH   1   8
TORSDOF 6
ENDMDL
MODEL 4
REMARK VINA RESULT:      -6.1      2.636      4.236
REMARK  Name = 4797
REMARK  6 active torsions:
REMARK  status: ('A' for Active; 'I' for Inactive)
REMARK    1  A    between atoms: O_1  and  P_2
REMARK    2  A    between atoms: O_1  and  C_8
REMARK    3  A    between atoms: P_2  and  O_4
REMARK    4  A    between atoms: P_2  and  O_6
REMARK    5  A    between atoms: C_8  and  C_11
REMARK    6  A    between atoms: N_10  and  O_13
REMARK                            x       y       z     vdW  Elec       q    Type
REMARK                         _______ _______ _______ _____ _____    ______ ____
ROOT
ATOM      1  O   UNL     1      37.805 -24.980 -12.559  0.00  0.00    -0.263 OA
ENDROOT
BRANCH   1   2
ATOM      2  P   UNL     1      37.089 -23.772 -11.749  0.00  0.00    +0.474 P 
ATOM      3  O   UNL     1      36.484 -24.164 -10.433  0.00  0.00    -0.227 OA
BRANCH   2   4
ATOM      4  O   UNL     1      36.057 -23.148 -12.826  0.00  0.00    -0.303 OA
ATOM      5  H   UNL     1      36.513 -23.016 -13.672  0.00  0.00    +0.222 HD
ENDBRANCH   2   4
BRANCH   2   6
ATOM      6  O   UNL     1      38.254 -22.653 -11.659  0.00  0.00    -0.303 OA
ATOM      7  H   UNL     1      38.083 -21.955 -12.311  0.00  0.00    +0.222 HD
ENDBRANCH   2   6
ENDBRANCH   1   2
BRANCH   1   8
ATOM      8  C   UNL     1      37.035 -26.113 -12.905  0.00  0.00    +0.240 C 
BRANCH   8  11
ATOM      9  O   UNL     1      38.608 -26.828 -14.577  0.00  0.00    -0.270 OA
ATOM     10  N   UNL     1      36.399 -26.871 -15.138  0.00  0.00    -0.195 N 
ATOM     11  C   UNL     1      37.432 -26.630 -14.273  0.00  0.00    +0.275 C 
ATOM     12  H   UNL     1      35.468 -26.703 -14.865  0.00  0.00    +0.182 HD
BRANCH  10  13
ATOM     13  O   UNL     1      36.687 -27.360 -16.417  0.00  0.00    -0.295 OA
ATOM     14  H   UNL     1      36.129 -28.132 -16.601  0.00  0.00    +0.241 HD
ENDBRANCH  10  13
ENDBRANCH   8  11
ENDBRANCH   1   8
TORSDOF 6
ENDMDL
MODEL 5
REMARK VINA RESULT:      -6.1      2.755      4.606
REMARK  Name = 4797
REMARK  6 active torsions:
REMARK  status: ('A' for Active; 'I' for Inactive)
REMARK    1  A    between atoms: O_1  and  P_2
REMARK    2  A    between atoms: O_1  and  C_8
REMARK    3  A    between atoms: P_2  and  O_4
REMARK    4  A    between atoms: P_2  and  O_6
REMARK    5  A    between atoms: C_8  and  C_11
REMARK    6  A    between atoms: N_10  and  O_13
REMARK                            x       y       z     vdW  Elec       q    Type
REMARK                         _______ _______ _______ _____ _____    ______ ____
ROOT
ATOM      1  O   UNL     1      37.847 -23.762 -13.668  0.00  0.00    -0.263 OA
ENDROOT
BRANCH   1   2
ATOM      2  P   UNL     1      37.379 -23.483 -12.141  0.00  0.00    +0.474 P 
ATOM      3  O   UNL     1      37.734 -24.563 -11.163  0.00  0.00    -0.227 OA
BRANCH   2   4
ATOM      4  O   UNL     1      35.799 -23.166 -12.277  0.00  0.00    -0.303 OA
ATOM      5  H   UNL     1      35.342 -23.945 -12.630  0.00  0.00    +0.222 HD
ENDBRANCH   2   4
BRANCH   2   6
ATOM      6  O   UNL     1      38.023 -22.033 -11.822  0.00  0.00    -0.303 OA
ATOM      7  H   UNL     1      37.650 -21.374 -12.428  0.00  0.00    +0.222 HD
ENDBRANCH   2   6
ENDBRANCH   1   2
BRANCH   1   8
ATOM      8  C   UNL     1      37.316 -24.884 -14.343  0.00  0.00    +0.240 C 
BRANCH   8  11
ATOM      9  O   UNL     1      38.399 -27.012 -14.630  0.00  0.00    -0.270 OA
ATOM     10  N   UNL     1      39.459 -25.181 -15.477  0.00  0.00    -0.195 N 
ATOM     11  C   UNL     1      38.430 -25.796 -14.819  0.00  0.00    +0.275 C 
ATOM     12  H   UNL     1      39.454 -24.206 -15.613  0.00  0.00    +0.182 HD
BRANCH  10  13
ATOM     13  O   UNL     1      40.519 -25.960 -15.955  0.00  0.00    -0.295 OA
ATOM     14  H   UNL     1      41.342 -25.448 -15.908  0.00  0.00    +0.241 HD
ENDBRANCH  10  13
ENDBRANCH   8  11
ENDBRANCH   1   8
TORSDOF 6
ENDMDL
MODEL 6
REMARK VINA RESULT:      -5.9      2.639      4.901
REMARK  Name = 4797
REMARK  6 active torsions:
REMARK  status: ('A' for Active; 'I' for Inactive)
REMARK    1  A    between atoms: O_1  and  P_2
REMARK    2  A    between atoms: O_1  and  C_8
REMARK    3  A    between atoms: P_2  and  O_4
REMARK    4  A    between atoms: P_2  and  O_6
REMARK    5  A    between atoms: C_8  and  C_11
REMARK    6  A    between atoms: N_10  and  O_13
REMARK                            x       y       z     vdW  Elec       q    Type
REMARK                         _______ _______ _______ _____ _____    ______ ____
ROOT
ATOM      1  O   UNL     1      36.636 -25.528 -11.782  0.00  0.00    -0.263 OA
ENDROOT
BRANCH   1   2
ATOM      2  P   UNL     1      36.019 -24.222 -11.046  0.00  0.00    +0.474 P 
ATOM      3  O   UNL     1      35.336 -24.497  -9.738  0.00  0.00    -0.227 OA
BRANCH   2   4
ATOM      4  O   UNL     1      35.089 -23.545 -12.182  0.00  0.00    -0.303 OA
ATOM      5  H   UNL     1      35.034 -24.136 -12.950  0.00  0.00    +0.222 HD
ENDBRANCH   2   4
BRANCH   2   6
ATOM      6  O   UNL     1      37.286 -23.220 -10.958  0.00  0.00    -0.303 OA
ATOM      7  H   UNL     1      37.810 -23.289 -11.771  0.00  0.00    +0.222 HD
ENDBRANCH   2   6
ENDBRANCH   1   2
BRANCH   1   8
ATOM      8  C   UNL     1      36.837 -25.484 -13.180  0.00  0.00    +0.240 C 
BRANCH   8  11
ATOM      9  O   UNL     1      39.064 -24.579 -13.105  0.00  0.00    -0.270 OA
ATOM     10  N   UNL     1      38.768 -26.522 -14.259  0.00  0.00    -0.195 N 
ATOM     11  C   UNL     1      38.318 -25.472 -13.505  0.00  0.00    +0.275 C 
ATOM     12  H   UNL     1      38.146 -27.222 -14.563  0.00  0.00    +0.182 HD
BRANCH  10  13
ATOM     13  O   UNL     1      40.126 -26.584 -14.590  0.00  0.00    -0.295 OA
ATOM     14  H   UNL     1      40.553 -25.743 -14.361  0.00  0.00    +0.241 HD
ENDBRANCH  10  13
ENDBRANCH   8  11
ENDBRANCH   1   8
TORSDOF 6
ENDMDL
MODEL 7
REMARK VINA RESULT:      -5.9      2.250      2.982
REMARK  Name = 4797
REMARK  6 active torsions:
REMARK  status: ('A' for Active; 'I' for Inactive)
REMARK    1  A    between atoms: O_1  and  P_2
REMARK    2  A    between atoms: O_1  and  C_8
REMARK    3  A    between atoms: P_2  and  O_4
REMARK    4  A    between atoms: P_2  and  O_6
REMARK    5  A    between atoms: C_8  and  C_11
REMARK    6  A    between atoms: N_10  and  O_13
REMARK                            x       y       z     vdW  Elec       q    Type
REMARK                         _______ _______ _______ _____ _____    ______ ____
ROOT
ATOM      1  O   UNL     1      38.022 -24.573 -13.512  0.00  0.00    -0.263 OA
ENDROOT
BRANCH   1   2
ATOM      2  P   UNL     1      37.757 -25.995 -14.244  0.00  0.00    +0.474 P 
ATOM      3  O   UNL     1      38.995 -26.770 -14.587  0.00  0.00    -0.227 OA
BRANCH   2   4
ATOM      4  O   UNL     1      36.813 -25.609 -15.500  0.00  0.00    -0.303 OA
ATOM      5  H   UNL     1      36.228 -24.877 -15.250  0.00  0.00    +0.222 HD
ENDBRANCH   2   4
BRANCH   2   6
ATOM      6  O   UNL     1      36.741 -26.743 -13.232  0.00  0.00    -0.303 OA
ATOM      7  H   UNL     1      36.306 -27.477 -13.694  0.00  0.00    +0.222 HD
ENDBRANCH   2   6
ENDBRANCH   1   2
BRANCH   1   8
ATOM      8  C   UNL     1      36.915 -23.747 -13.218  0.00  0.00    +0.240 C 
BRANCH   8  11
ATOM      9  O   UNL     1      37.310 -22.898 -11.004  0.00  0.00    -0.270 OA
ATOM     10  N   UNL     1      35.729 -24.524 -11.229  0.00  0.00    -0.195 N 
ATOM     11  C   UNL     1      36.684 -23.676 -11.722  0.00  0.00    +0.275 C 
ATOM     12  H   UNL     1      35.245 -25.135 -11.830  0.00  0.00    +0.182 HD
BRANCH  10  13
ATOM     13  O   UNL     1      35.453 -24.508  -9.858  0.00  0.00    -0.295 OA
ATOM     14  H   UNL     1      35.911 -25.248  -9.428  0.00  0.00    +0.241 HD
ENDBRANCH  10  13
ENDBRANCH   8  11
ENDBRANCH   1   8
TORSDOF 6
ENDMDL
MODEL 8
REMARK VINA RESULT:      -5.9      3.362      4.810
REMARK  Name = 4797
REMARK  6 active torsions:
REMARK  status: ('A' for Active; 'I' for Inactive)
REMARK    1  A    between atoms: O_1  and  P_2
REMARK    2  A    between atoms: O_1  and  C_8
REMARK    3  A    between atoms: P_2  and  O_4
REMARK    4  A    between atoms: P_2  and  O_6
REMARK    5  A    between atoms: C_8  and  C_11
REMARK    6  A    between atoms: N_10  and  O_13
REMARK                            x       y       z     vdW  Elec       q    Type
REMARK                         _______ _______ _______ _____ _____    ______ ____
ROOT
ATOM      1  O   UNL     1      36.475 -25.570 -11.765  0.00  0.00    -0.263 OA
ENDROOT
BRANCH   1   2
ATOM      2  P   UNL     1      35.937 -24.246 -11.000  0.00  0.00    +0.474 P 
ATOM      3  O   UNL     1      35.361 -24.492  -9.637  0.00  0.00    -0.227 OA
BRANCH   2   4
ATOM      4  O   UNL     1      34.923 -23.573 -12.067  0.00  0.00    -0.303 OA
ATOM      5  H   UNL     1      34.053 -23.455 -11.656  0.00  0.00    +0.222 HD
ENDBRANCH   2   4
BRANCH   2   6
ATOM      6  O   UNL     1      37.219 -23.260 -11.033  0.00  0.00    -0.303 OA
ATOM      7  H   UNL     1      37.337 -22.854 -10.160  0.00  0.00    +0.222 HD
ENDBRANCH   2   6
ENDBRANCH   1   2
BRANCH   1   8
ATOM      8  C   UNL     1      37.487 -25.425 -12.739  0.00  0.00    +0.240 C 
BRANCH   8  11
ATOM      9  O   UNL     1      36.179 -24.829 -14.667  0.00  0.00    -0.270 OA
ATOM     10  N   UNL     1      37.310 -26.806 -14.746  0.00  0.00    -0.195 N 
ATOM     11  C   UNL     1      36.925 -25.647 -14.129  0.00  0.00    +0.275 C 
ATOM     12  H   UNL     1      37.909 -27.440 -14.290  0.00  0.00    +0.182 HD
BRANCH  10  13
ATOM     13  O   UNL     1      36.839 -27.075 -16.036  0.00  0.00    -0.295 OA
ATOM     14  H   UNL     1      37.002 -26.306 -16.606  0.00  0.00    +0.241 HD
ENDBRANCH  10  13
ENDBRANCH   8  11
ENDBRANCH   1   8
TORSDOF 6
ENDMDL
MODEL 9
REMARK VINA RESULT:      -5.8      1.957      2.316
REMARK  Name = 4797
REMARK  6 active torsions:
REMARK  status: ('A' for Active; 'I' for Inactive)
REMARK    1  A    between atoms: O_1  and  P_2
REMARK    2  A    between atoms: O_1  and  C_8
REMARK    3  A    between atoms: P_2  and  O_4
REMARK    4  A    between atoms: P_2  and  O_6
REMARK    5  A    between atoms: C_8  and  C_11
REMARK    6  A    between atoms: N_10  and  O_13
REMARK                            x       y       z     vdW  Elec       q    Type
REMARK                         _______ _______ _______ _____ _____    ______ ____
ROOT
ATOM      1  O   UNL     1      39.243 -25.023 -13.394  0.00  0.00    -0.263 OA
ENDROOT
BRANCH   1   2
ATOM      2  P   UNL     1      39.553 -25.344 -14.953  0.00  0.00    +0.474 P 
ATOM      3  O   UNL     1      40.896 -25.959 -15.217  0.00  0.00    -0.227 OA
BRANCH   2   4
ATOM      4  O   UNL     1      39.281 -23.933 -15.696  0.00  0.00    -0.303 OA
ATOM      5  H   UNL     1      38.765 -24.087 -16.502  0.00  0.00    +0.222 HD
ENDBRANCH   2   4
BRANCH   2   6
ATOM      6  O   UNL     1      38.288 -26.248 -15.398  0.00  0.00    -0.303 OA
ATOM      7  H   UNL     1      38.369 -27.132 -15.008  0.00  0.00    +0.222 HD
ENDBRANCH   2   6
ENDBRANCH   1   2
BRANCH   1   8
ATOM      8  C   UNL     1      38.236 -25.765 -12.738  0.00  0.00    +0.240 C 
BRANCH   8  11
ATOM      9  O   UNL     1      36.296 -25.217 -11.429  0.00  0.00    -0.270 OA
ATOM     10  N   UNL     1      37.923 -23.630 -11.594  0.00  0.00    -0.195 N 
ATOM     11  C   UNL     1      37.389 -24.860 -11.867  0.00  0.00    +0.275 C 
ATOM     12  H   UNL     1      38.800 -23.374 -11.959  0.00  0.00    +0.182 HD
BRANCH  10  13
ATOM     13  O   UNL     1      37.202 -22.743 -10.787  0.00  0.00    -0.295 OA
ATOM     14  H   UNL     1      36.804 -23.230 -10.048  0.00  0.00    +0.241 HD
ENDBRANCH  10  13
ENDBRANCH   8  11
ENDBRANCH   1   8
TORSDOF 6
ENDMDL
