MODEL 1
REMARK VINA RESULT:      -8.1      0.000      0.000
REMARK  Name = 46937060
REMARK  16 active torsions:
REMARK  status: ('A' for Active; 'I' for Inactive)
REMARK    1  A    between atoms: C_1  and  C_3
REMARK    2  A    between atoms: C_2  and  C_14
REMARK    3  A    between atoms: C_3  and  O_4
REMARK    4  A    between atoms: C_3  and  C_6
REMARK    5  A    between atoms: C_6  and  C_8
REMARK    6  A    between atoms: C_7  and  C_9
REMARK    7  A    between atoms: C_9  and  C_10
REMARK    8  A    between atoms: C_10  and  C_11
REMARK    9  A    between atoms: C_11  and  C_12
REMARK   10  A    between atoms: C_14  and  C_16
REMARK   11  A    between atoms: C_16  and  C_17
REMARK   12  A    between atoms: C_17  and  C_18
REMARK   13  A    between atoms: C_18  and  C_19
REMARK   14  A    between atoms: C_19  and  C_20
REMARK   15  A    between atoms: C_20  and  C_22
REMARK   16  A    between atoms: C_22  and  O_23
REMARK                            x       y       z     vdW  Elec       q    Type
REMARK                         _______ _______ _______ _____ _____    ______ ____
ROOT
ATOM      1  C   UNL     1      33.071 -22.794 -17.700  0.00  0.00    -0.001 C 
ATOM      2  C   UNL     1      33.113 -23.345 -16.478  0.00  0.00    -0.021 C 
ENDROOT
BRANCH   1   3
ATOM      3  C   UNL     1      34.196 -22.878 -18.693  0.00  0.00    +0.136 C 
BRANCH   3   4
ATOM      4  O   UNL     1      33.890 -23.911 -19.628  0.00  0.00    -0.380 OA
ATOM      5  H   UNL     1      33.800 -24.756 -19.160  0.00  0.00    +0.211 HD
ENDBRANCH   3   4
BRANCH   3   6
ATOM      6  C   UNL     1      34.463 -21.556 -19.430  0.00  0.00    +0.059 C 
BRANCH   6   8
ATOM      7  C   UNL     1      33.217 -19.837 -20.771  0.00  0.00    -0.031 C 
ATOM      8  C   UNL     1      33.217 -20.848 -19.890  0.00  0.00    -0.028 C 
BRANCH   7   9
ATOM      9  C   UNL     1      34.459 -19.285 -21.408  0.00  0.00    +0.026 C 
BRANCH   9  10
ATOM     10  C   UNL     1      34.448 -17.755 -21.399  0.00  0.00    +0.005 C 
BRANCH  10  11
ATOM     11  C   UNL     1      35.045 -17.190 -22.690  0.00  0.00    +0.000 C 
BRANCH  11  12
ATOM     12  C   UNL     1      35.280 -18.253 -23.766  0.00  0.00    +0.000 C 
ATOM     13  C   UNL     1      34.463 -18.030 -25.029  0.00  0.00    +0.000 C 
ENDBRANCH  11  12
ENDBRANCH  10  11
ENDBRANCH   9  10
ENDBRANCH   7   9
ENDBRANCH   6   8
ENDBRANCH   3   6
ENDBRANCH   1   3
BRANCH   2  14
ATOM     14  C   UNL     1      31.995 -23.258 -15.488  0.00  0.00    +0.090 C 
BRANCH  14  16
ATOM     15  O   UNL     1      33.309 -24.468 -13.856  0.00  0.00    -0.296 OA
ATOM     16  C   UNL     1      32.201 -24.227 -14.331  0.00  0.00    +0.155 C 
BRANCH  16  17
ATOM     17  C   UNL     1      30.935 -24.892 -13.808  0.00  0.00    +0.065 C 
BRANCH  17  18
ATOM     18  C   UNL     1      30.049 -25.434 -14.928  0.00  0.00    +0.008 C 
BRANCH  18  19
ATOM     19  C   UNL     1      28.839 -24.525 -15.166  0.00  0.00    +0.012 C 
BRANCH  19  20
ATOM     20  C   UNL     1      28.517 -24.356 -16.651  0.00  0.00    +0.109 C 
BRANCH  20  22
ATOM     21  O   UNL     1      28.436 -21.930 -16.416  0.00  0.00    -0.250 OA
ATOM     22  C   UNL     1      28.118 -22.947 -17.014  0.00  0.00    +0.314 C 
BRANCH  22  23
ATOM     23  O   UNL     1      27.314 -22.958 -18.107  0.00  0.00    -0.480 OA
ATOM     24  H   UNL     1      27.520 -23.511 -18.836  0.00  0.00    +0.295 HD
ENDBRANCH  22  23
ENDBRANCH  20  22
ENDBRANCH  19  20
ENDBRANCH  18  19
ENDBRANCH  17  18
ENDBRANCH  16  17
ENDBRANCH  14  16
ENDBRANCH   2  14
TORSDOF 16
ENDMDL
MODEL 2
REMARK VINA RESULT:      -8.0      4.399      6.722
REMARK  Name = 46937060
REMARK  16 active torsions:
REMARK  status: ('A' for Active; 'I' for Inactive)
REMARK    1  A    between atoms: C_1  and  C_3
REMARK    2  A    between atoms: C_2  and  C_14
REMARK    3  A    between atoms: C_3  and  O_4
REMARK    4  A    between atoms: C_3  and  C_6
REMARK    5  A    between atoms: C_6  and  C_8
REMARK    6  A    between atoms: C_7  and  C_9
REMARK    7  A    between atoms: C_9  and  C_10
REMARK    8  A    between atoms: C_10  and  C_11
REMARK    9  A    between atoms: C_11  and  C_12
REMARK   10  A    between atoms: C_14  and  C_16
REMARK   11  A    between atoms: C_16  and  C_17
REMARK   12  A    between atoms: C_17  and  C_18
REMARK   13  A    between atoms: C_18  and  C_19
REMARK   14  A    between atoms: C_19  and  C_20
REMARK   15  A    between atoms: C_20  and  C_22
REMARK   16  A    between atoms: C_22  and  O_23
REMARK                            x       y       z     vdW  Elec       q    Type
REMARK                         _______ _______ _______ _____ _____    ______ ____
ROOT
ATOM      1  C   UNL     1      35.000 -23.045 -15.290  0.00  0.00    -0.001 C 
ATOM      2  C   UNL     1      35.597 -23.555 -14.203  0.00  0.00    -0.021 C 
ENDROOT
BRANCH   1   3
ATOM      3  C   UNL     1      35.747 -22.454 -16.453  0.00  0.00    +0.136 C 
BRANCH   3   4
ATOM      4  O   UNL     1      37.015 -23.100 -16.544  0.00  0.00    -0.380 OA
ATOM      5  H   UNL     1      37.516 -22.727 -17.286  0.00  0.00    +0.211 HD
ENDBRANCH   3   4
BRANCH   3   6
ATOM      6  C   UNL     1      34.994 -22.570 -17.788  0.00  0.00    +0.059 C 
BRANCH   6   8
ATOM      7  C   UNL     1      34.971 -21.104 -19.826  0.00  0.00    -0.031 C 
ATOM      8  C   UNL     1      35.647 -21.835 -18.927  0.00  0.00    -0.028 C 
BRANCH   7   9
ATOM      9  C   UNL     1      33.481 -20.929 -19.809  0.00  0.00    +0.026 C 
BRANCH   9  10
ATOM     10  C   UNL     1      33.037 -19.892 -20.843  0.00  0.00    +0.005 C 
BRANCH  10  11
ATOM     11  C   UNL     1      34.221 -19.051 -21.327  0.00  0.00    +0.000 C 
BRANCH  11  12
ATOM     12  C   UNL     1      34.513 -19.217 -22.820  0.00  0.00    +0.000 C 
ATOM     13  C   UNL     1      35.398 -18.120 -23.391  0.00  0.00    +0.000 C 
ENDBRANCH  11  12
ENDBRANCH  10  11
ENDBRANCH   9  10
ENDBRANCH   7   9
ENDBRANCH   6   8
ENDBRANCH   3   6
ENDBRANCH   1   3
BRANCH   2  14
ATOM     14  C   UNL     1      34.853 -24.141 -13.044  0.00  0.00    +0.090 C 
BRANCH  14  16
ATOM     15  O   UNL     1      35.433 -25.041 -10.874  0.00  0.00    -0.296 OA
ATOM     16  C   UNL     1      35.780 -24.397 -11.863  0.00  0.00    +0.155 C 
BRANCH  16  17
ATOM     17  C   UNL     1      37.169 -23.787 -11.983  0.00  0.00    +0.065 C 
BRANCH  17  18
ATOM     18  C   UNL     1      38.278 -24.836 -11.943  0.00  0.00    +0.008 C 
BRANCH  18  19
ATOM     19  C   UNL     1      38.191 -25.780 -13.147  0.00  0.00    +0.012 C 
BRANCH  19  20
ATOM     20  C   UNL     1      38.892 -25.217 -14.383  0.00  0.00    +0.109 C 
BRANCH  20  22
ATOM     21  O   UNL     1      40.943 -26.440 -13.886  0.00  0.00    -0.250 OA
ATOM     22  C   UNL     1      40.194 -25.914 -14.695  0.00  0.00    +0.314 C 
BRANCH  22  23
ATOM     23  O   UNL     1      40.446 -25.857 -16.027  0.00  0.00    -0.480 OA
ATOM     24  H   UNL     1      41.012 -26.489 -16.426  0.00  0.00    +0.295 HD
ENDBRANCH  22  23
ENDBRANCH  20  22
ENDBRANCH  19  20
ENDBRANCH  18  19
ENDBRANCH  17  18
ENDBRANCH  16  17
ENDBRANCH  14  16
ENDBRANCH   2  14
TORSDOF 16
ENDMDL
MODEL 3
REMARK VINA RESULT:      -8.0      1.187      1.585
REMARK  Name = 46937060
REMARK  16 active torsions:
REMARK  status: ('A' for Active; 'I' for Inactive)
REMARK    1  A    between atoms: C_1  and  C_3
REMARK    2  A    between atoms: C_2  and  C_14
REMARK    3  A    between atoms: C_3  and  O_4
REMARK    4  A    between atoms: C_3  and  C_6
REMARK    5  A    between atoms: C_6  and  C_8
REMARK    6  A    between atoms: C_7  and  C_9
REMARK    7  A    between atoms: C_9  and  C_10
REMARK    8  A    between atoms: C_10  and  C_11
REMARK    9  A    between atoms: C_11  and  C_12
REMARK   10  A    between atoms: C_14  and  C_16
REMARK   11  A    between atoms: C_16  and  C_17
REMARK   12  A    between atoms: C_17  and  C_18
REMARK   13  A    between atoms: C_18  and  C_19
REMARK   14  A    between atoms: C_19  and  C_20
REMARK   15  A    between atoms: C_20  and  C_22
REMARK   16  A    between atoms: C_22  and  O_23
REMARK                            x       y       z     vdW  Elec       q    Type
REMARK                         _______ _______ _______ _____ _____    ______ ____
ROOT
ATOM      1  C   UNL     1      34.350 -22.878 -17.293  0.00  0.00    -0.001 C 
ATOM      2  C   UNL     1      33.764 -23.551 -16.291  0.00  0.00    -0.021 C 
ENDROOT
BRANCH   1   3
ATOM      3  C   UNL     1      33.699 -22.629 -18.625  0.00  0.00    +0.136 C 
BRANCH   3   4
ATOM      4  O   UNL     1      32.332 -22.290 -18.397  0.00  0.00    -0.380 OA
ATOM      5  H   UNL     1      32.236 -21.910 -17.511  0.00  0.00    +0.211 HD
ENDBRANCH   3   4
BRANCH   3   6
ATOM      6  C   UNL     1      34.389 -21.529 -19.448  0.00  0.00    +0.059 C 
BRANCH   6   8
ATOM      7  C   UNL     1      33.830 -19.581 -20.930  0.00  0.00    -0.031 C 
ATOM      8  C   UNL     1      33.437 -20.605 -20.157  0.00  0.00    -0.028 C 
BRANCH   7   9
ATOM      9  C   UNL     1      35.267 -19.231 -21.184  0.00  0.00    +0.026 C 
BRANCH   9  10
ATOM     10  C   UNL     1      35.426 -18.492 -22.515  0.00  0.00    +0.005 C 
BRANCH  10  11
ATOM     11  C   UNL     1      34.652 -19.194 -23.633  0.00  0.00    +0.000 C 
BRANCH  11  12
ATOM     12  C   UNL     1      34.565 -18.370 -24.920  0.00  0.00    +0.000 C 
ATOM     13  C   UNL     1      34.677 -16.871 -24.690  0.00  0.00    +0.000 C 
ENDBRANCH  11  12
ENDBRANCH  10  11
ENDBRANCH   9  10
ENDBRANCH   7   9
ENDBRANCH   6   8
ENDBRANCH   3   6
ENDBRANCH   1   3
BRANCH   2  14
ATOM     14  C   UNL     1      34.414 -23.802 -14.967  0.00  0.00    +0.090 C 
BRANCH  14  16
ATOM     15  O   UNL     1      33.637 -23.934 -12.679  0.00  0.00    -0.296 OA
ATOM     16  C   UNL     1      33.377 -24.039 -13.877  0.00  0.00    +0.155 C 
BRANCH  16  17
ATOM     17  C   UNL     1      31.992 -24.429 -14.372  0.00  0.00    +0.065 C 
BRANCH  17  18
ATOM     18  C   UNL     1      30.930 -23.384 -14.032  0.00  0.00    +0.008 C 
BRANCH  18  19
ATOM     19  C   UNL     1      30.244 -22.859 -15.297  0.00  0.00    +0.012 C 
BRANCH  19  20
ATOM     20  C   UNL     1      29.296 -23.885 -15.918  0.00  0.00    +0.109 C 
BRANCH  20  22
ATOM     21  O   UNL     1      27.621 -23.882 -17.690  0.00  0.00    -0.250 OA
ATOM     22  C   UNL     1      28.315 -23.275 -16.889  0.00  0.00    +0.314 C 
BRANCH  22  23
ATOM     23  O   UNL     1      28.325 -21.923 -16.774  0.00  0.00    -0.480 OA
ATOM     24  H   UNL     1      29.057 -21.491 -16.378  0.00  0.00    +0.295 HD
ENDBRANCH  22  23
ENDBRANCH  20  22
ENDBRANCH  19  20
ENDBRANCH  18  19
ENDBRANCH  17  18
ENDBRANCH  16  17
ENDBRANCH  14  16
ENDBRANCH   2  14
TORSDOF 16
ENDMDL
MODEL 4
REMARK VINA RESULT:      -7.9      6.606     10.779
REMARK  Name = 46937060
REMARK  16 active torsions:
REMARK  status: ('A' for Active; 'I' for Inactive)
REMARK    1  A    between atoms: C_1  and  C_3
REMARK    2  A    between atoms: C_2  and  C_14
REMARK    3  A    between atoms: C_3  and  O_4
REMARK    4  A    between atoms: C_3  and  C_6
REMARK    5  A    between atoms: C_6  and  C_8
REMARK    6  A    between atoms: C_7  and  C_9
REMARK    7  A    between atoms: C_9  and  C_10
REMARK    8  A    between atoms: C_10  and  C_11
REMARK    9  A    between atoms: C_11  and  C_12
REMARK   10  A    between atoms: C_14  and  C_16
REMARK   11  A    between atoms: C_16  and  C_17
REMARK   12  A    between atoms: C_17  and  C_18
REMARK   13  A    between atoms: C_18  and  C_19
REMARK   14  A    between atoms: C_19  and  C_20
REMARK   15  A    between atoms: C_20  and  C_22
REMARK   16  A    between atoms: C_22  and  O_23
REMARK                            x       y       z     vdW  Elec       q    Type
REMARK                         _______ _______ _______ _____ _____    ______ ____
ROOT
ATOM      1  C   UNL     1      33.513 -15.140 -24.203  0.00  0.00    -0.001 C 
ATOM      2  C   UNL     1      34.288 -15.200 -23.110  0.00  0.00    -0.021 C 
ENDROOT
BRANCH   1   3
ATOM      3  C   UNL     1      33.645 -16.076 -25.372  0.00  0.00    +0.136 C 
BRANCH   3   4
ATOM      4  O   UNL     1      33.773 -15.294 -26.559  0.00  0.00    -0.380 OA
ATOM      5  H   UNL     1      33.155 -14.547 -26.522  0.00  0.00    +0.211 HD
ENDBRANCH   3   4
BRANCH   3   6
ATOM      6  C   UNL     1      34.829 -17.048 -25.247  0.00  0.00    +0.059 C 
BRANCH   6   8
ATOM      7  C   UNL     1      34.812 -19.084 -23.777  0.00  0.00    -0.031 C 
ATOM      8  C   UNL     1      34.432 -18.458 -24.901  0.00  0.00    -0.028 C 
BRANCH   7   9
ATOM      9  C   UNL     1      35.681 -18.457 -22.726  0.00  0.00    +0.026 C 
BRANCH   9  10
ATOM     10  C   UNL     1      35.044 -18.581 -21.340  0.00  0.00    +0.005 C 
BRANCH  10  11
ATOM     11  C   UNL     1      35.327 -19.953 -20.722  0.00  0.00    +0.000 C 
BRANCH  11  12
ATOM     12  C   UNL     1      34.074 -20.640 -20.172  0.00  0.00    +0.000 C 
ATOM     13  C   UNL     1      32.776 -19.981 -20.614  0.00  0.00    +0.000 C 
ENDBRANCH  11  12
ENDBRANCH  10  11
ENDBRANCH   9  10
ENDBRANCH   7   9
ENDBRANCH   6   8
ENDBRANCH   3   6
ENDBRANCH   1   3
BRANCH   2  14
ATOM     14  C   UNL     1      34.159 -14.266 -21.948  0.00  0.00    +0.090 C 
BRANCH  14  16
ATOM     15  O   UNL     1      32.401 -15.685 -21.083  0.00  0.00    -0.296 OA
ATOM     16  C   UNL     1      32.909 -14.566 -21.133  0.00  0.00    +0.155 C 
BRANCH  16  17
ATOM     17  C   UNL     1      32.319 -13.377 -20.388  0.00  0.00    +0.065 C 
BRANCH  17  18
ATOM     18  C   UNL     1      31.804 -12.290 -21.330  0.00  0.00    +0.008 C 
BRANCH  18  19
ATOM     19  C   UNL     1      31.455 -11.011 -20.562  0.00  0.00    +0.012 C 
BRANCH  19  20
ATOM     20  C   UNL     1      31.770  -9.745 -21.360  0.00  0.00    +0.109 C 
BRANCH  20  22
ATOM     21  O   UNL     1      31.958  -8.374 -19.353  0.00  0.00    -0.250 OA
ATOM     22  C   UNL     1      32.291  -8.618 -20.502  0.00  0.00    +0.314 C 
BRANCH  22  23
ATOM     23  O   UNL     1      33.181  -7.872 -21.203  0.00  0.00    -0.480 OA
ATOM     24  H   UNL     1      34.080  -7.841 -20.937  0.00  0.00    +0.295 HD
ENDBRANCH  22  23
ENDBRANCH  20  22
ENDBRANCH  19  20
ENDBRANCH  18  19
ENDBRANCH  17  18
ENDBRANCH  16  17
ENDBRANCH  14  16
ENDBRANCH   2  14
TORSDOF 16
ENDMDL
MODEL 5
REMARK VINA RESULT:      -7.9      1.738      3.054
REMARK  Name = 46937060
REMARK  16 active torsions:
REMARK  status: ('A' for Active; 'I' for Inactive)
REMARK    1  A    between atoms: C_1  and  C_3
REMARK    2  A    between atoms: C_2  and  C_14
REMARK    3  A    between atoms: C_3  and  O_4
REMARK    4  A    between atoms: C_3  and  C_6
REMARK    5  A    between atoms: C_6  and  C_8
REMARK    6  A    between atoms: C_7  and  C_9
REMARK    7  A    between atoms: C_9  and  C_10
REMARK    8  A    between atoms: C_10  and  C_11
REMARK    9  A    between atoms: C_11  and  C_12
REMARK   10  A    between atoms: C_14  and  C_16
REMARK   11  A    between atoms: C_16  and  C_17
REMARK   12  A    between atoms: C_17  and  C_18
REMARK   13  A    between atoms: C_18  and  C_19
REMARK   14  A    between atoms: C_19  and  C_20
REMARK   15  A    between atoms: C_20  and  C_22
REMARK   16  A    between atoms: C_22  and  O_23
REMARK                            x       y       z     vdW  Elec       q    Type
REMARK                         _______ _______ _______ _____ _____    ______ ____
ROOT
ATOM      1  C   UNL     1      33.798 -21.234 -19.618  0.00  0.00    -0.001 C 
ATOM      2  C   UNL     1      34.279 -22.180 -18.798  0.00  0.00    -0.021 C 
ENDROOT
BRANCH   1   3
ATOM      3  C   UNL     1      34.647 -20.165 -20.248  0.00  0.00    +0.136 C 
BRANCH   3   4
ATOM      4  O   UNL     1      35.822 -20.780 -20.773  0.00  0.00    -0.380 OA
ATOM      5  H   UNL     1      35.933 -20.525 -21.702  0.00  0.00    +0.211 HD
ENDBRANCH   3   4
BRANCH   3   6
ATOM      6  C   UNL     1      33.921 -19.377 -21.350  0.00  0.00    +0.059 C 
BRANCH   6   8
ATOM      7  C   UNL     1      35.307 -18.428 -23.217  0.00  0.00    -0.031 C 
ATOM      8  C   UNL     1      34.596 -19.438 -22.694  0.00  0.00    -0.028 C 
BRANCH   7   9
ATOM      9  C   UNL     1      35.516 -17.111 -22.528  0.00  0.00    +0.026 C 
BRANCH   9  10
ATOM     10  C   UNL     1      34.856 -15.971 -23.307  0.00  0.00    +0.005 C 
BRANCH  10  11
ATOM     11  C   UNL     1      34.407 -14.847 -22.370  0.00  0.00    +0.000 C 
BRANCH  11  12
ATOM     12  C   UNL     1      34.184 -15.313 -20.928  0.00  0.00    +0.000 C 
ATOM     13  C   UNL     1      32.800 -14.980 -20.390  0.00  0.00    +0.000 C 
ENDBRANCH  11  12
ENDBRANCH  10  11
ENDBRANCH   9  10
ENDBRANCH   7   9
ENDBRANCH   6   8
ENDBRANCH   3   6
ENDBRANCH   1   3
BRANCH   2  14
ATOM     14  C   UNL     1      33.433 -23.242 -18.168  0.00  0.00    +0.090 C 
BRANCH  14  16
ATOM     15  O   UNL     1      34.867 -23.717 -16.279  0.00  0.00    -0.296 OA
ATOM     16  C   UNL     1      33.752 -23.399 -16.688  0.00  0.00    +0.155 C 
BRANCH  16  17
ATOM     17  C   UNL     1      32.586 -23.147 -15.742  0.00  0.00    +0.065 C 
BRANCH  17  18
ATOM     18  C   UNL     1      31.270 -22.910 -16.481  0.00  0.00    +0.008 C 
BRANCH  18  19
ATOM     19  C   UNL     1      30.105 -23.611 -15.776  0.00  0.00    +0.012 C 
BRANCH  19  20
ATOM     20  C   UNL     1      28.862 -22.726 -15.681  0.00  0.00    +0.109 C 
BRANCH  20  22
ATOM     21  O   UNL     1      27.722 -23.859 -17.515  0.00  0.00    -0.250 OA
ATOM     22  C   UNL     1      27.959 -22.840 -16.885  0.00  0.00    +0.314 C 
BRANCH  22  23
ATOM     23  O   UNL     1      27.451 -21.623 -17.203  0.00  0.00    -0.480 OA
ATOM     24  H   UNL     1      27.879 -21.088 -17.843  0.00  0.00    +0.295 HD
ENDBRANCH  22  23
ENDBRANCH  20  22
ENDBRANCH  19  20
ENDBRANCH  18  19
ENDBRANCH  17  18
ENDBRANCH  16  17
ENDBRANCH  14  16
ENDBRANCH   2  14
TORSDOF 16
ENDMDL
MODEL 6
REMARK VINA RESULT:      -7.9      7.637     12.242
REMARK  Name = 46937060
REMARK  16 active torsions:
REMARK  status: ('A' for Active; 'I' for Inactive)
REMARK    1  A    between atoms: C_1  and  C_3
REMARK    2  A    between atoms: C_2  and  C_14
REMARK    3  A    between atoms: C_3  and  O_4
REMARK    4  A    between atoms: C_3  and  C_6
REMARK    5  A    between atoms: C_6  and  C_8
REMARK    6  A    between atoms: C_7  and  C_9
REMARK    7  A    between atoms: C_9  and  C_10
REMARK    8  A    between atoms: C_10  and  C_11
REMARK    9  A    between atoms: C_11  and  C_12
REMARK   10  A    between atoms: C_14  and  C_16
REMARK   11  A    between atoms: C_16  and  C_17
REMARK   12  A    between atoms: C_17  and  C_18
REMARK   13  A    between atoms: C_18  and  C_19
REMARK   14  A    between atoms: C_19  and  C_20
REMARK   15  A    between atoms: C_20  and  C_22
REMARK   16  A    between atoms: C_22  and  O_23
REMARK                            x       y       z     vdW  Elec       q    Type
REMARK                         _______ _______ _______ _____ _____    ______ ____
ROOT
ATOM      1  C   UNL     1      32.289 -13.324 -20.749  0.00  0.00    -0.001 C 
ATOM      2  C   UNL     1      31.676 -12.131 -20.779  0.00  0.00    -0.021 C 
ENDROOT
BRANCH   1   3
ATOM      3  C   UNL     1      32.420 -14.224 -21.946  0.00  0.00    +0.136 C 
BRANCH   3   4
ATOM      4  O   UNL     1      32.040 -13.485 -23.105  0.00  0.00    -0.380 OA
ATOM      5  H   UNL     1      32.463 -13.870 -23.888  0.00  0.00    +0.211 HD
ENDBRANCH   3   4
BRANCH   3   6
ATOM      6  C   UNL     1      33.833 -14.802 -22.125  0.00  0.00    +0.059 C 
BRANCH   6   8
ATOM      7  C   UNL     1      34.974 -16.740 -21.008  0.00  0.00    -0.031 C 
ATOM      8  C   UNL     1      34.342 -15.560 -20.928  0.00  0.00    -0.028 C 
BRANCH   7   9
ATOM      9  C   UNL     1      35.251 -17.453 -22.299  0.00  0.00    +0.026 C 
BRANCH   9  10
ATOM     10  C   UNL     1      34.572 -18.825 -22.327  0.00  0.00    +0.005 C 
BRANCH  10  11
ATOM     11  C   UNL     1      34.557 -19.462 -20.936  0.00  0.00    +0.000 C 
BRANCH  11  12
ATOM     12  C   UNL     1      33.212 -20.099 -20.575  0.00  0.00    +0.000 C 
ATOM     13  C   UNL     1      33.333 -21.268 -19.610  0.00  0.00    +0.000 C 
ENDBRANCH  11  12
ENDBRANCH  10  11
ENDBRANCH   9  10
ENDBRANCH   7   9
ENDBRANCH   6   8
ENDBRANCH   3   6
ENDBRANCH   1   3
BRANCH   2  14
ATOM     14  C   UNL     1      31.542 -11.236 -19.586  0.00  0.00    +0.090 C 
BRANCH  14  16
ATOM     15  O   UNL     1      32.217  -8.966 -19.092  0.00  0.00    -0.296 OA
ATOM     16  C   UNL     1      31.876  -9.792 -19.937  0.00  0.00    +0.155 C 
BRANCH  16  17
ATOM     17  C   UNL     1      31.746  -9.435 -21.410  0.00  0.00    +0.065 C 
BRANCH  17  18
ATOM     18  C   UNL     1      32.408  -8.102 -21.753  0.00  0.00    +0.008 C 
BRANCH  18  19
ATOM     19  C   UNL     1      33.524  -8.286 -22.786  0.00  0.00    +0.012 C 
BRANCH  19  20
ATOM     20  C   UNL     1      33.158  -9.304 -23.867  0.00  0.00    +0.109 C 
BRANCH  20  22
ATOM     21  O   UNL     1      33.893 -11.629 -23.839  0.00  0.00    -0.250 OA
ATOM     22  C   UNL     1      34.145 -10.441 -23.970  0.00  0.00    +0.314 C 
BRANCH  22  23
ATOM     23  O   UNL     1      35.390  -9.957 -24.207  0.00  0.00    -0.480 OA
ATOM     24  H   UNL     1      35.672  -9.164 -23.793  0.00  0.00    +0.295 HD
ENDBRANCH  22  23
ENDBRANCH  20  22
ENDBRANCH  19  20
ENDBRANCH  18  19
ENDBRANCH  17  18
ENDBRANCH  16  17
ENDBRANCH  14  16
ENDBRANCH   2  14
TORSDOF 16
ENDMDL
MODEL 7
REMARK VINA RESULT:      -7.8      3.183      5.416
REMARK  Name = 46937060
REMARK  16 active torsions:
REMARK  status: ('A' for Active; 'I' for Inactive)
REMARK    1  A    between atoms: C_1  and  C_3
REMARK    2  A    between atoms: C_2  and  C_14
REMARK    3  A    between atoms: C_3  and  O_4
REMARK    4  A    between atoms: C_3  and  C_6
REMARK    5  A    between atoms: C_6  and  C_8
REMARK    6  A    between atoms: C_7  and  C_9
REMARK    7  A    between atoms: C_9  and  C_10
REMARK    8  A    between atoms: C_10  and  C_11
REMARK    9  A    between atoms: C_11  and  C_12
REMARK   10  A    between atoms: C_14  and  C_16
REMARK   11  A    between atoms: C_16  and  C_17
REMARK   12  A    between atoms: C_17  and  C_18
REMARK   13  A    between atoms: C_18  and  C_19
REMARK   14  A    between atoms: C_19  and  C_20
REMARK   15  A    between atoms: C_20  and  C_22
REMARK   16  A    between atoms: C_22  and  O_23
REMARK                            x       y       z     vdW  Elec       q    Type
REMARK                         _______ _______ _______ _____ _____    ______ ____
ROOT
ATOM      1  C   UNL     1      34.506 -22.778 -17.251  0.00  0.00    -0.001 C 
ATOM      2  C   UNL     1      34.177 -23.506 -16.174  0.00  0.00    -0.021 C 
ENDROOT
BRANCH   1   3
ATOM      3  C   UNL     1      33.681 -22.726 -18.507  0.00  0.00    +0.136 C 
BRANCH   3   4
ATOM      4  O   UNL     1      32.319 -22.513 -18.138  0.00  0.00    -0.380 OA
ATOM      5  H   UNL     1      32.256 -21.734 -17.565  0.00  0.00    +0.211 HD
ENDBRANCH   3   4
BRANCH   3   6
ATOM      6  C   UNL     1      34.139 -21.641 -19.496  0.00  0.00    +0.059 C 
BRANCH   6   8
ATOM      7  C   UNL     1      33.202 -19.743 -20.846  0.00  0.00    -0.031 C 
ATOM      8  C   UNL     1      33.054 -20.678 -19.896  0.00  0.00    -0.028 C 
BRANCH   7   9
ATOM      9  C   UNL     1      34.467 -19.540 -21.628  0.00  0.00    +0.026 C 
BRANCH   9  10
ATOM     10  C   UNL     1      34.684 -18.060 -21.949  0.00  0.00    +0.005 C 
BRANCH  10  11
ATOM     11  C   UNL     1      35.240 -17.876 -23.363  0.00  0.00    +0.000 C 
BRANCH  11  12
ATOM     12  C   UNL     1      35.005 -16.473 -23.930  0.00  0.00    +0.000 C 
ATOM     13  C   UNL     1      34.171 -16.464 -25.201  0.00  0.00    +0.000 C 
ENDBRANCH  11  12
ENDBRANCH  10  11
ENDBRANCH   9  10
ENDBRANCH   7   9
ENDBRANCH   6   8
ENDBRANCH   3   6
ENDBRANCH   1   3
BRANCH   2  14
ATOM     14  C   UNL     1      35.000 -23.561 -14.925  0.00  0.00    +0.090 C 
BRANCH  14  16
ATOM     15  O   UNL     1      35.977 -25.664 -15.616  0.00  0.00    -0.296 OA
ATOM     16  C   UNL     1      36.122 -24.584 -15.046  0.00  0.00    +0.155 C 
BRANCH  16  17
ATOM     17  C   UNL     1      37.439 -24.181 -14.400  0.00  0.00    +0.065 C 
BRANCH  17  18
ATOM     18  C   UNL     1      37.846 -25.115 -13.261  0.00  0.00    +0.008 C 
BRANCH  18  19
ATOM     19  C   UNL     1      37.945 -24.359 -11.933  0.00  0.00    +0.012 C 
BRANCH  19  20
ATOM     20  C   UNL     1      36.680 -23.559 -11.620  0.00  0.00    +0.109 C 
BRANCH  20  22
ATOM     21  O   UNL     1      35.505 -24.495  -9.698  0.00  0.00    -0.250 OA
ATOM     22  C   UNL     1      35.626 -24.371 -10.908  0.00  0.00    +0.314 C 
BRANCH  22  23
ATOM     23  O   UNL     1      34.822 -24.986 -11.812  0.00  0.00    -0.480 OA
ATOM     24  H   UNL     1      33.979 -25.303 -11.551  0.00  0.00    +0.295 HD
ENDBRANCH  22  23
ENDBRANCH  20  22
ENDBRANCH  19  20
ENDBRANCH  18  19
ENDBRANCH  17  18
ENDBRANCH  16  17
ENDBRANCH  14  16
ENDBRANCH   2  14
TORSDOF 16
ENDMDL
MODEL 8
REMARK VINA RESULT:      -7.8      2.241      3.705
REMARK  Name = 46937060
REMARK  16 active torsions:
REMARK  status: ('A' for Active; 'I' for Inactive)
REMARK    1  A    between atoms: C_1  and  C_3
REMARK    2  A    between atoms: C_2  and  C_14
REMARK    3  A    between atoms: C_3  and  O_4
REMARK    4  A    between atoms: C_3  and  C_6
REMARK    5  A    between atoms: C_6  and  C_8
REMARK    6  A    between atoms: C_7  and  C_9
REMARK    7  A    between atoms: C_9  and  C_10
REMARK    8  A    between atoms: C_10  and  C_11
REMARK    9  A    between atoms: C_11  and  C_12
REMARK   10  A    between atoms: C_14  and  C_16
REMARK   11  A    between atoms: C_16  and  C_17
REMARK   12  A    between atoms: C_17  and  C_18
REMARK   13  A    between atoms: C_18  and  C_19
REMARK   14  A    between atoms: C_19  and  C_20
REMARK   15  A    between atoms: C_20  and  C_22
REMARK   16  A    between atoms: C_22  and  O_23
REMARK                            x       y       z     vdW  Elec       q    Type
REMARK                         _______ _______ _______ _____ _____    ______ ____
ROOT
ATOM      1  C   UNL     1      33.841 -20.162 -20.335  0.00  0.00    -0.001 C 
ATOM      2  C   UNL     1      34.294 -21.256 -19.705  0.00  0.00    -0.021 C 
ENDROOT
BRANCH   1   3
ATOM      3  C   UNL     1      34.733 -19.162 -21.017  0.00  0.00    +0.136 C 
BRANCH   3   4
ATOM      4  O   UNL     1      35.183 -19.730 -22.246  0.00  0.00    -0.380 OA
ATOM      5  H   UNL     1      35.745 -19.091 -22.712  0.00  0.00    +0.211 HD
ENDBRANCH   3   4
BRANCH   3   6
ATOM      6  C   UNL     1      34.051 -17.809 -21.276  0.00  0.00    +0.059 C 
BRANCH   6   8
ATOM      7  C   UNL     1      34.341 -15.424 -20.548  0.00  0.00    -0.031 C 
ATOM      8  C   UNL     1      34.868 -16.619 -20.853  0.00  0.00    -0.028 C 
BRANCH   7   9
ATOM      9  C   UNL     1      32.871 -15.124 -20.592  0.00  0.00    +0.026 C 
BRANCH   9  10
ATOM     10  C   UNL     1      32.560 -14.047 -21.634  0.00  0.00    +0.005 C 
BRANCH  10  11
ATOM     11  C   UNL     1      33.688 -13.931 -22.663  0.00  0.00    +0.000 C 
BRANCH  11  12
ATOM     12  C   UNL     1      33.295 -14.439 -24.053  0.00  0.00    +0.000 C 
ATOM     13  C   UNL     1      33.974 -15.745 -24.436  0.00  0.00    +0.000 C 
ENDBRANCH  11  12
ENDBRANCH  10  11
ENDBRANCH   9  10
ENDBRANCH   7   9
ENDBRANCH   6   8
ENDBRANCH   3   6
ENDBRANCH   1   3
BRANCH   2  14
ATOM     14  C   UNL     1      33.407 -22.249 -19.023  0.00  0.00    +0.090 C 
BRANCH  14  16
ATOM     15  O   UNL     1      35.249 -22.740 -17.533  0.00  0.00    -0.296 OA
ATOM     16  C   UNL     1      34.036 -22.761 -17.734  0.00  0.00    +0.155 C 
BRANCH  16  17
ATOM     17  C   UNL     1      33.056 -23.314 -16.709  0.00  0.00    +0.065 C 
BRANCH  17  18
ATOM     18  C   UNL     1      31.633 -22.798 -16.916  0.00  0.00    +0.008 C 
BRANCH  18  19
ATOM     19  C   UNL     1      30.753 -23.093 -15.698  0.00  0.00    +0.012 C 
BRANCH  19  20
ATOM     20  C   UNL     1      29.531 -23.941 -16.051  0.00  0.00    +0.109 C 
BRANCH  20  22
ATOM     21  O   UNL     1      28.299 -21.964 -16.774  0.00  0.00    -0.250 OA
ATOM     22  C   UNL     1      28.476 -23.173 -16.809  0.00  0.00    +0.314 C 
BRANCH  22  23
ATOM     23  O   UNL     1      27.709 -24.026 -17.535  0.00  0.00    -0.480 OA
ATOM     24  H   UNL     1      27.961 -24.925 -17.621  0.00  0.00    +0.295 HD
ENDBRANCH  22  23
ENDBRANCH  20  22
ENDBRANCH  19  20
ENDBRANCH  18  19
ENDBRANCH  17  18
ENDBRANCH  16  17
ENDBRANCH  14  16
ENDBRANCH   2  14
TORSDOF 16
ENDMDL
MODEL 9
REMARK VINA RESULT:      -7.8      8.594     12.885
REMARK  Name = 46937060
REMARK  16 active torsions:
REMARK  status: ('A' for Active; 'I' for Inactive)
REMARK    1  A    between atoms: C_1  and  C_3
REMARK    2  A    between atoms: C_2  and  C_14
REMARK    3  A    between atoms: C_3  and  O_4
REMARK    4  A    between atoms: C_3  and  C_6
REMARK    5  A    between atoms: C_6  and  C_8
REMARK    6  A    between atoms: C_7  and  C_9
REMARK    7  A    between atoms: C_9  and  C_10
REMARK    8  A    between atoms: C_10  and  C_11
REMARK    9  A    between atoms: C_11  and  C_12
REMARK   10  A    between atoms: C_14  and  C_16
REMARK   11  A    between atoms: C_16  and  C_17
REMARK   12  A    between atoms: C_17  and  C_18
REMARK   13  A    between atoms: C_18  and  C_19
REMARK   14  A    between atoms: C_19  and  C_20
REMARK   15  A    between atoms: C_20  and  C_22
REMARK   16  A    between atoms: C_22  and  O_23
REMARK                            x       y       z     vdW  Elec       q    Type
REMARK                         _______ _______ _______ _____ _____    ______ ____
ROOT
ATOM      1  C   UNL     1      33.907 -14.715 -24.323  0.00  0.00    -0.001 C 
ATOM      2  C   UNL     1      33.220 -13.568 -24.429  0.00  0.00    -0.021 C 
ENDROOT
BRANCH   1   3
ATOM      3  C   UNL     1      33.693 -15.903 -25.220  0.00  0.00    +0.136 C 
BRANCH   3   4
ATOM      4  O   UNL     1      33.509 -15.429 -26.553  0.00  0.00    -0.380 OA
ATOM      5  H   UNL     1      34.137 -14.712 -26.731  0.00  0.00    +0.211 HD
ENDBRANCH   3   4
BRANCH   3   6
ATOM      6  C   UNL     1      34.843 -16.922 -25.172  0.00  0.00    +0.059 C 
BRANCH   6   8
ATOM      7  C   UNL     1      34.634 -18.846 -23.572  0.00  0.00    -0.031 C 
ATOM      8  C   UNL     1      34.416 -18.311 -24.783  0.00  0.00    -0.028 C 
BRANCH   7   9
ATOM      9  C   UNL     1      35.332 -18.125 -22.455  0.00  0.00    +0.026 C 
BRANCH   9  10
ATOM     10  C   UNL     1      34.323 -17.507 -21.485  0.00  0.00    +0.005 C 
BRANCH  10  11
ATOM     11  C   UNL     1      34.885 -16.239 -20.837  0.00  0.00    +0.000 C 
BRANCH  11  12
ATOM     12  C   UNL     1      33.844 -15.129 -20.673  0.00  0.00    +0.000 C 
ATOM     13  C   UNL     1      32.421 -15.584 -20.956  0.00  0.00    +0.000 C 
ENDBRANCH  11  12
ENDBRANCH  10  11
ENDBRANCH   9  10
ENDBRANCH   7   9
ENDBRANCH   6   8
ENDBRANCH   3   6
ENDBRANCH   1   3
BRANCH   2  14
ATOM     14  C   UNL     1      33.431 -12.388 -23.535  0.00  0.00    +0.090 C 
BRANCH  14  16
ATOM     15  O   UNL     1      34.490 -11.201 -25.358  0.00  0.00    -0.296 OA
ATOM     16  C   UNL     1      33.811 -11.148 -24.333  0.00  0.00    +0.155 C 
BRANCH  16  17
ATOM     17  C   UNL     1      33.301  -9.830 -23.768  0.00  0.00    +0.065 C 
BRANCH  17  18
ATOM     18  C   UNL     1      34.352  -8.723 -23.819  0.00  0.00    +0.008 C 
BRANCH  18  19
ATOM     19  C   UNL     1      34.025  -7.602 -22.827  0.00  0.00    +0.012 C 
BRANCH  19  20
ATOM     20  C   UNL     1      32.630  -7.751 -22.217  0.00  0.00    +0.109 C 
BRANCH  20  22
ATOM     21  O   UNL     1      32.749  -7.571 -19.787  0.00  0.00    -0.250 OA
ATOM     22  C   UNL     1      32.495  -7.075 -20.874  0.00  0.00    +0.314 C 
BRANCH  22  23
ATOM     23  O   UNL     1      32.015  -5.816 -21.033  0.00  0.00    -0.480 OA
ATOM     24  H   UNL     1      32.378  -5.109 -20.536  0.00  0.00    +0.295 HD
ENDBRANCH  22  23
ENDBRANCH  20  22
ENDBRANCH  19  20
ENDBRANCH  18  19
ENDBRANCH  17  18
ENDBRANCH  16  17
ENDBRANCH  14  16
ENDBRANCH   2  14
TORSDOF 16
ENDMDL
