MODEL 1
REMARK VINA RESULT:      -7.2      0.000      0.000
REMARK  Name = 233979
REMARK  4 active torsions:
REMARK  status: ('A' for Active; 'I' for Inactive)
REMARK    1  A    between atoms: N_2  and  C_12
REMARK    2  A    between atoms: C_3  and  C_6
REMARK    3  A    between atoms: C_12  and  C_13
REMARK    4  A    between atoms: C_13  and  O_14
REMARK                            x       y       z     vdW  Elec       q    Type
REMARK                         _______ _______ _______ _____ _____    ______ ____
ROOT
ATOM      1  O   UNL     1      36.365 -18.411 -21.822  0.00  0.00    -0.270 OA
ATOM      2  N   UNL     1      34.600 -18.954 -23.225  0.00  0.00    -0.298 N 
ATOM      3  C   UNL     1      35.321 -19.056 -22.029  0.00  0.00    +0.246 C 
ATOM      4  H   UNL     1      33.782 -19.492 -23.322  0.00  0.00    +0.150 HD
ENDROOT
BRANCH   3   6
ATOM      5 CL   UNL     1      33.228 -22.829 -17.912  0.00  0.00    -0.082 Cl
ATOM      6  C   UNL     1      34.811 -19.976 -21.026  0.00  0.00    +0.053 C 
ATOM      7  C   UNL     1      35.687 -20.820 -20.344  0.00  0.00    +0.005 C 
ATOM      8  C   UNL     1      33.445 -20.014 -20.745  0.00  0.00    +0.005 C 
ATOM      9  C   UNL     1      35.198 -21.703 -19.381  0.00  0.00    +0.012 C 
ATOM     10  C   UNL     1      32.956 -20.896 -19.781  0.00  0.00    +0.012 C 
ATOM     11  C   UNL     1      33.832 -21.740 -19.099  0.00  0.00    +0.058 C 
ENDBRANCH   3   6
BRANCH   2  12
ATOM     12  C   UNL     1      34.992 -18.101 -24.324  0.00  0.00    +0.122 C 
BRANCH  12  13
ATOM     13  C   UNL     1      34.525 -16.679 -24.071  0.00  0.00    +0.158 C 
BRANCH  13  14
ATOM     14  O   UNL     1      35.589 -15.923 -23.507  0.00  0.00    -0.380 OA
ATOM     15  H   UNL     1      35.938 -16.386 -22.729  0.00  0.00    +0.211 HD
ENDBRANCH  13  14
ENDBRANCH  12  13
ENDBRANCH   2  12
TORSDOF 4
ENDMDL
MODEL 2
REMARK VINA RESULT:      -7.1      4.473      6.306
REMARK  Name = 233979
REMARK  4 active torsions:
REMARK  status: ('A' for Active; 'I' for Inactive)
REMARK    1  A    between atoms: N_2  and  C_12
REMARK    2  A    between atoms: C_3  and  C_6
REMARK    3  A    between atoms: C_12  and  C_13
REMARK    4  A    between atoms: C_13  and  O_14
REMARK                            x       y       z     vdW  Elec       q    Type
REMARK                         _______ _______ _______ _____ _____    ______ ____
ROOT
ATOM      1  O   UNL     1      33.826 -23.933 -18.787  0.00  0.00    -0.270 OA
ATOM      2  N   UNL     1      32.498 -22.434 -17.616  0.00  0.00    -0.298 N 
ATOM      3  C   UNL     1      33.435 -22.766 -18.603  0.00  0.00    +0.246 C 
ATOM      4  H   UNL     1      32.234 -21.491 -17.525  0.00  0.00    +0.150 HD
ENDROOT
BRANCH   3   6
ATOM      5 CL   UNL     1      35.605 -18.294 -21.897  0.00  0.00    -0.082 Cl
ATOM      6  C   UNL     1      33.964 -21.676 -19.405  0.00  0.00    +0.053 C 
ATOM      7  C   UNL     1      35.342 -21.538 -19.573  0.00  0.00    +0.005 C 
ATOM      8  C   UNL     1      33.094 -20.767 -20.009  0.00  0.00    +0.005 C 
ATOM      9  C   UNL     1      35.850 -20.492 -20.343  0.00  0.00    +0.012 C 
ATOM     10  C   UNL     1      33.602 -19.722 -20.780  0.00  0.00    +0.012 C 
ATOM     11  C   UNL     1      34.980 -19.585 -20.948  0.00  0.00    +0.058 C 
ENDBRANCH   3   6
BRANCH   2  12
ATOM     12  C   UNL     1      31.900 -23.402 -16.725  0.00  0.00    +0.122 C 
BRANCH  12  13
ATOM     13  C   UNL     1      30.628 -22.834 -16.120  0.00  0.00    +0.158 C 
BRANCH  13  14
ATOM     14  O   UNL     1      29.761 -22.399 -17.160  0.00  0.00    -0.380 OA
ATOM     15  H   UNL     1      30.207 -22.498 -18.015  0.00  0.00    +0.211 HD
ENDBRANCH  13  14
ENDBRANCH  12  13
ENDBRANCH   2  12
TORSDOF 4
ENDMDL
MODEL 3
REMARK VINA RESULT:      -6.9      1.614      2.162
REMARK  Name = 233979
REMARK  4 active torsions:
REMARK  status: ('A' for Active; 'I' for Inactive)
REMARK    1  A    between atoms: N_2  and  C_12
REMARK    2  A    between atoms: C_3  and  C_6
REMARK    3  A    between atoms: C_12  and  C_13
REMARK    4  A    between atoms: C_13  and  O_14
REMARK                            x       y       z     vdW  Elec       q    Type
REMARK                         _______ _______ _______ _____ _____    ______ ____
ROOT
ATOM      1  O   UNL     1      35.078 -19.066 -23.118  0.00  0.00    -0.270 OA
ATOM      2  N   UNL     1      34.666 -17.458 -21.496  0.00  0.00    -0.298 N 
ATOM      3  C   UNL     1      34.782 -18.780 -21.943  0.00  0.00    +0.246 C 
ATOM      4  H   UNL     1      34.429 -17.306 -20.554  0.00  0.00    +0.150 HD
ENDROOT
BRANCH   3   6
ATOM      5 CL   UNL     1      33.692 -23.092 -17.969  0.00  0.00    -0.082 Cl
ATOM      6  C   UNL     1      34.516 -19.831 -20.974  0.00  0.00    +0.053 C 
ATOM      7  C   UNL     1      33.208 -20.087 -20.563  0.00  0.00    +0.005 C 
ATOM      8  C   UNL     1      35.569 -20.585 -20.455  0.00  0.00    +0.005 C 
ATOM      9  C   UNL     1      32.952 -21.095 -19.633  0.00  0.00    +0.012 C 
ATOM     10  C   UNL     1      35.314 -21.593 -19.526  0.00  0.00    +0.012 C 
ATOM     11  C   UNL     1      34.006 -21.849 -19.116  0.00  0.00    +0.058 C 
ENDBRANCH   3   6
BRANCH   2  12
ATOM     12  C   UNL     1      34.876 -16.307 -22.345  0.00  0.00    +0.122 C 
BRANCH  12  13
ATOM     13  C   UNL     1      34.491 -15.039 -21.605  0.00  0.00    +0.158 C 
BRANCH  13  14
ATOM     14  O   UNL     1      34.879 -15.149 -20.241  0.00  0.00    -0.380 OA
ATOM     15  H   UNL     1      35.839 -15.029 -20.167  0.00  0.00    +0.211 HD
ENDBRANCH  13  14
ENDBRANCH  12  13
ENDBRANCH   2  12
TORSDOF 4
ENDMDL
MODEL 4
REMARK VINA RESULT:      -6.8      1.170      1.781
REMARK  Name = 233979
REMARK  4 active torsions:
REMARK  status: ('A' for Active; 'I' for Inactive)
REMARK    1  A    between atoms: N_2  and  C_12
REMARK    2  A    between atoms: C_3  and  C_6
REMARK    3  A    between atoms: C_12  and  C_13
REMARK    4  A    between atoms: C_13  and  O_14
REMARK                            x       y       z     vdW  Elec       q    Type
REMARK                         _______ _______ _______ _____ _____    ______ ____
ROOT
ATOM      1  O   UNL     1      35.565 -17.236 -21.959  0.00  0.00    -0.270 OA
ATOM      2  N   UNL     1      34.675 -18.500 -23.688  0.00  0.00    -0.298 N 
ATOM      3  C   UNL     1      34.981 -18.266 -22.342  0.00  0.00    +0.246 C 
ATOM      4  H   UNL     1      34.211 -19.336 -23.920  0.00  0.00    +0.150 HD
ENDROOT
BRANCH   3   6
ATOM      5 CL   UNL     1      33.441 -22.502 -18.436  0.00  0.00    -0.082 Cl
ATOM      6  C   UNL     1      34.605 -19.297 -21.390  0.00  0.00    +0.053 C 
ATOM      7  C   UNL     1      33.265 -19.477 -21.047  0.00  0.00    +0.005 C 
ATOM      8  C   UNL     1      35.585 -20.111 -20.819  0.00  0.00    +0.005 C 
ATOM      9  C   UNL     1      32.904 -20.467 -20.133  0.00  0.00    +0.012 C 
ATOM     10  C   UNL     1      35.224 -21.102 -19.906  0.00  0.00    +0.012 C 
ATOM     11  C   UNL     1      33.885 -21.280 -19.564  0.00  0.00    +0.058 C 
ENDBRANCH   3   6
BRANCH   2  12
ATOM     12  C   UNL     1      35.004 -17.581 -24.754  0.00  0.00    +0.122 C 
BRANCH  12  13
ATOM     13  C   UNL     1      33.986 -16.456 -24.803  0.00  0.00    +0.158 C 
BRANCH  13  14
ATOM     14  O   UNL     1      33.885 -15.965 -26.134  0.00  0.00    -0.380 OA
ATOM     15  H   UNL     1      34.500 -15.225 -26.253  0.00  0.00    +0.211 HD
ENDBRANCH  13  14
ENDBRANCH  12  13
ENDBRANCH   2  12
TORSDOF 4
ENDMDL
MODEL 5
REMARK VINA RESULT:      -6.6      3.567      5.779
REMARK  Name = 233979
REMARK  4 active torsions:
REMARK  status: ('A' for Active; 'I' for Inactive)
REMARK    1  A    between atoms: N_2  and  C_12
REMARK    2  A    between atoms: C_3  and  C_6
REMARK    3  A    between atoms: C_12  and  C_13
REMARK    4  A    between atoms: C_13  and  O_14
REMARK                            x       y       z     vdW  Elec       q    Type
REMARK                         _______ _______ _______ _____ _____    ______ ____
ROOT
ATOM      1  O   UNL     1      36.684 -19.356 -20.241  0.00  0.00    -0.270 OA
ATOM      2  N   UNL     1      34.756 -20.609 -20.551  0.00  0.00    -0.298 N 
ATOM      3  C   UNL     1      35.640 -19.574 -20.882  0.00  0.00    +0.246 C 
ATOM      4  H   UNL     1      33.950 -20.724 -21.102  0.00  0.00    +0.150 HD
ENDROOT
BRANCH   3   6
ATOM      5 CL   UNL     1      34.157 -16.117 -25.510  0.00  0.00    -0.082 Cl
ATOM      6  C   UNL     1      35.278 -18.732 -22.010  0.00  0.00    +0.053 C 
ATOM      7  C   UNL     1      35.258 -17.344 -21.866  0.00  0.00    +0.005 C 
ATOM      8  C   UNL     1      34.951 -19.310 -23.237  0.00  0.00    +0.005 C 
ATOM      9  C   UNL     1      34.911 -16.535 -22.948  0.00  0.00    +0.012 C 
ATOM     10  C   UNL     1      34.605 -18.501 -24.319  0.00  0.00    +0.012 C 
ATOM     11  C   UNL     1      34.586 -17.114 -24.175  0.00  0.00    +0.058 C 
ENDBRANCH   3   6
BRANCH   2  12
ATOM     12  C   UNL     1      34.966 -21.515 -19.445  0.00  0.00    +0.122 C 
BRANCH  12  13
ATOM     13  C   UNL     1      33.671 -22.233 -19.109  0.00  0.00    +0.158 C 
BRANCH  13  14
ATOM     14  O   UNL     1      33.873 -23.639 -19.193  0.00  0.00    -0.380 OA
ATOM     15  H   UNL     1      34.100 -23.878 -20.105  0.00  0.00    +0.211 HD
ENDBRANCH  13  14
ENDBRANCH  12  13
ENDBRANCH   2  12
TORSDOF 4
ENDMDL
MODEL 6
REMARK VINA RESULT:      -6.6      4.430      6.432
REMARK  Name = 233979
REMARK  4 active torsions:
REMARK  status: ('A' for Active; 'I' for Inactive)
REMARK    1  A    between atoms: N_2  and  C_12
REMARK    2  A    between atoms: C_3  and  C_6
REMARK    3  A    between atoms: C_12  and  C_13
REMARK    4  A    between atoms: C_13  and  O_14
REMARK                            x       y       z     vdW  Elec       q    Type
REMARK                         _______ _______ _______ _____ _____    ______ ____
ROOT
ATOM      1  O   UNL     1      33.820 -23.945 -19.148  0.00  0.00    -0.270 OA
ATOM      2  N   UNL     1      34.123 -22.638 -17.255  0.00  0.00    -0.298 N 
ATOM      3  C   UNL     1      34.024 -22.828 -18.639  0.00  0.00    +0.246 C 
ATOM      4  H   UNL     1      34.284 -21.727 -16.921  0.00  0.00    +0.150 HD
ENDROOT
BRANCH   3   6
ATOM      5 CL   UNL     1      34.723 -18.016 -22.093  0.00  0.00    -0.082 Cl
ATOM      6  C   UNL     1      34.194 -21.655 -19.480  0.00  0.00    +0.053 C 
ATOM      7  C   UNL     1      35.473 -21.253 -19.867  0.00  0.00    +0.005 C 
ATOM      8  C   UNL     1      33.079 -20.931 -19.903  0.00  0.00    +0.005 C 
ATOM      9  C   UNL     1      35.637 -20.127 -20.674  0.00  0.00    +0.012 C 
ATOM     10  C   UNL     1      33.243 -19.806 -20.711  0.00  0.00    +0.012 C 
ATOM     11  C   UNL     1      34.522 -19.405 -21.097  0.00  0.00    +0.058 C 
ENDBRANCH   3   6
BRANCH   2  12
ATOM     12  C   UNL     1      33.999 -23.709 -16.292  0.00  0.00    +0.122 C 
BRANCH  12  13
ATOM     13  C   UNL     1      35.100 -23.601 -15.252  0.00  0.00    +0.158 C 
BRANCH  13  14
ATOM     14  O   UNL     1      36.318 -24.095 -15.797  0.00  0.00    -0.380 OA
ATOM     15  H   UNL     1      36.244 -25.051 -15.941  0.00  0.00    +0.211 HD
ENDBRANCH  13  14
ENDBRANCH  12  13
ENDBRANCH   2  12
TORSDOF 4
ENDMDL
MODEL 7
REMARK VINA RESULT:      -6.4      4.714      6.223
REMARK  Name = 233979
REMARK  4 active torsions:
REMARK  status: ('A' for Active; 'I' for Inactive)
REMARK    1  A    between atoms: N_2  and  C_12
REMARK    2  A    between atoms: C_3  and  C_6
REMARK    3  A    between atoms: C_12  and  C_13
REMARK    4  A    between atoms: C_13  and  O_14
REMARK                            x       y       z     vdW  Elec       q    Type
REMARK                         _______ _______ _______ _____ _____    ______ ____
ROOT
ATOM      1  O   UNL     1      32.323 -12.817 -22.764  0.00  0.00    -0.270 OA
ATOM      2  N   UNL     1      34.144 -12.548 -24.175  0.00  0.00    -0.298 N 
ATOM      3  C   UNL     1      33.414 -13.232 -23.195  0.00  0.00    +0.246 C 
ATOM      4  H   UNL     1      34.999 -12.934 -24.470  0.00  0.00    +0.150 HD
ENDROOT
BRANCH   3   6
ATOM      5 CL   UNL     1      35.803 -18.255 -21.044  0.00  0.00    -0.082 Cl
ATOM      6  C   UNL     1      33.997 -14.455 -22.671  0.00  0.00    +0.053 C 
ATOM      7  C   UNL     1      34.022 -14.683 -21.294  0.00  0.00    +0.005 C 
ATOM      8  C   UNL     1      34.530 -15.404 -23.544  0.00  0.00    +0.005 C 
ATOM      9  C   UNL     1      34.581 -15.857 -20.791  0.00  0.00    +0.012 C 
ATOM     10  C   UNL     1      35.088 -16.579 -23.040  0.00  0.00    +0.012 C 
ATOM     11  C   UNL     1      35.113 -16.806 -21.664  0.00  0.00    +0.058 C 
ENDBRANCH   3   6
BRANCH   2  12
ATOM     12  C   UNL     1      33.708 -11.308 -24.776  0.00  0.00    +0.122 C 
BRANCH  12  13
ATOM     13  C   UNL     1      34.142 -10.133 -23.917  0.00  0.00    +0.158 C 
BRANCH  13  14
ATOM     14  O   UNL     1      35.522  -9.869 -24.137  0.00  0.00    -0.380 OA
ATOM     15  H   UNL     1      35.872 -10.497 -24.789  0.00  0.00    +0.211 HD
ENDBRANCH  13  14
ENDBRANCH  12  13
ENDBRANCH   2  12
TORSDOF 4
ENDMDL
MODEL 8
REMARK VINA RESULT:      -6.4      6.157      8.315
REMARK  Name = 233979
REMARK  4 active torsions:
REMARK  status: ('A' for Active; 'I' for Inactive)
REMARK    1  A    between atoms: N_2  and  C_12
REMARK    2  A    between atoms: C_3  and  C_6
REMARK    3  A    between atoms: C_12  and  C_13
REMARK    4  A    between atoms: C_13  and  O_14
REMARK                            x       y       z     vdW  Elec       q    Type
REMARK                         _______ _______ _______ _____ _____    ______ ____
ROOT
ATOM      1  O   UNL     1      37.648 -22.627 -14.255  0.00  0.00    -0.270 OA
ATOM      2  N   UNL     1      37.922 -24.663 -15.332  0.00  0.00    -0.298 N 
ATOM      3  C   UNL     1      37.397 -23.369 -15.222  0.00  0.00    +0.246 C 
ATOM      4  H   UNL     1      37.682 -25.195 -16.124  0.00  0.00    +0.150 HD
ENDROOT
BRANCH   3   6
ATOM      5 CL   UNL     1      33.764 -21.532 -19.580  0.00  0.00    -0.082 Cl
ATOM      6  C   UNL     1      36.512 -22.922 -16.284  0.00  0.00    +0.053 C 
ATOM      7  C   UNL     1      35.175 -23.322 -16.294  0.00  0.00    +0.005 C 
ATOM      8  C   UNL     1      36.998 -22.092 -17.295  0.00  0.00    +0.005 C 
ATOM      9  C   UNL     1      34.325 -22.893 -17.313  0.00  0.00    +0.012 C 
ATOM     10  C   UNL     1      36.148 -21.662 -18.314  0.00  0.00    +0.012 C 
ATOM     11  C   UNL     1      34.812 -22.062 -18.322  0.00  0.00    +0.058 C 
ENDBRANCH   3   6
BRANCH   2  12
ATOM     12  C   UNL     1      38.797 -25.257 -14.347  0.00  0.00    +0.122 C 
BRANCH  12  13
ATOM     13  C   UNL     1      40.235 -25.203 -14.829  0.00  0.00    +0.158 C 
BRANCH  13  14
ATOM     14  O   UNL     1      40.363 -25.960 -16.027  0.00  0.00    -0.380 OA
ATOM     15  H   UNL     1      39.751 -25.613 -16.695  0.00  0.00    +0.211 HD
ENDBRANCH  13  14
ENDBRANCH  12  13
ENDBRANCH   2  12
TORSDOF 4
ENDMDL
MODEL 9
REMARK VINA RESULT:      -6.4      3.535      5.850
REMARK  Name = 233979
REMARK  4 active torsions:
REMARK  status: ('A' for Active; 'I' for Inactive)
REMARK    1  A    between atoms: N_2  and  C_12
REMARK    2  A    between atoms: C_3  and  C_6
REMARK    3  A    between atoms: C_12  and  C_13
REMARK    4  A    between atoms: C_13  and  O_14
REMARK                            x       y       z     vdW  Elec       q    Type
REMARK                         _______ _______ _______ _____ _____    ______ ____
ROOT
ATOM      1  O   UNL     1      36.753 -18.732 -21.513  0.00  0.00    -0.270 OA
ATOM      2  N   UNL     1      34.646 -19.679 -21.299  0.00  0.00    -0.298 N 
ATOM      3  C   UNL     1      35.565 -18.796 -21.879  0.00  0.00    +0.246 C 
ATOM      4  H   UNL     1      33.722 -19.676 -21.638  0.00  0.00    +0.150 HD
ENDROOT
BRANCH   3   6
ATOM      5 CL   UNL     1      33.527 -15.210 -26.187  0.00  0.00    -0.082 Cl
ATOM      6  C   UNL     1      35.069 -17.922 -22.929  0.00  0.00    +0.053 C 
ATOM      7  C   UNL     1      34.707 -18.454 -24.167  0.00  0.00    +0.005 C 
ATOM      8  C   UNL     1      34.953 -16.551 -22.700  0.00  0.00    +0.005 C 
ATOM      9  C   UNL     1      34.230 -17.616 -25.175  0.00  0.00    +0.012 C 
ATOM     10  C   UNL     1      34.476 -15.712 -23.707  0.00  0.00    +0.012 C 
ATOM     11  C   UNL     1      34.114 -16.245 -24.944  0.00  0.00    +0.058 C 
ENDBRANCH   3   6
BRANCH   2  12
ATOM     12  C   UNL     1      34.981 -20.592 -20.230  0.00  0.00    +0.122 C 
BRANCH  12  13
ATOM     13  C   UNL     1      33.722 -21.248 -19.693  0.00  0.00    +0.158 C 
BRANCH  13  14
ATOM     14  O   UNL     1      32.611 -20.874 -20.498  0.00  0.00    -0.380 OA
ATOM     15  H   UNL     1      32.790 -21.104 -21.423  0.00  0.00    +0.211 HD
ENDBRANCH  13  14
ENDBRANCH  12  13
ENDBRANCH   2  12
TORSDOF 4
ENDMDL
