MODEL 1
REMARK VINA RESULT:      -9.9      0.000      0.000
REMARK  Name = 164509
REMARK  2 active torsions:
REMARK  status: ('A' for Active; 'I' for Inactive)
REMARK    1  A    between atoms: C_10  and  C_19
REMARK    2  A    between atoms: C_24  and  N_25
REMARK                            x       y       z     vdW  Elec       q    Type
REMARK                         _______ _______ _______ _____ _____    ______ ____
ROOT
ATOM      1  O   UNL     1      37.156 -20.505 -18.816  0.00  0.00    -0.435 OA
ATOM      2  O   UNL     1      35.292 -21.820 -19.592  0.00  0.00    -0.435 OA
ATOM      3  O   UNL     1      38.570 -26.555 -14.886  0.00  0.00    -0.273 OA
ATOM      4  N   UNL     1      36.801 -25.063 -14.658  0.00  0.00    -0.182 N 
ATOM      5  N   UNL     1      35.440 -25.000 -14.552  0.00  0.00    -0.176 NA
ATOM      6  C   UNL     1      37.634 -23.972 -14.117  0.00  0.00    +0.104 C 
ATOM      7  C   UNL     1      37.043 -22.567 -14.302  0.00  0.00    +0.048 C 
ATOM      8  C   UNL     1      36.551 -22.374 -15.710  0.00  0.00    -0.016 C 
ATOM      9  C   UNL     1      35.453 -23.135 -16.172  0.00  0.00    +0.018 C 
ATOM     10  C   UNL     1      34.801 -24.101 -15.244  0.00  0.00    +0.099 C 
ATOM     11  C   UNL     1      37.936 -24.218 -12.636  0.00  0.00    +0.024 C 
ATOM     12  C   UNL     1      37.170 -21.457 -16.570  0.00  0.00    +0.036 C 
ATOM     13  C   UNL     1      34.975 -23.002 -17.482  0.00  0.00    +0.041 C 
ATOM     14  C   UNL     1      36.676 -21.339 -17.854  0.00  0.00    +0.176 C 
ATOM     15  C   UNL     1      35.612 -22.090 -18.297  0.00  0.00    +0.176 C 
ATOM     16  C   UNL     1      37.372 -26.291 -15.001  0.00  0.00    +0.245 C 
ATOM     17  C   UNL     1      36.274 -20.814 -19.915  0.00  0.00    +0.429 C 
ATOM     18  C   UNL     1      36.419 -27.324 -15.558  0.00  0.00    +0.097 C 
ENDROOT
BRANCH  10  19
ATOM     19  C   UNL     1      33.315 -24.054 -15.104  0.00  0.00    +0.019 C 
ATOM     20  C   UNL     1      32.557 -23.370 -16.047  0.00  0.00    +0.003 C 
ATOM     21  C   UNL     1      32.705 -24.695 -14.032  0.00  0.00    +0.003 C 
ATOM     22  C   UNL     1      31.168 -23.327 -15.915  0.00  0.00    +0.014 C 
ATOM     23  C   UNL     1      31.318 -24.651 -13.901  0.00  0.00    +0.014 C 
ATOM     24  C   UNL     1      30.549 -23.967 -14.842  0.00  0.00    +0.042 C 
BRANCH  24  25
ATOM     25  N   UNL     1      29.145 -23.925 -14.710  0.00  0.00    -0.357 N 
ATOM     26  H   UNL     1      28.572 -24.260 -15.437  0.00  0.00    +0.142 HD
ATOM     27  H   UNL     1      28.738 -23.560 -13.891  0.00  0.00    +0.142 HD
ENDBRANCH  24  25
ENDBRANCH  10  19
TORSDOF 2
ENDMDL
MODEL 2
REMARK VINA RESULT:      -8.9     10.394     14.151
REMARK  Name = 164509
REMARK  2 active torsions:
REMARK  status: ('A' for Active; 'I' for Inactive)
REMARK    1  A    between atoms: C_10  and  C_19
REMARK    2  A    between atoms: C_24  and  N_25
REMARK                            x       y       z     vdW  Elec       q    Type
REMARK                         _______ _______ _______ _____ _____    ______ ____
ROOT
ATOM      1  O   UNL     1      35.079 -17.797 -23.899  0.00  0.00    -0.435 OA
ATOM      2  O   UNL     1      35.680 -16.396 -22.032  0.00  0.00    -0.435 OA
ATOM      3  O   UNL     1      35.465 -11.440 -27.573  0.00  0.00    -0.273 OA
ATOM      4  N   UNL     1      33.914 -12.090 -25.966  0.00  0.00    -0.182 N 
ATOM      5  N   UNL     1      33.313 -11.682 -24.809  0.00  0.00    -0.176 NA
ATOM      6  C   UNL     1      33.243 -13.073 -26.839  0.00  0.00    +0.104 C 
ATOM      7  C   UNL     1      32.483 -14.177 -26.090  0.00  0.00    +0.048 C 
ATOM      8  C   UNL     1      33.327 -14.754 -24.987  0.00  0.00    -0.016 C 
ATOM      9  C   UNL     1      33.678 -13.944 -23.884  0.00  0.00    +0.018 C 
ATOM     10  C   UNL     1      33.188 -12.537 -23.835  0.00  0.00    +0.099 C 
ATOM     11  C   UNL     1      32.299 -12.361 -27.813  0.00  0.00    +0.024 C 
ATOM     12  C   UNL     1      33.775 -16.080 -25.043  0.00  0.00    +0.036 C 
ATOM     13  C   UNL     1      34.480 -14.435 -22.845  0.00  0.00    +0.041 C 
ATOM     14  C   UNL     1      34.558 -16.544 -24.004  0.00  0.00    +0.176 C 
ATOM     15  C   UNL     1      34.901 -15.745 -22.939  0.00  0.00    +0.176 C 
ATOM     16  C   UNL     1      34.997 -11.344 -26.437  0.00  0.00    +0.245 C 
ATOM     17  C   UNL     1      35.788 -17.697 -22.647  0.00  0.00    +0.429 C 
ATOM     18  C   UNL     1      35.609 -10.382 -25.445  0.00  0.00    +0.097 C 
ENDROOT
BRANCH  10  19
ATOM     19  C   UNL     1      32.523 -12.063 -22.585  0.00  0.00    +0.019 C 
ATOM     20  C   UNL     1      32.285 -12.960 -21.550  0.00  0.00    +0.003 C 
ATOM     21  C   UNL     1      32.151 -10.729 -22.468  0.00  0.00    +0.003 C 
ATOM     22  C   UNL     1      31.664 -12.516 -20.382  0.00  0.00    +0.014 C 
ATOM     23  C   UNL     1      31.530 -10.286 -21.301  0.00  0.00    +0.014 C 
ATOM     24  C   UNL     1      31.286 -11.179 -20.258  0.00  0.00    +0.042 C 
BRANCH  24  25
ATOM     25  N   UNL     1      30.661 -10.730 -19.076  0.00  0.00    -0.357 N 
ATOM     26  H   UNL     1      29.896 -10.113 -19.128  0.00  0.00    +0.142 HD
ATOM     27  H   UNL     1      30.989 -11.035 -18.199  0.00  0.00    +0.142 HD
ENDBRANCH  24  25
ENDBRANCH  10  19
TORSDOF 2
ENDMDL
MODEL 3
REMARK VINA RESULT:      -8.0     10.378     14.095
REMARK  Name = 164509
REMARK  2 active torsions:
REMARK  status: ('A' for Active; 'I' for Inactive)
REMARK    1  A    between atoms: C_10  and  C_19
REMARK    2  A    between atoms: C_24  and  N_25
REMARK                            x       y       z     vdW  Elec       q    Type
REMARK                         _______ _______ _______ _____ _____    ______ ____
ROOT
ATOM      1  O   UNL     1      31.311  -9.632 -21.251  0.00  0.00    -0.435 OA
ATOM      2  O   UNL     1      30.616 -11.881 -20.736  0.00  0.00    -0.435 OA
ATOM      3  O   UNL     1      32.304 -12.483 -27.955  0.00  0.00    -0.273 OA
ATOM      4  N   UNL     1      33.496 -12.920 -26.006  0.00  0.00    -0.182 N 
ATOM      5  N   UNL     1      33.960 -13.938 -25.222  0.00  0.00    -0.176 NA
ATOM      6  C   UNL     1      34.161 -11.603 -25.976  0.00  0.00    +0.104 C 
ATOM      7  C   UNL     1      34.651 -11.168 -24.587  0.00  0.00    +0.048 C 
ATOM      8  C   UNL     1      33.582 -11.382 -23.551  0.00  0.00    -0.016 C 
ATOM      9  C   UNL     1      33.173 -12.698 -23.236  0.00  0.00    +0.018 C 
ATOM     10  C   UNL     1      33.825 -13.844 -23.931  0.00  0.00    +0.099 C 
ATOM     11  C   UNL     1      35.325 -11.573 -26.970  0.00  0.00    +0.024 C 
ATOM     12  C   UNL     1      32.982 -10.296 -22.901  0.00  0.00    +0.036 C 
ATOM     13  C   UNL     1      32.167 -12.942 -22.292  0.00  0.00    +0.041 C 
ATOM     14  C   UNL     1      31.997 -10.562 -21.970  0.00  0.00    +0.176 C 
ATOM     15  C   UNL     1      31.600 -11.846 -21.676  0.00  0.00    +0.176 C 
ATOM     16  C   UNL     1      32.601 -13.242 -27.029  0.00  0.00    +0.245 C 
ATOM     17  C   UNL     1      30.438 -10.475 -20.471  0.00  0.00    +0.429 C 
ATOM     18  C   UNL     1      31.973 -14.614 -26.943  0.00  0.00    +0.097 C 
ENDROOT
BRANCH  10  19
ATOM     19  C   UNL     1      34.347 -14.970 -23.100  0.00  0.00    +0.019 C 
ATOM     20  C   UNL     1      34.309 -14.877 -21.714  0.00  0.00    +0.003 C 
ATOM     21  C   UNL     1      34.865 -16.100 -23.722  0.00  0.00    +0.003 C 
ATOM     22  C   UNL     1      34.796 -15.930 -20.939  0.00  0.00    +0.014 C 
ATOM     23  C   UNL     1      35.351 -17.152 -22.947  0.00  0.00    +0.014 C 
ATOM     24  C   UNL     1      35.318 -17.067 -21.556  0.00  0.00    +0.042 C 
BRANCH  24  25
ATOM     25  N   UNL     1      35.808 -18.132 -20.772  0.00  0.00    -0.357 N 
ATOM     26  H   UNL     1      35.751 -18.088 -19.790  0.00  0.00    +0.142 HD
ATOM     27  H   UNL     1      36.208 -18.920 -21.206  0.00  0.00    +0.142 HD
ENDBRANCH  24  25
ENDBRANCH  10  19
TORSDOF 2
ENDMDL
MODEL 4
REMARK VINA RESULT:      -7.8      2.936      5.505
REMARK  Name = 164509
REMARK  2 active torsions:
REMARK  status: ('A' for Active; 'I' for Inactive)
REMARK    1  A    between atoms: C_10  and  C_19
REMARK    2  A    between atoms: C_24  and  N_25
REMARK                            x       y       z     vdW  Elec       q    Type
REMARK                         _______ _______ _______ _____ _____    ______ ____
ROOT
ATOM      1  O   UNL     1      30.878 -24.763 -13.851  0.00  0.00    -0.435 OA
ATOM      2  O   UNL     1      31.268 -22.444 -14.380  0.00  0.00    -0.435 OA
ATOM      3  O   UNL     1      37.777 -24.370 -11.340  0.00  0.00    -0.273 OA
ATOM      4  N   UNL     1      37.029 -24.246 -13.539  0.00  0.00    -0.182 N 
ATOM      5  N   UNL     1      37.128 -23.501 -14.679  0.00  0.00    -0.176 NA
ATOM      6  C   UNL     1      36.662 -25.673 -13.619  0.00  0.00    +0.104 C 
ATOM      7  C   UNL     1      35.611 -26.001 -14.691  0.00  0.00    +0.048 C 
ATOM      8  C   UNL     1      34.461 -25.035 -14.626  0.00  0.00    -0.016 C 
ATOM      9  C   UNL     1      34.678 -23.675 -14.942  0.00  0.00    +0.018 C 
ATOM     10  C   UNL     1      36.043 -23.235 -15.347  0.00  0.00    +0.099 C 
ATOM     11  C   UNL     1      37.911 -26.532 -13.837  0.00  0.00    +0.024 C 
ATOM     12  C   UNL     1      33.181 -25.464 -14.249  0.00  0.00    +0.036 C 
ATOM     13  C   UNL     1      33.639 -22.737 -14.875  0.00  0.00    +0.041 C 
ATOM     14  C   UNL     1      32.172 -24.523 -14.197  0.00  0.00    +0.176 C 
ATOM     15  C   UNL     1      32.395 -23.199 -14.499  0.00  0.00    +0.176 C 
ATOM     16  C   UNL     1      37.570 -23.717 -12.365  0.00  0.00    +0.245 C 
ATOM     17  C   UNL     1      30.311 -23.442 -13.969  0.00  0.00    +0.429 C 
ATOM     18  C   UNL     1      37.892 -22.241 -12.400  0.00  0.00    +0.097 C 
ENDROOT
BRANCH  10  19
ATOM     19  C   UNL     1      36.183 -22.422 -16.592  0.00  0.00    +0.019 C 
ATOM     20  C   UNL     1      37.194 -21.473 -16.684  0.00  0.00    +0.003 C 
ATOM     21  C   UNL     1      35.302 -22.624 -17.648  0.00  0.00    +0.003 C 
ATOM     22  C   UNL     1      37.325 -20.714 -17.847  0.00  0.00    +0.014 C 
ATOM     23  C   UNL     1      35.433 -21.866 -18.811  0.00  0.00    +0.014 C 
ATOM     24  C   UNL     1      36.444 -20.910 -18.911  0.00  0.00    +0.042 C 
BRANCH  24  25
ATOM     25  N   UNL     1      36.578 -20.145 -20.087  0.00  0.00    -0.357 N 
ATOM     26  H   UNL     1      36.909 -20.566 -20.914  0.00  0.00    +0.142 HD
ATOM     27  H   UNL     1      36.340 -19.190 -20.083  0.00  0.00    +0.142 HD
ENDBRANCH  24  25
ENDBRANCH  10  19
TORSDOF 2
ENDMDL
MODEL 5
REMARK VINA RESULT:      -7.5      2.825      5.781
REMARK  Name = 164509
REMARK  2 active torsions:
REMARK  status: ('A' for Active; 'I' for Inactive)
REMARK    1  A    between atoms: C_10  and  C_19
REMARK    2  A    between atoms: C_24  and  N_25
REMARK                            x       y       z     vdW  Elec       q    Type
REMARK                         _______ _______ _______ _____ _____    ______ ____
ROOT
ATOM      1  O   UNL     1      37.273 -26.277 -12.971  0.00  0.00    -0.435 OA
ATOM      2  O   UNL     1      37.288 -26.649 -15.352  0.00  0.00    -0.435 OA
ATOM      3  O   UNL     1      30.048 -25.503 -14.091  0.00  0.00    -0.273 OA
ATOM      4  N   UNL     1      31.776 -24.110 -14.784  0.00  0.00    -0.182 N 
ATOM      5  N   UNL     1      32.277 -23.462 -15.878  0.00  0.00    -0.176 NA
ATOM      6  C   UNL     1      32.076 -23.610 -13.429  0.00  0.00    +0.104 C 
ATOM      7  C   UNL     1      33.500 -23.063 -13.252  0.00  0.00    +0.048 C 
ATOM      8  C   UNL     1      34.513 -24.009 -13.836  0.00  0.00    -0.016 C 
ATOM      9  C   UNL     1      34.535 -24.227 -15.232  0.00  0.00    +0.018 C 
ATOM     10  C   UNL     1      33.560 -23.500 -16.093  0.00  0.00    +0.099 C 
ATOM     11  C   UNL     1      31.056 -22.544 -13.018  0.00  0.00    +0.024 C 
ATOM     12  C   UNL     1      35.428 -24.680 -13.015  0.00  0.00    +0.036 C 
ATOM     13  C   UNL     1      35.448 -25.115 -15.816  0.00  0.00    +0.041 C 
ATOM     14  C   UNL     1      36.323 -25.545 -13.614  0.00  0.00    +0.176 C 
ATOM     15  C   UNL     1      36.331 -25.757 -14.974  0.00  0.00    +0.176 C 
ATOM     16  C   UNL     1      30.755 -25.041 -14.989  0.00  0.00    +0.245 C 
ATOM     17  C   UNL     1      37.881 -26.974 -14.079  0.00  0.00    +0.429 C 
ATOM     18  C   UNL     1      30.553 -25.488 -16.419  0.00  0.00    +0.097 C 
ENDROOT
BRANCH  10  19
ATOM     19  C   UNL     1      34.078 -22.779 -17.294  0.00  0.00    +0.019 C 
ATOM     20  C   UNL     1      33.212 -22.467 -18.336  0.00  0.00    +0.003 C 
ATOM     21  C   UNL     1      35.420 -22.424 -17.357  0.00  0.00    +0.003 C 
ATOM     22  C   UNL     1      33.697 -21.792 -19.457  0.00  0.00    +0.014 C 
ATOM     23  C   UNL     1      35.904 -21.749 -18.477  0.00  0.00    +0.014 C 
ATOM     24  C   UNL     1      35.043 -21.434 -19.527  0.00  0.00    +0.042 C 
BRANCH  24  25
ATOM     25  N   UNL     1      35.532 -20.750 -20.660  0.00  0.00    -0.357 N 
ATOM     26  H   UNL     1      34.958 -20.636 -21.452  0.00  0.00    +0.142 HD
ATOM     27  H   UNL     1      36.447 -20.386 -20.658  0.00  0.00    +0.142 HD
ENDBRANCH  24  25
ENDBRANCH  10  19
TORSDOF 2
ENDMDL
