MODEL 1
REMARK VINA RESULT:      -9.3      0.000      0.000
REMARK  Name = 4583
REMARK  3 active torsions:
REMARK  status: ('A' for Active; 'I' for Inactive)
REMARK    1  A    between atoms: C_6  and  N_17
REMARK    2  A    between atoms: C_16  and  C_26
REMARK    3  A    between atoms: C_26  and  O_27
REMARK                            x       y       z     vdW  Elec       q    Type
REMARK                         _______ _______ _______ _____ _____    ______ ____
ROOT
ATOM      1  F   UNL     1      34.948 -19.916 -24.147  0.00  0.00    -0.203 F 
ATOM      2  O   UNL     1      33.652 -16.860 -20.776  0.00  0.00    -0.471 OA
ATOM      3  O   UNL     1      34.118 -15.604 -26.645  0.00  0.00    -0.286 OA
ATOM      4  N   UNL     1      33.444 -14.755 -22.720  0.00  0.00    -0.281 N 
ATOM      5  C   UNL     1      33.317 -14.482 -21.286  0.00  0.00    +0.121 C 
ATOM      6  C   UNL     1      34.310 -18.374 -22.460  0.00  0.00    +0.111 C 
ATOM      7  C   UNL     1      33.796 -16.074 -23.072  0.00  0.00    +0.091 C 
ATOM      8  C   UNL     1      33.907 -17.085 -22.106  0.00  0.00    +0.168 C 
ATOM      9  C   UNL     1      32.793 -15.732 -20.579  0.00  0.00    +0.225 C 
ATOM     10  C   UNL     1      34.051 -16.403 -24.417  0.00  0.00    +0.058 C 
ATOM     11  C   UNL     1      34.571 -18.679 -23.795  0.00  0.00    +0.156 C 
ATOM     12  C   UNL     1      33.334 -13.791 -23.702  0.00  0.00    +0.075 C 
ATOM     13  C   UNL     1      34.436 -17.699 -24.778  0.00  0.00    +0.036 C 
ATOM     14  C   UNL     1      34.662 -14.020 -20.719  0.00  0.00    +0.026 C 
ATOM     15  C   UNL     1      33.919 -15.355 -25.462  0.00  0.00    +0.204 C 
ATOM     16  C   UNL     1      33.535 -13.989 -25.012  0.00  0.00    +0.129 C 
ENDROOT
BRANCH   6  17
ATOM     17  N   UNL     1      34.445 -19.374 -21.491  0.00  0.00    -0.308 N 
ATOM     18  N   UNL     1      34.755 -21.227 -19.339  0.00  0.00    +0.388 N 
ATOM     19  C   UNL     1      33.282 -19.774 -20.692  0.00  0.00    +0.068 C 
ATOM     20  C   UNL     1      35.749 -19.530 -20.835  0.00  0.00    +0.068 C 
ATOM     21  C   UNL     1      33.495 -21.165 -20.090  0.00  0.00    -0.056 C 
ATOM     22  C   UNL     1      35.882 -20.929 -20.230  0.00  0.00    -0.056 C 
ATOM     23  C   UNL     1      34.921 -22.544 -18.724  0.00  0.00    -0.101 C 
ATOM     24  H   UNL     1      34.729 -20.530 -18.595  0.00  0.00    -0.080 HD
ENDBRANCH   6  17
BRANCH  16  26
ATOM     25  O   UNL     1      33.735 -11.715 -25.673  0.00  0.00    -0.245 OA
ATOM     26  C   UNL     1      33.375 -12.853 -25.918  0.00  0.00    +0.342 C 
BRANCH  26  27
ATOM     27  O   UNL     1      32.771 -13.261 -27.056  0.00  0.00    -0.477 OA
ATOM     28  H   UNL     1      32.347 -12.637 -27.611  0.00  0.00    +0.295 HD
ENDBRANCH  26  27
ENDBRANCH  16  26
TORSDOF 3
ENDMDL
MODEL 2
REMARK VINA RESULT:      -8.8      9.000     11.133
REMARK  Name = 4583
REMARK  3 active torsions:
REMARK  status: ('A' for Active; 'I' for Inactive)
REMARK    1  A    between atoms: C_6  and  N_17
REMARK    2  A    between atoms: C_16  and  C_26
REMARK    3  A    between atoms: C_26  and  O_27
REMARK                            x       y       z     vdW  Elec       q    Type
REMARK                         _______ _______ _______ _____ _____    ______ ____
ROOT
ATOM      1  F   UNL     1      34.573 -25.107 -12.232  0.00  0.00    -0.203 F 
ATOM      2  O   UNL     1      35.447 -23.503 -16.597  0.00  0.00    -0.471 OA
ATOM      3  O   UNL     1      30.064 -23.554 -13.901  0.00  0.00    -0.286 OA
ATOM      4  N   UNL     1      32.660 -22.912 -16.972  0.00  0.00    -0.281 N 
ATOM      5  C   UNL     1      33.617 -22.803 -18.076  0.00  0.00    +0.121 C 
ATOM      6  C   UNL     1      35.001 -24.313 -14.427  0.00  0.00    +0.111 C 
ATOM      7  C   UNL     1      33.162 -23.441 -15.766  0.00  0.00    +0.091 C 
ATOM      8  C   UNL     1      34.524 -23.738 -15.606  0.00  0.00    +0.168 C 
ATOM      9  C   UNL     1      35.005 -22.496 -17.512  0.00  0.00    +0.225 C 
ATOM     10  C   UNL     1      32.294 -23.691 -14.686  0.00  0.00    +0.058 C 
ATOM     11  C   UNL     1      34.124 -24.564 -13.373  0.00  0.00    +0.156 C 
ATOM     12  C   UNL     1      31.315 -22.624 -17.085  0.00  0.00    +0.075 C 
ATOM     13  C   UNL     1      32.771 -24.249 -13.495  0.00  0.00    +0.036 C 
ATOM     14  C   UNL     1      33.605 -24.085 -18.912  0.00  0.00    +0.026 C 
ATOM     15  C   UNL     1      30.850 -23.365 -14.822  0.00  0.00    +0.204 C 
ATOM     16  C   UNL     1      30.399 -22.802 -16.123  0.00  0.00    +0.129 C 
ENDROOT
BRANCH   6  17
ATOM     17  N   UNL     1      36.356 -24.631 -14.281  0.00  0.00    -0.308 N 
ATOM     18  N   UNL     1      39.068 -25.345 -13.737  0.00  0.00    +0.388 N 
ATOM     19  C   UNL     1      36.802 -26.014 -14.467  0.00  0.00    +0.068 C 
ATOM     20  C   UNL     1      37.157 -23.824 -13.352  0.00  0.00    +0.068 C 
ATOM     21  C   UNL     1      38.303 -26.059 -14.766  0.00  0.00    -0.056 C 
ATOM     22  C   UNL     1      38.646 -23.940 -13.688  0.00  0.00    -0.056 C 
ATOM     23  C   UNL     1      40.502 -25.440 -14.004  0.00  0.00    -0.101 C 
ATOM     24  H   UNL     1      38.884 -25.776 -12.831  0.00  0.00    -0.080 HD
ENDBRANCH   6  17
BRANCH  16  26
ATOM     25  O   UNL     1      28.456 -22.624 -17.480  0.00  0.00    -0.245 OA
ATOM     26  C   UNL     1      29.011 -22.441 -16.411  0.00  0.00    +0.342 C 
BRANCH  26  27
ATOM     27  O   UNL     1      28.451 -21.880 -15.318  0.00  0.00    -0.477 OA
ATOM     28  H   UNL     1      27.808 -21.206 -15.415  0.00  0.00    +0.295 HD
ENDBRANCH  26  27
ENDBRANCH  16  26
TORSDOF 3
ENDMDL
MODEL 3
REMARK VINA RESULT:      -7.4      9.221     11.091
REMARK  Name = 4583
REMARK  3 active torsions:
REMARK  status: ('A' for Active; 'I' for Inactive)
REMARK    1  A    between atoms: C_6  and  N_17
REMARK    2  A    between atoms: C_16  and  C_26
REMARK    3  A    between atoms: C_26  and  O_27
REMARK                            x       y       z     vdW  Elec       q    Type
REMARK                         _______ _______ _______ _____ _____    ______ ____
ROOT
ATOM      1  F   UNL     1      35.119 -22.958 -17.167  0.00  0.00    -0.203 F 
ATOM      2  O   UNL     1      32.976 -24.758 -13.353  0.00  0.00    -0.471 OA
ATOM      3  O   UNL     1      30.206 -22.137 -18.010  0.00  0.00    -0.286 OA
ATOM      4  N   UNL     1      30.416 -23.931 -14.362  0.00  0.00    -0.281 N 
ATOM      5  C   UNL     1      30.560 -24.482 -13.012  0.00  0.00    +0.121 C 
ATOM      6  C   UNL     1      34.037 -23.847 -15.251  0.00  0.00    +0.111 C 
ATOM      7  C   UNL     1      31.612 -23.717 -15.076  0.00  0.00    +0.091 C 
ATOM      8  C   UNL     1      32.855 -24.114 -14.560  0.00  0.00    +0.168 C 
ATOM      9  C   UNL     1      31.765 -25.423 -12.977  0.00  0.00    +0.225 C 
ATOM     10  C   UNL     1      31.582 -23.086 -16.334  0.00  0.00    +0.058 C 
ATOM     11  C   UNL     1      33.990 -23.211 -16.490  0.00  0.00    +0.156 C 
ATOM     12  C   UNL     1      29.212 -23.535 -14.909  0.00  0.00    +0.075 C 
ATOM     13  C   UNL     1      32.764 -22.834 -17.039  0.00  0.00    +0.036 C 
ATOM     14  C   UNL     1      30.685 -23.348 -11.991  0.00  0.00    +0.026 C 
ATOM     15  C   UNL     1      30.276 -22.675 -16.912  0.00  0.00    +0.204 C 
ATOM     16  C   UNL     1      29.058 -22.944 -16.101  0.00  0.00    +0.129 C 
ENDROOT
BRANCH   6  17
ATOM     17  N   UNL     1      35.278 -24.222 -14.722  0.00  0.00    -0.308 N 
ATOM     18  N   UNL     1      37.907 -24.953 -13.879  0.00  0.00    +0.388 N 
ATOM     19  C   UNL     1      36.215 -23.192 -14.266  0.00  0.00    +0.068 C 
ATOM     20  C   UNL     1      35.888 -25.466 -15.209  0.00  0.00    +0.068 C 
ATOM     21  C   UNL     1      37.236 -23.787 -13.292  0.00  0.00    -0.056 C 
ATOM     22  C   UNL     1      36.918 -25.987 -14.204  0.00  0.00    -0.056 C 
ATOM     23  C   UNL     1      38.917 -25.480 -12.962  0.00  0.00    -0.101 C 
ATOM     24  H   UNL     1      38.377 -24.665 -14.738  0.00  0.00    -0.080 HD
ENDBRANCH   6  17
BRANCH  16  26
ATOM     25  O   UNL     1      26.943 -21.878 -15.900  0.00  0.00    -0.245 OA
ATOM     26  C   UNL     1      27.705 -22.590 -16.531  0.00  0.00    +0.342 C 
BRANCH  26  27
ATOM     27  O   UNL     1      27.440 -23.170 -17.721  0.00  0.00    -0.477 OA
ATOM     28  H   UNL     1      27.230 -22.639 -18.464  0.00  0.00    +0.295 HD
ENDBRANCH  26  27
ENDBRANCH  16  26
TORSDOF 3
ENDMDL
MODEL 4
REMARK VINA RESULT:      -7.1      1.862      3.288
REMARK  Name = 4583
REMARK  3 active torsions:
REMARK  status: ('A' for Active; 'I' for Inactive)
REMARK    1  A    between atoms: C_6  and  N_17
REMARK    2  A    between atoms: C_16  and  C_26
REMARK    3  A    between atoms: C_26  and  O_27
REMARK                            x       y       z     vdW  Elec       q    Type
REMARK                         _______ _______ _______ _____ _____    ______ ____
ROOT
ATOM      1  F   UNL     1      34.893 -16.204 -19.744  0.00  0.00    -0.203 F 
ATOM      2  O   UNL     1      34.762 -18.812 -23.690  0.00  0.00    -0.471 OA
ATOM      3  O   UNL     1      33.772 -12.882 -23.382  0.00  0.00    -0.286 OA
ATOM      4  N   UNL     1      34.034 -16.500 -25.232  0.00  0.00    -0.281 N 
ATOM      5  C   UNL     1      34.037 -17.840 -25.824  0.00  0.00    +0.121 C 
ATOM      6  C   UNL     1      34.812 -17.508 -21.726  0.00  0.00    +0.111 C 
ATOM      7  C   UNL     1      34.283 -16.433 -23.846  0.00  0.00    +0.091 C 
ATOM      8  C   UNL     1      34.622 -17.576 -23.107  0.00  0.00    +0.168 C 
ATOM      9  C   UNL     1      35.052 -18.715 -25.088  0.00  0.00    +0.225 C 
ATOM     10  C   UNL     1      34.187 -15.203 -23.168  0.00  0.00    +0.058 C 
ATOM     11  C   UNL     1      34.702 -16.283 -21.069  0.00  0.00    +0.156 C 
ATOM     12  C   UNL     1      33.712 -15.350 -25.925  0.00  0.00    +0.075 C 
ATOM     13  C   UNL     1      34.397 -15.127 -21.786  0.00  0.00    +0.036 C 
ATOM     14  C   UNL     1      32.627 -18.435 -25.785  0.00  0.00    +0.026 C 
ATOM     15  C   UNL     1      33.850 -13.974 -23.932  0.00  0.00    +0.204 C 
ATOM     16  C   UNL     1      33.611 -14.125 -25.393  0.00  0.00    +0.129 C 
ENDROOT
BRANCH   6  17
ATOM     17  N   UNL     1      35.127 -18.654 -20.987  0.00  0.00    -0.308 N 
ATOM     18  N   UNL     1      35.762 -21.126 -19.703  0.00  0.00    +0.388 N 
ATOM     19  C   UNL     1      36.523 -19.084 -20.872  0.00  0.00    +0.068 C 
ATOM     20  C   UNL     1      34.124 -19.725 -20.915  0.00  0.00    +0.068 C 
ATOM     21  C   UNL     1      36.705 -20.002 -19.660  0.00  0.00    -0.056 C 
ATOM     22  C   UNL     1      34.383 -20.621 -19.701  0.00  0.00    -0.056 C 
ATOM     23  C   UNL     1      35.980 -22.024 -18.570  0.00  0.00    -0.101 C 
ATOM     24  H   UNL     1      35.917 -21.654 -20.562  0.00  0.00    -0.080 HD
ENDBRANCH   6  17
BRANCH  16  26
ATOM     25  O   UNL     1      32.542 -13.104 -27.254  0.00  0.00    -0.245 OA
ATOM     26  C   UNL     1      33.261 -13.012 -26.275  0.00  0.00    +0.342 C 
BRANCH  26  27
ATOM     27  O   UNL     1      33.856 -11.881 -25.836  0.00  0.00    -0.477 OA
ATOM     28  H   UNL     1      34.468 -11.918 -25.129  0.00  0.00    +0.295 HD
ENDBRANCH  26  27
ENDBRANCH  16  26
TORSDOF 3
ENDMDL
MODEL 5
REMARK VINA RESULT:      -6.7      5.565      8.720
REMARK  Name = 4583
REMARK  3 active torsions:
REMARK  status: ('A' for Active; 'I' for Inactive)
REMARK    1  A    between atoms: C_6  and  N_17
REMARK    2  A    between atoms: C_16  and  C_26
REMARK    3  A    between atoms: C_26  and  O_27
REMARK                            x       y       z     vdW  Elec       q    Type
REMARK                         _______ _______ _______ _____ _____    ______ ____
ROOT
ATOM      1  F   UNL     1      38.564 -22.324 -16.091  0.00  0.00    -0.203 F 
ATOM      2  O   UNL     1      34.182 -24.103 -15.954  0.00  0.00    -0.471 OA
ATOM      3  O   UNL     1      36.213 -20.110 -19.976  0.00  0.00    -0.286 OA
ATOM      4  N   UNL     1      33.418 -22.475 -18.195  0.00  0.00    -0.281 N 
ATOM      5  C   UNL     1      32.429 -23.261 -17.452  0.00  0.00    +0.121 C 
ATOM      6  C   UNL     1      36.361 -23.201 -16.021  0.00  0.00    +0.111 C 
ATOM      7  C   UNL     1      34.726 -22.468 -17.670  0.00  0.00    +0.091 C 
ATOM      8  C   UNL     1      35.077 -23.259 -16.566  0.00  0.00    +0.168 C 
ATOM      9  C   UNL     1      33.115 -24.478 -16.830  0.00  0.00    +0.225 C 
ATOM     10  C   UNL     1      35.716 -21.652 -18.249  0.00  0.00    +0.058 C 
ATOM     11  C   UNL     1      37.325 -22.379 -16.600  0.00  0.00    +0.156 C 
ATOM     12  C   UNL     1      33.115 -21.691 -19.290  0.00  0.00    +0.075 C 
ATOM     13  C   UNL     1      37.010 -21.607 -17.718  0.00  0.00    +0.036 C 
ATOM     14  C   UNL     1      31.745 -22.384 -16.399  0.00  0.00    +0.026 C 
ATOM     15  C   UNL     1      35.376 -20.822 -19.434  0.00  0.00    +0.204 C 
ATOM     16  C   UNL     1      33.976 -20.891 -19.934  0.00  0.00    +0.129 C 
ENDROOT
BRANCH   6  17
ATOM     17  N   UNL     1      36.700 -23.972 -14.903  0.00  0.00    -0.308 N 
ATOM     18  N   UNL     1      37.640 -25.479 -12.666  0.00  0.00    +0.388 N 
ATOM     19  C   UNL     1      36.843 -23.330 -13.593  0.00  0.00    +0.068 C 
ATOM     20  C   UNL     1      37.520 -25.172 -15.115  0.00  0.00    +0.068 C 
ATOM     21  C   UNL     1      36.708 -24.362 -12.471  0.00  0.00    -0.056 C 
ATOM     22  C   UNL     1      37.362 -26.144 -13.944  0.00  0.00    -0.056 C 
ATOM     23  C   UNL     1      37.540 -26.431 -11.560  0.00  0.00    -0.101 C 
ATOM     24  H   UNL     1      38.593 -25.114 -12.685  0.00  0.00    -0.080 HD
ENDBRANCH   6  17
BRANCH  16  26
ATOM     25  O   UNL     1      32.340 -19.742 -21.219  0.00  0.00    -0.245 OA
ATOM     26  C   UNL     1      33.488 -20.127 -21.081  0.00  0.00    +0.342 C 
BRANCH  26  27
ATOM     27  O   UNL     1      34.499 -19.921 -21.953  0.00  0.00    -0.477 OA
ATOM     28  H   UNL     1      34.730 -20.587 -22.569  0.00  0.00    +0.295 HD
ENDBRANCH  26  27
ENDBRANCH  16  26
TORSDOF 3
ENDMDL
MODEL 6
REMARK VINA RESULT:      -6.5      5.196      9.374
REMARK  Name = 4583
REMARK  3 active torsions:
REMARK  status: ('A' for Active; 'I' for Inactive)
REMARK    1  A    between atoms: C_6  and  N_17
REMARK    2  A    between atoms: C_16  and  C_26
REMARK    3  A    between atoms: C_26  and  O_27
REMARK                            x       y       z     vdW  Elec       q    Type
REMARK                         _______ _______ _______ _____ _____    ______ ____
ROOT
ATOM      1  F   UNL     1      30.823 -10.061 -20.021  0.00  0.00    -0.203 F 
ATOM      2  O   UNL     1      32.970  -9.452 -24.193  0.00  0.00    -0.471 OA
ATOM      3  O   UNL     1      32.429 -14.686 -21.269  0.00  0.00    -0.286 OA
ATOM      4  N   UNL     1      33.678 -12.236 -24.271  0.00  0.00    -0.281 N 
ATOM      5  C   UNL     1      34.191 -11.291 -25.267  0.00  0.00    +0.121 C 
ATOM      6  C   UNL     1      31.914  -9.762 -22.108  0.00  0.00    +0.111 C 
ATOM      7  C   UNL     1      32.930 -11.678 -23.215  0.00  0.00    +0.091 C 
ATOM      8  C   UNL     1      32.607 -10.313 -23.186  0.00  0.00    +0.168 C 
ATOM      9  C   UNL     1      33.200 -10.139 -25.427  0.00  0.00    +0.225 C 
ATOM     10  C   UNL     1      32.493 -12.490 -22.151  0.00  0.00    +0.058 C 
ATOM     11  C   UNL     1      31.499 -10.579 -21.057  0.00  0.00    +0.156 C 
ATOM     12  C   UNL     1      33.966 -13.586 -24.267  0.00  0.00    +0.075 C 
ATOM     13  C   UNL     1      31.780 -11.944 -21.077  0.00  0.00    +0.036 C 
ATOM     14  C   UNL     1      35.583 -10.802 -24.858  0.00  0.00    +0.026 C 
ATOM     15  C   UNL     1      32.803 -13.943 -22.168  0.00  0.00    +0.204 C 
ATOM     16  C   UNL     1      33.589 -14.458 -23.322  0.00  0.00    +0.129 C 
ENDROOT
BRANCH   6  17
ATOM     17  N   UNL     1      31.615  -8.395 -22.070  0.00  0.00    -0.308 N 
ATOM     18  N   UNL     1      31.235  -5.564 -22.105  0.00  0.00    +0.388 N 
ATOM     19  C   UNL     1      31.027  -7.747 -23.247  0.00  0.00    +0.068 C 
ATOM     20  C   UNL     1      32.438  -7.531 -21.214  0.00  0.00    +0.068 C 
ATOM     21  C   UNL     1      30.328  -6.445 -22.850  0.00  0.00    -0.056 C 
ATOM     22  C   UNL     1      31.692  -6.237 -20.883  0.00  0.00    -0.056 C 
ATOM     23  C   UNL     1      30.573  -4.301 -21.779  0.00  0.00    -0.101 C 
ATOM     24  H   UNL     1      32.046  -5.356 -22.689  0.00  0.00    -0.080 HD
ENDBRANCH   6  17
BRANCH  16  26
ATOM     25  O   UNL     1      33.992 -16.463 -24.533  0.00  0.00    -0.245 OA
ATOM     26  C   UNL     1      33.980 -15.859 -23.475  0.00  0.00    +0.342 C 
BRANCH  26  27
ATOM     27  O   UNL     1      34.319 -16.370 -22.272  0.00  0.00    -0.477 OA
ATOM     28  H   UNL     1      33.658 -16.526 -21.626  0.00  0.00    +0.295 HD
ENDBRANCH  26  27
ENDBRANCH  16  26
TORSDOF 3
ENDMDL
MODEL 7
REMARK VINA RESULT:      -6.3      2.918      4.413
REMARK  Name = 4583
REMARK  3 active torsions:
REMARK  status: ('A' for Active; 'I' for Inactive)
REMARK    1  A    between atoms: C_6  and  N_17
REMARK    2  A    between atoms: C_16  and  C_26
REMARK    3  A    between atoms: C_26  and  O_27
REMARK                            x       y       z     vdW  Elec       q    Type
REMARK                         _______ _______ _______ _____ _____    ______ ____
ROOT
ATOM      1  F   UNL     1      32.354 -15.277 -19.148  0.00  0.00    -0.203 F 
ATOM      2  O   UNL     1      34.081 -15.364 -23.552  0.00  0.00    -0.471 OA
ATOM      3  O   UNL     1      31.520 -10.610 -20.891  0.00  0.00    -0.286 OA
ATOM      4  N   UNL     1      33.257 -12.643 -23.962  0.00  0.00    -0.281 N 
ATOM      5  C   UNL     1      33.786 -13.452 -25.063  0.00  0.00    +0.121 C 
ATOM      6  C   UNL     1      33.206 -15.317 -21.362  0.00  0.00    +0.111 C 
ATOM      7  C   UNL     1      33.060 -13.313 -22.738  0.00  0.00    +0.091 C 
ATOM      8  C   UNL     1      33.456 -14.647 -22.561  0.00  0.00    +0.168 C 
ATOM      9  C   UNL     1      34.733 -14.513 -24.499  0.00  0.00    +0.225 C 
ATOM     10  C   UNL     1      32.450 -12.648 -21.657  0.00  0.00    +0.058 C 
ATOM     11  C   UNL     1      32.590 -14.647 -20.307  0.00  0.00    +0.156 C 
ATOM     12  C   UNL     1      32.863 -11.326 -24.093  0.00  0.00    +0.075 C 
ATOM     13  C   UNL     1      32.216 -13.311 -20.447  0.00  0.00    +0.036 C 
ATOM     14  C   UNL     1      32.636 -14.072 -25.861  0.00  0.00    +0.026 C 
ATOM     15  C   UNL     1      32.042 -11.227 -21.812  0.00  0.00    +0.204 C 
ATOM     16  C   UNL     1      32.291 -10.588 -23.132  0.00  0.00    +0.129 C 
ENDROOT
BRANCH   6  17
ATOM     17  N   UNL     1      33.579 -16.656 -21.197  0.00  0.00    -0.308 N 
ATOM     18  N   UNL     1      34.378 -19.335 -20.611  0.00  0.00    +0.388 N 
ATOM     19  C   UNL     1      32.585 -17.638 -20.755  0.00  0.00    +0.068 C 
ATOM     20  C   UNL     1      34.969 -16.944 -20.820  0.00  0.00    +0.068 C 
ATOM     21  C   UNL     1      33.031 -19.056 -21.122  0.00  0.00    -0.056 C 
ATOM     22  C   UNL     1      35.337 -18.383 -21.186  0.00  0.00    -0.056 C 
ATOM     23  C   UNL     1      34.771 -20.709 -20.920  0.00  0.00    -0.101 C 
ATOM     24  H   UNL     1      34.375 -19.226 -19.596  0.00  0.00    -0.080 HD
ENDBRANCH   6  17
BRANCH  16  26
ATOM     25  O   UNL     1      32.709  -8.373 -23.887  0.00  0.00    -0.245 OA
ATOM     26  C   UNL     1      31.936  -9.203 -23.440  0.00  0.00    +0.342 C 
BRANCH  26  27
ATOM     27  O   UNL     1      30.634  -8.992 -23.151  0.00  0.00    -0.477 OA
ATOM     28  H   UNL     1      30.158  -8.320 -23.598  0.00  0.00    +0.295 HD
ENDBRANCH  26  27
ENDBRANCH  16  26
TORSDOF 3
ENDMDL
