MODEL 1
REMARK VINA RESULT:     -11.7      0.000      0.000
REMARK  Name = 24178121
REMARK  2 active torsions:
REMARK  status: ('A' for Active; 'I' for Inactive)
REMARK    1  A    between atoms: N_2  and  C_15
REMARK    2  A    between atoms: C_4  and  O_21
REMARK                            x       y       z     vdW  Elec       q    Type
REMARK                         _______ _______ _______ _____ _____    ______ ____
ROOT
ATOM      1  O   UNL     1      33.433 -15.202 -25.224  0.00  0.00    -0.288 OA
ATOM      2  N   UNL     1      34.591 -18.665 -22.430  0.00  0.00    -0.264 N 
ATOM      3  N   UNL     1      33.638 -16.660 -21.419  0.00  0.00    -0.392 NA
ATOM      4  C   UNL     1      34.575 -16.666 -23.689  0.00  0.00    +0.204 C 
ATOM      5  C   UNL     1      34.580 -17.860 -24.637  0.00  0.00    +0.065 C 
ATOM      6  C   UNL     1      35.094 -19.013 -23.765  0.00  0.00    +0.101 C 
ATOM      7  C   UNL     1      34.207 -17.328 -22.371  0.00  0.00    +0.195 C 
ATOM      8  C   UNL     1      33.677 -15.521 -24.069  0.00  0.00    +0.207 C 
ATOM      9  C   UNL     1      33.168 -14.746 -22.921  0.00  0.00    +0.063 C 
ATOM     10  C   UNL     1      33.226 -15.332 -21.646  0.00  0.00    +0.117 C 
ATOM     11  C   UNL     1      32.672 -13.453 -23.108  0.00  0.00    +0.005 C 
ATOM     12  C   UNL     1      32.779 -14.581 -20.553  0.00  0.00    +0.085 C 
ATOM     13  C   UNL     1      32.234 -12.723 -22.005  0.00  0.00    -0.004 C 
ATOM     14  C   UNL     1      32.290 -13.284 -20.729  0.00  0.00    -0.019 C 
ENDROOT
BRANCH   2  15
ATOM     15  C   UNL     1      34.560 -19.579 -21.406  0.00  0.00    +0.053 C 
ATOM     16  C   UNL     1      35.752 -20.059 -20.862  0.00  0.00    +0.015 C 
ATOM     17  C   UNL     1      33.337 -20.029 -20.909  0.00  0.00    +0.015 C 
ATOM     18  C   UNL     1      35.720 -20.989 -19.823  0.00  0.00    +0.001 C 
ATOM     19  C   UNL     1      33.305 -20.957 -19.870  0.00  0.00    +0.001 C 
ATOM     20  C   UNL     1      34.496 -21.438 -19.326  0.00  0.00    +0.000 C 
ENDBRANCH   2  15
BRANCH   4  21
ATOM     21  O   UNL     1      35.868 -16.098 -23.550  0.00  0.00    -0.372 OA
ATOM     22  H   UNL     1      36.374 -16.603 -22.893  0.00  0.00    +0.211 HD
ENDBRANCH   4  21
TORSDOF 2
ENDMDL
MODEL 2
REMARK VINA RESULT:      -9.6      3.072      7.285
REMARK  Name = 24178121
REMARK  2 active torsions:
REMARK  status: ('A' for Active; 'I' for Inactive)
REMARK    1  A    between atoms: N_2  and  C_15
REMARK    2  A    between atoms: C_4  and  O_21
REMARK                            x       y       z     vdW  Elec       q    Type
REMARK                         _______ _______ _______ _____ _____    ______ ____
ROOT
ATOM      1  O   UNL     1      34.497 -16.333 -25.873  0.00  0.00    -0.288 OA
ATOM      2  N   UNL     1      33.700 -11.917 -24.871  0.00  0.00    -0.264 N 
ATOM      3  N   UNL     1      34.143 -13.440 -23.018  0.00  0.00    -0.392 NA
ATOM      4  C   UNL     1      33.483 -14.240 -25.244  0.00  0.00    +0.204 C 
ATOM      5  C   UNL     1      33.807 -13.544 -26.561  0.00  0.00    +0.065 C 
ATOM      6  C   UNL     1      33.424 -12.081 -26.304  0.00  0.00    +0.101 C 
ATOM      7  C   UNL     1      33.819 -13.151 -24.237  0.00  0.00    +0.195 C 
ATOM      8  C   UNL     1      34.189 -15.543 -24.992  0.00  0.00    +0.207 C 
ATOM      9  C   UNL     1      34.412 -15.842 -23.564  0.00  0.00    +0.063 C 
ATOM     10  C   UNL     1      34.322 -14.785 -22.643  0.00  0.00    +0.117 C 
ATOM     11  C   UNL     1      34.677 -17.150 -23.151  0.00  0.00    +0.005 C 
ATOM     12  C   UNL     1      34.496 -15.077 -21.284  0.00  0.00    +0.085 C 
ATOM     13  C   UNL     1      34.844 -17.417 -21.794  0.00  0.00    -0.004 C 
ATOM     14  C   UNL     1      34.752 -16.384 -20.861  0.00  0.00    -0.019 C 
ENDROOT
BRANCH   2  15
ATOM     15  C   UNL     1      33.786 -10.677 -24.287  0.00  0.00    +0.053 C 
ATOM     16  C   UNL     1      32.800 -10.256 -23.394  0.00  0.00    +0.015 C 
ATOM     17  C   UNL     1      34.859  -9.838 -24.586  0.00  0.00    +0.015 C 
ATOM     18  C   UNL     1      32.887  -8.996 -22.802  0.00  0.00    +0.001 C 
ATOM     19  C   UNL     1      34.947  -8.579 -23.993  0.00  0.00    +0.001 C 
ATOM     20  C   UNL     1      33.960  -8.157 -23.101  0.00  0.00    +0.000 C 
ENDBRANCH   2  15
BRANCH   4  21
ATOM     21  O   UNL     1      32.100 -14.534 -25.130  0.00  0.00    -0.372 OA
ATOM     22  H   UNL     1      31.746 -14.115 -24.329  0.00  0.00    +0.211 HD
ENDBRANCH   4  21
TORSDOF 2
ENDMDL
MODEL 3
REMARK VINA RESULT:      -9.6      6.597      9.950
REMARK  Name = 24178121
REMARK  2 active torsions:
REMARK  status: ('A' for Active; 'I' for Inactive)
REMARK    1  A    between atoms: N_2  and  C_15
REMARK    2  A    between atoms: C_4  and  O_21
REMARK                            x       y       z     vdW  Elec       q    Type
REMARK                         _______ _______ _______ _____ _____    ______ ____
ROOT
ATOM      1  O   UNL     1      34.120 -24.150 -12.785  0.00  0.00    -0.288 OA
ATOM      2  N   UNL     1      35.457 -22.625 -16.912  0.00  0.00    -0.264 N 
ATOM      3  N   UNL     1      33.099 -23.175 -16.614  0.00  0.00    -0.392 NA
ATOM      4  C   UNL     1      34.839 -23.981 -15.079  0.00  0.00    +0.204 C 
ATOM      5  C   UNL     1      36.133 -23.245 -14.749  0.00  0.00    +0.065 C 
ATOM      6  C   UNL     1      36.678 -22.835 -16.124  0.00  0.00    +0.101 C 
ATOM      7  C   UNL     1      34.354 -23.209 -16.296  0.00  0.00    +0.195 C 
ATOM      8  C   UNL     1      33.827 -24.072 -13.970  0.00  0.00    +0.207 C 
ATOM      9  C   UNL     1      32.429 -24.145 -14.434  0.00  0.00    +0.063 C 
ATOM     10  C   UNL     1      32.144 -23.746 -15.750  0.00  0.00    +0.117 C 
ATOM     11  C   UNL     1      31.429 -24.627 -13.586  0.00  0.00    +0.005 C 
ATOM     12  C   UNL     1      30.823 -23.852 -16.202  0.00  0.00    +0.085 C 
ATOM     13  C   UNL     1      30.121 -24.726 -14.057  0.00  0.00    -0.004 C 
ATOM     14  C   UNL     1      29.818 -24.342 -15.363  0.00  0.00    -0.019 C 
ENDROOT
BRANCH   2  15
ATOM     15  C   UNL     1      35.475 -21.955 -18.110  0.00  0.00    +0.053 C 
ATOM     16  C   UNL     1      36.672 -21.430 -18.598  0.00  0.00    +0.015 C 
ATOM     17  C   UNL     1      34.296 -21.799 -18.840  0.00  0.00    +0.015 C 
ATOM     18  C   UNL     1      36.690 -20.748 -19.815  0.00  0.00    +0.001 C 
ATOM     19  C   UNL     1      34.314 -21.118 -20.057  0.00  0.00    +0.001 C 
ATOM     20  C   UNL     1      35.511 -20.592 -20.545  0.00  0.00    +0.000 C 
ENDBRANCH   2  15
BRANCH   4  21
ATOM     21  O   UNL     1      35.082 -25.321 -15.476  0.00  0.00    -0.372 OA
ATOM     22  H   UNL     1      34.975 -25.398 -16.437  0.00  0.00    +0.211 HD
ENDBRANCH   4  21
TORSDOF 2
ENDMDL
MODEL 4
REMARK VINA RESULT:      -9.3      5.477      8.411
REMARK  Name = 24178121
REMARK  2 active torsions:
REMARK  status: ('A' for Active; 'I' for Inactive)
REMARK    1  A    between atoms: N_2  and  C_15
REMARK    2  A    between atoms: C_4  and  O_21
REMARK                            x       y       z     vdW  Elec       q    Type
REMARK                         _______ _______ _______ _____ _____    ______ ____
ROOT
ATOM      1  O   UNL     1      32.120 -21.662 -18.704  0.00  0.00    -0.288 OA
ATOM      2  N   UNL     1      34.890 -23.755 -15.690  0.00  0.00    -0.264 N 
ATOM      3  N   UNL     1      35.928 -22.426 -17.452  0.00  0.00    -0.392 NA
ATOM      4  C   UNL     1      33.601 -23.202 -17.591  0.00  0.00    +0.204 C 
ATOM      5  C   UNL     1      32.676 -23.426 -16.401  0.00  0.00    +0.065 C 
ATOM      6  C   UNL     1      33.532 -24.244 -15.424  0.00  0.00    +0.101 C 
ATOM      7  C   UNL     1      34.952 -23.076 -16.903  0.00  0.00    +0.195 C 
ATOM      8  C   UNL     1      33.262 -22.042 -18.485  0.00  0.00    +0.207 C 
ATOM      9  C   UNL     1      34.427 -21.437 -19.159  0.00  0.00    +0.063 C 
ATOM     10  C   UNL     1      35.705 -21.705 -18.642  0.00  0.00    +0.117 C 
ATOM     11  C   UNL     1      34.251 -20.645 -20.296  0.00  0.00    +0.005 C 
ATOM     12  C   UNL     1      36.813 -21.162 -19.305  0.00  0.00    +0.085 C 
ATOM     13  C   UNL     1      35.368 -20.117 -20.941  0.00  0.00    -0.004 C 
ATOM     14  C   UNL     1      36.647 -20.377 -20.448  0.00  0.00    -0.019 C 
ENDROOT
BRANCH   2  15
ATOM     15  C   UNL     1      35.929 -23.997 -14.826  0.00  0.00    +0.053 C 
ATOM     16  C   UNL     1      36.797 -25.065 -15.059  0.00  0.00    +0.015 C 
ATOM     17  C   UNL     1      36.118 -23.177 -13.714  0.00  0.00    +0.015 C 
ATOM     18  C   UNL     1      37.852 -25.312 -14.181  0.00  0.00    +0.001 C 
ATOM     19  C   UNL     1      37.173 -23.423 -12.836  0.00  0.00    +0.001 C 
ATOM     20  C   UNL     1      38.040 -24.491 -13.069  0.00  0.00    +0.000 C 
ENDBRANCH   2  15
BRANCH   4  21
ATOM     21  O   UNL     1      33.646 -24.334 -18.444  0.00  0.00    -0.372 OA
ATOM     22  H   UNL     1      34.273 -24.983 -18.088  0.00  0.00    +0.211 HD
ENDBRANCH   4  21
TORSDOF 2
ENDMDL
MODEL 5
REMARK VINA RESULT:      -9.2      4.902      7.535
REMARK  Name = 24178121
REMARK  2 active torsions:
REMARK  status: ('A' for Active; 'I' for Inactive)
REMARK    1  A    between atoms: N_2  and  C_15
REMARK    2  A    between atoms: C_4  and  O_21
REMARK                            x       y       z     vdW  Elec       q    Type
REMARK                         _______ _______ _______ _____ _____    ______ ____
ROOT
ATOM      1  O   UNL     1      32.412 -20.800 -19.726  0.00  0.00    -0.288 OA
ATOM      2  N   UNL     1      34.646 -23.327 -16.601  0.00  0.00    -0.264 N 
ATOM      3  N   UNL     1      35.979 -21.950 -18.111  0.00  0.00    -0.392 NA
ATOM      4  C   UNL     1      33.640 -22.531 -18.585  0.00  0.00    +0.204 C 
ATOM      5  C   UNL     1      32.562 -22.774 -17.534  0.00  0.00    +0.065 C 
ATOM      6  C   UNL     1      33.235 -23.728 -16.538  0.00  0.00    +0.101 C 
ATOM      7  C   UNL     1      34.901 -22.563 -17.737  0.00  0.00    +0.195 C 
ATOM      8  C   UNL     1      33.491 -21.282 -19.410  0.00  0.00    +0.207 C 
ATOM      9  C   UNL     1      34.768 -20.720 -19.889  0.00  0.00    +0.063 C 
ATOM     10  C   UNL     1      35.952 -21.125 -19.252  0.00  0.00    +0.117 C 
ATOM     11  C   UNL     1      34.786 -19.831 -20.967  0.00  0.00    +0.005 C 
ATOM     12  C   UNL     1      37.166 -20.619 -19.733  0.00  0.00    +0.085 C 
ATOM     13  C   UNL     1      36.006 -19.342 -21.429  0.00  0.00    -0.004 C 
ATOM     14  C   UNL     1      37.195 -19.737 -20.816  0.00  0.00    -0.019 C 
ENDROOT
BRANCH   2  15
ATOM     15  C   UNL     1      35.553 -23.715 -15.646  0.00  0.00    +0.053 C 
ATOM     16  C   UNL     1      36.447 -22.785 -15.114  0.00  0.00    +0.015 C 
ATOM     17  C   UNL     1      35.582 -25.038 -15.208  0.00  0.00    +0.015 C 
ATOM     18  C   UNL     1      37.369 -23.179 -14.145  0.00  0.00    +0.001 C 
ATOM     19  C   UNL     1      36.503 -25.432 -14.238  0.00  0.00    +0.001 C 
ATOM     20  C   UNL     1      37.397 -24.503 -13.706  0.00  0.00    +0.000 C 
ENDBRANCH   2  15
BRANCH   4  21
ATOM     21  O   UNL     1      33.711 -23.594 -19.521  0.00  0.00    -0.372 OA
ATOM     22  H   UNL     1      34.640 -23.842 -19.658  0.00  0.00    +0.211 HD
ENDBRANCH   4  21
TORSDOF 2
ENDMDL
MODEL 6
REMARK VINA RESULT:      -8.8      5.399      7.675
REMARK  Name = 24178121
REMARK  2 active torsions:
REMARK  status: ('A' for Active; 'I' for Inactive)
REMARK    1  A    between atoms: N_2  and  C_15
REMARK    2  A    between atoms: C_4  and  O_21
REMARK                            x       y       z     vdW  Elec       q    Type
REMARK                         _______ _______ _______ _____ _____    ______ ____
ROOT
ATOM      1  O   UNL     1      32.130 -10.209 -18.934  0.00  0.00    -0.288 OA
ATOM      2  N   UNL     1      32.490 -12.467 -22.923  0.00  0.00    -0.264 N 
ATOM      3  N   UNL     1      32.434 -10.029 -22.999  0.00  0.00    -0.392 NA
ATOM      4  C   UNL     1      31.682 -11.299 -21.035  0.00  0.00    +0.204 C 
ATOM      5  C   UNL     1      32.235 -12.649 -20.595  0.00  0.00    +0.065 C 
ATOM      6  C   UNL     1      32.242 -13.477 -21.887  0.00  0.00    +0.101 C 
ATOM      7  C   UNL     1      32.251 -11.183 -22.441  0.00  0.00    +0.195 C 
ATOM      8  C   UNL     1      32.005 -10.129 -20.148  0.00  0.00    +0.207 C 
ATOM      9  C   UNL     1      32.080  -8.837 -20.856  0.00  0.00    +0.063 C 
ATOM     10  C   UNL     1      32.234  -8.852 -22.252  0.00  0.00    +0.117 C 
ATOM     11  C   UNL     1      31.970  -7.637 -20.148  0.00  0.00    +0.005 C 
ATOM     12  C   UNL     1      32.266  -7.626 -22.927  0.00  0.00    +0.085 C 
ATOM     13  C   UNL     1      32.002  -6.428 -20.840  0.00  0.00    -0.004 C 
ATOM     14  C   UNL     1      32.147  -6.422 -22.227  0.00  0.00    -0.019 C 
ENDROOT
BRANCH   2  15
ATOM     15  C   UNL     1      32.877 -12.812 -24.194  0.00  0.00    +0.053 C 
ATOM     16  C   UNL     1      32.638 -14.102 -24.670  0.00  0.00    +0.015 C 
ATOM     17  C   UNL     1      33.510 -11.875 -25.010  0.00  0.00    +0.015 C 
ATOM     18  C   UNL     1      33.032 -14.454 -25.961  0.00  0.00    +0.001 C 
ATOM     19  C   UNL     1      33.903 -12.226 -26.301  0.00  0.00    +0.001 C 
ATOM     20  C   UNL     1      33.665 -13.516 -26.777  0.00  0.00    +0.000 C 
ENDBRANCH   2  15
BRANCH   4  21
ATOM     21  O   UNL     1      30.267 -11.315 -21.133  0.00  0.00    -0.372 OA
ATOM     22  H   UNL     1      29.886 -10.796 -20.407  0.00  0.00    +0.211 HD
ENDBRANCH   4  21
TORSDOF 2
ENDMDL
MODEL 7
REMARK VINA RESULT:      -8.8      4.310      6.729
REMARK  Name = 24178121
REMARK  2 active torsions:
REMARK  status: ('A' for Active; 'I' for Inactive)
REMARK    1  A    between atoms: N_2  and  C_15
REMARK    2  A    between atoms: C_4  and  O_21
REMARK                            x       y       z     vdW  Elec       q    Type
REMARK                         _______ _______ _______ _____ _____    ______ ____
ROOT
ATOM      1  O   UNL     1      31.935  -9.857 -19.409  0.00  0.00    -0.288 OA
ATOM      2  N   UNL     1      32.543 -13.344 -22.344  0.00  0.00    -0.264 N 
ATOM      3  N   UNL     1      32.698 -11.076 -23.228  0.00  0.00    -0.392 NA
ATOM      4  C   UNL     1      31.632 -11.574 -21.072  0.00  0.00    +0.204 C 
ATOM      5  C   UNL     1      32.019 -12.718 -20.142  0.00  0.00    +0.065 C 
ATOM      6  C   UNL     1      32.100 -13.933 -21.075  0.00  0.00    +0.101 C 
ATOM      7  C   UNL     1      32.359 -11.964 -22.349  0.00  0.00    +0.195 C 
ATOM      8  C   UNL     1      31.952 -10.187 -20.587  0.00  0.00    +0.207 C 
ATOM      9  C   UNL     1      32.210  -9.215 -21.666  0.00  0.00    +0.063 C 
ATOM     10  C   UNL     1      32.515  -9.708 -22.945  0.00  0.00    +0.117 C 
ATOM     11  C   UNL     1      32.123  -7.843 -21.415  0.00  0.00    +0.005 C 
ATOM     12  C   UNL     1      32.723  -8.785 -23.977  0.00  0.00    +0.085 C 
ATOM     13  C   UNL     1      32.331  -6.943 -22.458  0.00  0.00    -0.004 C 
ATOM     14  C   UNL     1      32.628  -7.411 -23.737  0.00  0.00    -0.019 C 
ENDROOT
BRANCH   2  15
ATOM     15  C   UNL     1      33.038 -14.115 -23.367  0.00  0.00    +0.053 C 
ATOM     16  C   UNL     1      32.651 -13.860 -24.683  0.00  0.00    +0.015 C 
ATOM     17  C   UNL     1      33.927 -15.153 -23.092  0.00  0.00    +0.015 C 
ATOM     18  C   UNL     1      33.152 -14.643 -25.723  0.00  0.00    +0.001 C 
ATOM     19  C   UNL     1      34.429 -15.936 -24.130  0.00  0.00    +0.001 C 
ATOM     20  C   UNL     1      34.042 -15.682 -25.446  0.00  0.00    +0.000 C 
ENDBRANCH   2  15
BRANCH   4  21
ATOM     21  O   UNL     1      30.240 -11.565 -21.344  0.00  0.00    -0.372 OA
ATOM     22  H   UNL     1      30.052 -10.923 -22.048  0.00  0.00    +0.211 HD
ENDBRANCH   4  21
TORSDOF 2
ENDMDL
MODEL 8
REMARK VINA RESULT:      -8.8      4.293      6.644
REMARK  Name = 24178121
REMARK  2 active torsions:
REMARK  status: ('A' for Active; 'I' for Inactive)
REMARK    1  A    between atoms: N_2  and  C_15
REMARK    2  A    between atoms: C_4  and  O_21
REMARK                            x       y       z     vdW  Elec       q    Type
REMARK                         _______ _______ _______ _____ _____    ______ ____
ROOT
ATOM      1  O   UNL     1      31.887  -9.851 -19.475  0.00  0.00    -0.288 OA
ATOM      2  N   UNL     1      32.571 -13.365 -22.360  0.00  0.00    -0.264 N 
ATOM      3  N   UNL     1      32.786 -11.105 -23.253  0.00  0.00    -0.392 NA
ATOM      4  C   UNL     1      31.630 -11.576 -21.137  0.00  0.00    +0.204 C 
ATOM      5  C   UNL     1      31.968 -12.717 -20.184  0.00  0.00    +0.065 C 
ATOM      6  C   UNL     1      32.072 -13.941 -21.105  0.00  0.00    +0.101 C 
ATOM      7  C   UNL     1      32.403 -11.984 -22.382  0.00  0.00    +0.195 C 
ATOM      8  C   UNL     1      31.946 -10.189 -20.649  0.00  0.00    +0.207 C 
ATOM      9  C   UNL     1      32.258  -9.228 -21.724  0.00  0.00    +0.063 C 
ATOM     10  C   UNL     1      32.607  -9.734 -22.986  0.00  0.00    +0.117 C 
ATOM     11  C   UNL     1      32.176  -7.853 -21.486  0.00  0.00    +0.005 C 
ATOM     12  C   UNL     1      32.866  -8.820 -24.016  0.00  0.00    +0.085 C 
ATOM     13  C   UNL     1      32.436  -6.963 -22.525  0.00  0.00    -0.004 C 
ATOM     14  C   UNL     1      32.777  -7.444 -23.789  0.00  0.00    -0.019 C 
ENDROOT
BRANCH   2  15
ATOM     15  C   UNL     1      33.096 -14.149 -23.357  0.00  0.00    +0.053 C 
ATOM     16  C   UNL     1      34.052 -15.119 -23.052  0.00  0.00    +0.015 C 
ATOM     17  C   UNL     1      32.676 -13.975 -24.676  0.00  0.00    +0.015 C 
ATOM     18  C   UNL     1      34.587 -15.914 -24.066  0.00  0.00    +0.001 C 
ATOM     19  C   UNL     1      33.209 -14.771 -25.689  0.00  0.00    +0.001 C 
ATOM     20  C   UNL     1      34.165 -15.740 -25.384  0.00  0.00    +0.000 C 
ENDBRANCH   2  15
BRANCH   4  21
ATOM     21  O   UNL     1      30.250 -11.554 -21.463  0.00  0.00    -0.372 OA
ATOM     22  H   UNL     1      30.015 -12.370 -21.932  0.00  0.00    +0.211 HD
ENDBRANCH   4  21
TORSDOF 2
ENDMDL
MODEL 9
REMARK VINA RESULT:      -8.8      8.708     11.046
REMARK  Name = 24178121
REMARK  2 active torsions:
REMARK  status: ('A' for Active; 'I' for Inactive)
REMARK    1  A    between atoms: N_2  and  C_15
REMARK    2  A    between atoms: C_4  and  O_21
REMARK                            x       y       z     vdW  Elec       q    Type
REMARK                         _______ _______ _______ _____ _____    ______ ____
ROOT
ATOM      1  O   UNL     1      37.364 -22.486 -15.271  0.00  0.00    -0.288 OA
ATOM      2  N   UNL     1      32.946 -23.581 -15.916  0.00  0.00    -0.264 N 
ATOM      3  N   UNL     1      33.868 -23.857 -13.675  0.00  0.00    -0.392 NA
ATOM      4  C   UNL     1      35.294 -23.653 -15.665  0.00  0.00    +0.204 C 
ATOM      5  C   UNL     1      34.944 -22.864 -16.922  0.00  0.00    +0.065 C 
ATOM      6  C   UNL     1      33.512 -23.311 -17.244  0.00  0.00    +0.101 C 
ATOM      7  C   UNL     1      33.948 -23.708 -14.959  0.00  0.00    +0.195 C 
ATOM      8  C   UNL     1      36.404 -23.094 -14.819  0.00  0.00    +0.207 C 
ATOM      9  C   UNL     1      36.289 -23.413 -13.383  0.00  0.00    +0.063 C 
ATOM     10  C   UNL     1      35.040 -23.833 -12.895  0.00  0.00    +0.117 C 
ATOM     11  C   UNL     1      37.406 -23.325 -12.549  0.00  0.00    +0.005 C 
ATOM     12  C   UNL     1      34.942 -24.172 -11.540  0.00  0.00    +0.085 C 
ATOM     13  C   UNL     1      37.285 -23.669 -11.205  0.00  0.00    -0.004 C 
ATOM     14  C   UNL     1      36.056 -24.095 -10.701  0.00  0.00    -0.019 C 
ENDROOT
BRANCH   2  15
ATOM     15  C   UNL     1      31.594 -23.712 -15.718  0.00  0.00    +0.053 C 
ATOM     16  C   UNL     1      31.105 -24.702 -14.864  0.00  0.00    +0.015 C 
ATOM     17  C   UNL     1      30.707 -22.855 -16.371  0.00  0.00    +0.015 C 
ATOM     18  C   UNL     1      29.731 -24.835 -14.664  0.00  0.00    +0.001 C 
ATOM     19  C   UNL     1      29.333 -22.988 -16.170  0.00  0.00    +0.001 C 
ATOM     20  C   UNL     1      28.845 -23.978 -15.317  0.00  0.00    +0.000 C 
ENDBRANCH   2  15
BRANCH   4  21
ATOM     21  O   UNL     1      35.686 -24.982 -15.969  0.00  0.00    -0.372 OA
ATOM     22  H   UNL     1      34.969 -25.592 -15.735  0.00  0.00    +0.211 HD
ENDBRANCH   4  21
TORSDOF 2
ENDMDL
