MODEL 1
REMARK VINA RESULT:     -10.2      0.000      0.000
REMARK  Name = 447110
REMARK  9 active torsions:
REMARK  status: ('A' for Active; 'I' for Inactive)
REMARK    1  A    between atoms: C_1  and  C_2
REMARK    2  A    between atoms: C_1  and  N_15
REMARK    3  A    between atoms: C_1  and  P_26
REMARK    4  A    between atoms: C_5  and  C_10
REMARK    5  A    between atoms: C_16  and  O_18
REMARK    6  A    between atoms: O_18  and  C_19
REMARK    7  A    between atoms: C_19  and  C_20
REMARK    8  A    between atoms: P_26  and  O_28
REMARK    9  A    between atoms: P_26  and  O_30
REMARK                            x       y       z     vdW  Elec       q    Type
REMARK                         _______ _______ _______ _____ _____    ______ ____
ROOT
ATOM      1  C   UNL     1      35.017 -17.937 -21.445  0.00  0.00    +0.202 C 
ENDROOT
BRANCH   1   2
ATOM      2  C   UNL     1      34.716 -19.267 -20.790  0.00  0.00    +0.007 C 
ATOM      3  C   UNL     1      33.400 -19.681 -20.671  0.00  0.00    -0.002 C 
ATOM      4  C   UNL     1      35.764 -20.043 -20.326  0.00  0.00    -0.002 C 
ATOM      5  C   UNL     1      34.168 -21.702 -19.594  0.00  0.00    +0.031 C 
ATOM      6  C   UNL     1      33.124 -20.908 -20.067  0.00  0.00    +0.002 C 
ATOM      7  C   UNL     1      35.488 -21.270 -19.723  0.00  0.00    +0.002 C 
BRANCH   5  10
ATOM      8  N   UNL     1      33.534 -23.064 -17.615  0.00  0.00    -0.343 N 
ATOM      9  N   UNL     1      33.946 -24.094 -19.672  0.00  0.00    -0.285 NA
ATOM     10  C   UNL     1      33.880 -22.981 -18.963  0.00  0.00    +0.117 C 
ATOM     11  H   UNL     1      33.342 -23.940 -17.210  0.00  0.00    +0.144 HD
ATOM     12  H   UNL     1      33.481 -22.246 -17.070  0.00  0.00    +0.144 HD
ATOM     13  H   UNL     1      33.751 -24.961 -19.247  0.00  0.00    +0.188 HD
ENDBRANCH   5  10
ENDBRANCH   1   2
BRANCH   1  15
ATOM     14  O   UNL     1      34.908 -15.301 -20.226  0.00  0.00    -0.226 OA
ATOM     15  N   UNL     1      33.880 -17.025 -21.387  0.00  0.00    -0.258 N 
ATOM     16  C   UNL     1      33.928 -15.785 -20.782  0.00  0.00    +0.403 C 
ATOM     17  H   UNL     1      33.032 -17.310 -21.800  0.00  0.00    +0.154 HD
BRANCH  16  18
ATOM     18  O   UNL     1      32.713 -15.172 -20.891  0.00  0.00    -0.430 OA
BRANCH  18  19
ATOM     19  C   UNL     1      32.545 -14.318 -22.028  0.00  0.00    +0.237 C 
BRANCH  19  20
ATOM     20  C   UNL     1      32.143 -12.950 -21.559  0.00  0.00    +0.021 C 
ATOM     21  C   UNL     1      31.996 -12.705 -20.198  0.00  0.00    -0.001 C 
ATOM     22  C   UNL     1      31.921 -11.941 -22.490  0.00  0.00    -0.001 C 
ATOM     23  C   UNL     1      31.624 -11.434 -19.763  0.00  0.00    -0.000 C 
ATOM     24  C   UNL     1      31.548 -10.669 -22.054  0.00  0.00    -0.000 C 
ATOM     25  C   UNL     1      31.399 -10.415 -20.689  0.00  0.00    -0.000 C 
ENDBRANCH  19  20
ENDBRANCH  18  19
ENDBRANCH  16  18
ENDBRANCH   1  15
BRANCH   1  26
ATOM     26  P   UNL     1      35.515 -17.994 -23.170  0.00  0.00    +0.359 P 
ATOM     27  O   UNL     1      34.596 -18.786 -24.054  0.00  0.00    -0.256 OA
BRANCH  26  28
ATOM     28  O   UNL     1      37.045 -18.515 -23.138  0.00  0.00    -0.322 OA
ATOM     29  H   UNL     1      37.099 -19.326 -22.609  0.00  0.00    +0.220 HD
ENDBRANCH  26  28
BRANCH  26  30
ATOM     30  O   UNL     1      35.662 -16.435 -23.576  0.00  0.00    -0.322 OA
ATOM     31  H   UNL     1      36.027 -16.368 -24.472  0.00  0.00    +0.220 HD
ENDBRANCH  26  30
ENDBRANCH   1  26
TORSDOF 9
ENDMDL
MODEL 2
REMARK VINA RESULT:     -10.1      5.583      8.179
REMARK  Name = 447110
REMARK  9 active torsions:
REMARK  status: ('A' for Active; 'I' for Inactive)
REMARK    1  A    between atoms: C_1  and  C_2
REMARK    2  A    between atoms: C_1  and  N_15
REMARK    3  A    between atoms: C_1  and  P_26
REMARK    4  A    between atoms: C_5  and  C_10
REMARK    5  A    between atoms: C_16  and  O_18
REMARK    6  A    between atoms: O_18  and  C_19
REMARK    7  A    between atoms: C_19  and  C_20
REMARK    8  A    between atoms: P_26  and  O_28
REMARK    9  A    between atoms: P_26  and  O_30
REMARK                            x       y       z     vdW  Elec       q    Type
REMARK                         _______ _______ _______ _____ _____    ______ ____
ROOT
ATOM      1  C   UNL     1      36.032 -22.807 -15.477  0.00  0.00    +0.202 C 
ENDROOT
BRANCH   1   2
ATOM      2  C   UNL     1      34.674 -23.338 -15.074  0.00  0.00    +0.007 C 
ATOM      3  C   UNL     1      34.514 -23.906 -13.822  0.00  0.00    -0.002 C 
ATOM      4  C   UNL     1      33.619 -23.243 -15.966  0.00  0.00    -0.002 C 
ATOM      5  C   UNL     1      32.188 -24.308 -14.337  0.00  0.00    +0.031 C 
ATOM      6  C   UNL     1      33.261 -24.395 -13.451  0.00  0.00    +0.002 C 
ATOM      7  C   UNL     1      32.367 -23.732 -15.594  0.00  0.00    +0.002 C 
BRANCH   5  10
ATOM      8  N   UNL     1      30.055 -25.464 -14.867  0.00  0.00    -0.343 N 
ATOM      9  N   UNL     1      30.460 -24.671 -12.707  0.00  0.00    -0.285 NA
ATOM     10  C   UNL     1      30.883 -24.819 -13.949  0.00  0.00    +0.117 C 
ATOM     11  H   UNL     1      29.176 -25.804 -14.583  0.00  0.00    +0.144 HD
ATOM     12  H   UNL     1      30.351 -25.583 -15.798  0.00  0.00    +0.144 HD
ATOM     13  H   UNL     1      29.577 -25.016 -12.442  0.00  0.00    +0.188 HD
ENDBRANCH   5  10
ENDBRANCH   1   2
BRANCH   1  15
ATOM     14  O   UNL     1      37.394 -20.666 -16.894  0.00  0.00    -0.226 OA
ATOM     15  N   UNL     1      36.143 -22.618 -16.920  0.00  0.00    -0.258 N 
ATOM     16  C   UNL     1      36.817 -21.563 -17.500  0.00  0.00    +0.403 C 
ATOM     17  H   UNL     1      35.714 -23.279 -17.510  0.00  0.00    +0.154 HD
BRANCH  16  18
ATOM     18  O   UNL     1      36.745 -21.662 -18.859  0.00  0.00    -0.430 OA
BRANCH  18  19
ATOM     19  C   UNL     1      35.486 -22.096 -19.387  0.00  0.00    +0.237 C 
BRANCH  19  20
ATOM     20  C   UNL     1      34.798 -20.931 -20.036  0.00  0.00    +0.021 C 
ATOM     21  C   UNL     1      33.412 -20.832 -19.982  0.00  0.00    -0.001 C 
ATOM     22  C   UNL     1      35.554 -19.961 -20.687  0.00  0.00    -0.001 C 
ATOM     23  C   UNL     1      32.774 -19.748 -20.584  0.00  0.00    -0.000 C 
ATOM     24  C   UNL     1      34.914 -18.878 -21.290  0.00  0.00    -0.000 C 
ATOM     25  C   UNL     1      33.523 -18.771 -21.239  0.00  0.00    -0.000 C 
ENDBRANCH  19  20
ENDBRANCH  18  19
ENDBRANCH  16  18
ENDBRANCH   1  15
BRANCH   1  26
ATOM     26  P   UNL     1      37.450 -23.800 -14.999  0.00  0.00    +0.359 P 
ATOM     27  O   UNL     1      37.802 -23.715 -13.543  0.00  0.00    -0.256 OA
BRANCH  26  28
ATOM     28  O   UNL     1      38.627 -23.348 -16.011  0.00  0.00    -0.322 OA
ATOM     29  H   UNL     1      38.248 -22.822 -16.733  0.00  0.00    +0.220 HD
ENDBRANCH  26  28
BRANCH  26  30
ATOM     30  O   UNL     1      37.067 -25.284 -15.515  0.00  0.00    -0.322 OA
ATOM     31  H   UNL     1      36.260 -25.583 -15.067  0.00  0.00    +0.220 HD
ENDBRANCH  26  30
ENDBRANCH   1  26
TORSDOF 9
ENDMDL
MODEL 3
REMARK VINA RESULT:     -10.0      5.776      8.418
REMARK  Name = 447110
REMARK  9 active torsions:
REMARK  status: ('A' for Active; 'I' for Inactive)
REMARK    1  A    between atoms: C_1  and  C_2
REMARK    2  A    between atoms: C_1  and  N_15
REMARK    3  A    between atoms: C_1  and  P_26
REMARK    4  A    between atoms: C_5  and  C_10
REMARK    5  A    between atoms: C_16  and  O_18
REMARK    6  A    between atoms: O_18  and  C_19
REMARK    7  A    between atoms: C_19  and  C_20
REMARK    8  A    between atoms: P_26  and  O_28
REMARK    9  A    between atoms: P_26  and  O_30
REMARK                            x       y       z     vdW  Elec       q    Type
REMARK                         _______ _______ _______ _____ _____    ______ ____
ROOT
ATOM      1  C   UNL     1      35.022 -23.419 -15.388  0.00  0.00    +0.202 C 
ENDROOT
BRANCH   1   2
ATOM      2  C   UNL     1      33.536 -23.685 -15.283  0.00  0.00    +0.007 C 
ATOM      3  C   UNL     1      33.045 -24.356 -14.176  0.00  0.00    -0.002 C 
ATOM      4  C   UNL     1      32.699 -23.249 -16.296  0.00  0.00    -0.002 C 
ATOM      5  C   UNL     1      30.818 -24.169 -15.091  0.00  0.00    +0.031 C 
ATOM      6  C   UNL     1      31.675 -24.600 -14.080  0.00  0.00    +0.002 C 
ATOM      7  C   UNL     1      31.329 -23.494 -16.199  0.00  0.00    +0.002 C 
BRANCH   5  10
ATOM      8  N   UNL     1      28.898 -25.533 -14.302  0.00  0.00    -0.343 N 
ATOM      9  N   UNL     1      28.531 -23.600 -15.562  0.00  0.00    -0.285 NA
ATOM     10  C   UNL     1      29.389 -24.425 -14.991  0.00  0.00    +0.117 C 
ATOM     11  H   UNL     1      27.927 -25.686 -14.246  0.00  0.00    +0.144 HD
ATOM     12  H   UNL     1      29.521 -26.161 -13.871  0.00  0.00    +0.144 HD
ATOM     13  H   UNL     1      27.563 -23.771 -15.495  0.00  0.00    +0.188 HD
ENDBRANCH   5  10
ENDBRANCH   1   2
BRANCH   1  15
ATOM     14  O   UNL     1      37.082 -21.480 -16.058  0.00  0.00    -0.226 OA
ATOM     15  N   UNL     1      35.403 -22.941 -16.713  0.00  0.00    -0.258 N 
ATOM     16  C   UNL     1      36.402 -22.014 -16.929  0.00  0.00    +0.403 C 
ATOM     17  H   UNL     1      34.921 -23.299 -17.494  0.00  0.00    +0.154 HD
BRANCH  16  18
ATOM     18  O   UNL     1      36.523 -21.770 -18.267  0.00  0.00    -0.430 OA
BRANCH  18  19
ATOM     19  C   UNL     1      35.457 -22.259 -19.089  0.00  0.00    +0.237 C 
BRANCH  19  20
ATOM     20  C   UNL     1      34.843 -21.109 -19.831  0.00  0.00    +0.021 C 
ATOM     21  C   UNL     1      35.662 -20.201 -20.494  0.00  0.00    -0.001 C 
ATOM     22  C   UNL     1      33.460 -20.962 -19.850  0.00  0.00    -0.001 C 
ATOM     23  C   UNL     1      35.091 -19.133 -21.184  0.00  0.00    -0.000 C 
ATOM     24  C   UNL     1      32.889 -19.893 -20.541  0.00  0.00    -0.000 C 
ATOM     25  C   UNL     1      33.705 -18.977 -21.208  0.00  0.00    -0.000 C 
ENDBRANCH  19  20
ENDBRANCH  18  19
ENDBRANCH  16  18
ENDBRANCH   1  15
BRANCH   1  26
ATOM     26  P   UNL     1      36.106 -24.806 -15.034  0.00  0.00    +0.359 P 
ATOM     27  O   UNL     1      35.685 -26.099 -15.668  0.00  0.00    -0.256 OA
BRANCH  26  28
ATOM     28  O   UNL     1      36.211 -24.842 -13.421  0.00  0.00    -0.322 OA
ATOM     29  H   UNL     1      36.836 -25.534 -13.153  0.00  0.00    +0.220 HD
ENDBRANCH  26  28
BRANCH  26  30
ATOM     30  O   UNL     1      37.564 -24.276 -15.488  0.00  0.00    -0.322 OA
ATOM     31  H   UNL     1      37.601 -23.311 -15.396  0.00  0.00    +0.220 HD
ENDBRANCH  26  30
ENDBRANCH   1  26
TORSDOF 9
ENDMDL
MODEL 4
REMARK VINA RESULT:      -9.9      5.892      8.495
REMARK  Name = 447110
REMARK  9 active torsions:
REMARK  status: ('A' for Active; 'I' for Inactive)
REMARK    1  A    between atoms: C_1  and  C_2
REMARK    2  A    between atoms: C_1  and  N_15
REMARK    3  A    between atoms: C_1  and  P_26
REMARK    4  A    between atoms: C_5  and  C_10
REMARK    5  A    between atoms: C_16  and  O_18
REMARK    6  A    between atoms: O_18  and  C_19
REMARK    7  A    between atoms: C_19  and  C_20
REMARK    8  A    between atoms: P_26  and  O_28
REMARK    9  A    between atoms: P_26  and  O_30
REMARK                            x       y       z     vdW  Elec       q    Type
REMARK                         _______ _______ _______ _____ _____    ______ ____
ROOT
ATOM      1  C   UNL     1      35.060 -23.591 -15.294  0.00  0.00    +0.202 C 
ENDROOT
BRANCH   1   2
ATOM      2  C   UNL     1      33.567 -23.821 -15.203  0.00  0.00    +0.007 C 
ATOM      3  C   UNL     1      32.745 -23.335 -16.205  0.00  0.00    -0.002 C 
ATOM      4  C   UNL     1      33.055 -24.515 -14.119  0.00  0.00    -0.002 C 
ATOM      5  C   UNL     1      30.837 -24.244 -15.036  0.00  0.00    +0.031 C 
ATOM      6  C   UNL     1      31.369 -23.548 -16.120  0.00  0.00    +0.002 C 
ATOM      7  C   UNL     1      31.679 -24.727 -14.035  0.00  0.00    +0.002 C 
BRANCH   5  10
ATOM      8  N   UNL     1      28.495 -23.590 -15.544  0.00  0.00    -0.343 N 
ATOM      9  N   UNL     1      28.936 -25.511 -14.289  0.00  0.00    -0.285 NA
ATOM     10  C   UNL     1      29.401 -24.465 -14.948  0.00  0.00    +0.117 C 
ATOM     11  H   UNL     1      27.528 -23.759 -15.473  0.00  0.00    +0.144 HD
ATOM     12  H   UNL     1      28.822 -22.803 -16.038  0.00  0.00    +0.144 HD
ATOM     13  H   UNL     1      27.964 -25.662 -14.227  0.00  0.00    +0.188 HD
ENDBRANCH   5  10
ENDBRANCH   1   2
BRANCH   1  15
ATOM     14  O   UNL     1      37.164 -21.670 -15.867  0.00  0.00    -0.226 OA
ATOM     15  N   UNL     1      35.457 -23.061 -16.594  0.00  0.00    -0.258 N 
ATOM     16  C   UNL     1      36.477 -22.147 -16.764  0.00  0.00    +0.403 C 
ATOM     17  H   UNL     1      34.970 -23.371 -17.392  0.00  0.00    +0.154 HD
BRANCH  16  18
ATOM     18  O   UNL     1      36.608 -21.845 -18.088  0.00  0.00    -0.430 OA
BRANCH  18  19
ATOM     19  C   UNL     1      35.459 -22.103 -18.905  0.00  0.00    +0.237 C 
BRANCH  19  20
ATOM     20  C   UNL     1      35.221 -20.926 -19.804  0.00  0.00    +0.021 C 
ATOM     21  C   UNL     1      33.923 -20.599 -20.181  0.00  0.00    -0.001 C 
ATOM     22  C   UNL     1      36.301 -20.173 -20.252  0.00  0.00    -0.001 C 
ATOM     23  C   UNL     1      33.703 -19.505 -21.016  0.00  0.00    -0.000 C 
ATOM     24  C   UNL     1      36.080 -19.078 -21.087  0.00  0.00    -0.000 C 
ATOM     25  C   UNL     1      34.780 -18.744 -21.470  0.00  0.00    -0.000 C 
ENDBRANCH  19  20
ENDBRANCH  18  19
ENDBRANCH  16  18
ENDBRANCH   1  15
BRANCH   1  26
ATOM     26  P   UNL     1      36.104 -25.023 -15.006  0.00  0.00    +0.359 P 
ATOM     27  O   UNL     1      35.745 -26.227 -15.827  0.00  0.00    -0.256 OA
BRANCH  26  28
ATOM     28  O   UNL     1      36.054 -25.252 -13.406  0.00  0.00    -0.322 OA
ATOM     29  H   UNL     1      36.020 -24.393 -12.958  0.00  0.00    +0.220 HD
ENDBRANCH  26  28
BRANCH  26  30
ATOM     30  O   UNL     1      37.600 -24.460 -15.254  0.00  0.00    -0.322 OA
ATOM     31  H   UNL     1      37.690 -24.179 -16.178  0.00  0.00    +0.220 HD
ENDBRANCH  26  30
ENDBRANCH   1  26
TORSDOF 9
ENDMDL
MODEL 5
REMARK VINA RESULT:      -9.9      6.406      9.066
REMARK  Name = 447110
REMARK  9 active torsions:
REMARK  status: ('A' for Active; 'I' for Inactive)
REMARK    1  A    between atoms: C_1  and  C_2
REMARK    2  A    between atoms: C_1  and  N_15
REMARK    3  A    between atoms: C_1  and  P_26
REMARK    4  A    between atoms: C_5  and  C_10
REMARK    5  A    between atoms: C_16  and  O_18
REMARK    6  A    between atoms: O_18  and  C_19
REMARK    7  A    between atoms: C_19  and  C_20
REMARK    8  A    between atoms: P_26  and  O_28
REMARK    9  A    between atoms: P_26  and  O_30
REMARK                            x       y       z     vdW  Elec       q    Type
REMARK                         _______ _______ _______ _____ _____    ______ ____
ROOT
ATOM      1  C   UNL     1      34.202 -24.443 -15.393  0.00  0.00    +0.202 C 
ENDROOT
BRANCH   1   2
ATOM      2  C   UNL     1      35.662 -24.812 -15.242  0.00  0.00    +0.007 C 
ATOM      3  C   UNL     1      36.614 -23.806 -15.212  0.00  0.00    -0.002 C 
ATOM      4  C   UNL     1      36.014 -26.146 -15.135  0.00  0.00    -0.002 C 
ATOM      5  C   UNL     1      38.332 -25.487 -14.964  0.00  0.00    +0.031 C 
ATOM      6  C   UNL     1      37.960 -24.147 -15.072  0.00  0.00    +0.002 C 
ATOM      7  C   UNL     1      37.360 -26.486 -14.996  0.00  0.00    +0.002 C 
BRANCH   5  10
ATOM      8  N   UNL     1      40.276 -26.169 -13.577  0.00  0.00    -0.343 N 
ATOM      9  N   UNL     1      40.524 -25.853 -15.879  0.00  0.00    -0.285 NA
ATOM     10  C   UNL     1      39.735 -25.841 -14.819  0.00  0.00    +0.117 C 
ATOM     11  H   UNL     1      41.229 -26.407 -13.502  0.00  0.00    +0.144 HD
ATOM     12  H   UNL     1      39.706 -26.164 -12.775  0.00  0.00    +0.144 HD
ATOM     13  H   UNL     1      41.474 -26.092 -15.784  0.00  0.00    +0.188 HD
ENDBRANCH   5  10
ENDBRANCH   1   2
BRANCH   1  15
ATOM     14  O   UNL     1      33.651 -24.310 -18.244  0.00  0.00    -0.226 OA
ATOM     15  N   UNL     1      34.017 -23.251 -16.213  0.00  0.00    -0.258 N 
ATOM     16  C   UNL     1      33.756 -23.292 -17.567  0.00  0.00    +0.403 C 
ATOM     17  H   UNL     1      34.083 -22.371 -15.776  0.00  0.00    +0.154 HD
BRANCH  16  18
ATOM     18  O   UNL     1      33.634 -22.021 -18.051  0.00  0.00    -0.430 OA
BRANCH  18  19
ATOM     19  C   UNL     1      33.442 -21.908 -19.466  0.00  0.00    +0.237 C 
BRANCH  19  20
ATOM     20  C   UNL     1      34.399 -20.890 -20.012  0.00  0.00    +0.021 C 
ATOM     21  C   UNL     1      33.915 -19.815 -20.750  0.00  0.00    -0.001 C 
ATOM     22  C   UNL     1      35.762 -21.030 -19.774  0.00  0.00    -0.001 C 
ATOM     23  C   UNL     1      34.806 -18.869 -21.256  0.00  0.00    -0.000 C 
ATOM     24  C   UNL     1      36.653 -20.083 -20.281  0.00  0.00    -0.000 C 
ATOM     25  C   UNL     1      36.174 -19.002 -21.022  0.00  0.00    -0.000 C 
ENDBRANCH  19  20
ENDBRANCH  18  19
ENDBRANCH  16  18
ENDBRANCH   1  15
BRANCH   1  26
ATOM     26  P   UNL     1      33.297 -24.140 -13.872  0.00  0.00    +0.359 P 
ATOM     27  O   UNL     1      34.162 -23.995 -12.655  0.00  0.00    -0.256 OA
BRANCH  26  28
ATOM     28  O   UNL     1      32.211 -25.337 -13.796  0.00  0.00    -0.322 OA
ATOM     29  H   UNL     1      32.255 -25.758 -12.923  0.00  0.00    +0.220 HD
ENDBRANCH  26  28
BRANCH  26  30
ATOM     30  O   UNL     1      32.396 -22.843 -14.217  0.00  0.00    -0.322 OA
ATOM     31  H   UNL     1      32.675 -22.472 -15.068  0.00  0.00    +0.220 HD
ENDBRANCH  26  30
ENDBRANCH   1  26
TORSDOF 9
ENDMDL
MODEL 6
REMARK VINA RESULT:      -9.7      1.529      2.484
REMARK  Name = 447110
REMARK  9 active torsions:
REMARK  status: ('A' for Active; 'I' for Inactive)
REMARK    1  A    between atoms: C_1  and  C_2
REMARK    2  A    between atoms: C_1  and  N_15
REMARK    3  A    between atoms: C_1  and  P_26
REMARK    4  A    between atoms: C_5  and  C_10
REMARK    5  A    between atoms: C_16  and  O_18
REMARK    6  A    between atoms: O_18  and  C_19
REMARK    7  A    between atoms: C_19  and  C_20
REMARK    8  A    between atoms: P_26  and  O_28
REMARK    9  A    between atoms: P_26  and  O_30
REMARK                            x       y       z     vdW  Elec       q    Type
REMARK                         _______ _______ _______ _____ _____    ______ ____
ROOT
ATOM      1  C   UNL     1      34.871 -17.769 -21.568  0.00  0.00    +0.202 C 
ENDROOT
BRANCH   1   2
ATOM      2  C   UNL     1      34.489 -19.063 -20.881  0.00  0.00    +0.007 C 
ATOM      3  C   UNL     1      35.487 -19.928 -20.464  0.00  0.00    -0.002 C 
ATOM      4  C   UNL     1      33.150 -19.352 -20.682  0.00  0.00    -0.002 C 
ATOM      5  C   UNL     1      33.789 -21.426 -19.623  0.00  0.00    +0.031 C 
ATOM      6  C   UNL     1      35.133 -21.120 -19.831  0.00  0.00    +0.002 C 
ATOM      7  C   UNL     1      32.798 -20.544 -20.048  0.00  0.00    +0.002 C 
BRANCH   5  10
ATOM      8  N   UNL     1      32.511 -22.690 -17.908  0.00  0.00    -0.343 N 
ATOM      9  N   UNL     1      33.958 -23.810 -19.361  0.00  0.00    -0.285 NA
ATOM     10  C   UNL     1      33.422 -22.670 -18.963  0.00  0.00    +0.117 C 
ATOM     11  H   UNL     1      32.276 -23.543 -17.476  0.00  0.00    +0.144 HD
ATOM     12  H   UNL     1      32.102 -21.851 -17.595  0.00  0.00    +0.144 HD
ATOM     13  H   UNL     1      33.712 -24.652 -18.915  0.00  0.00    +0.188 HD
ENDBRANCH   5  10
ENDBRANCH   1   2
BRANCH   1  15
ATOM     14  O   UNL     1      34.679 -14.917 -21.044  0.00  0.00    -0.226 OA
ATOM     15  N   UNL     1      33.721 -16.897 -21.778  0.00  0.00    -0.258 N 
ATOM     16  C   UNL     1      33.729 -15.546 -21.498  0.00  0.00    +0.403 C 
ATOM     17  H   UNL     1      32.895 -17.294 -22.138  0.00  0.00    +0.154 HD
BRANCH  16  18
ATOM     18  O   UNL     1      32.512 -15.006 -21.798  0.00  0.00    -0.430 OA
BRANCH  18  19
ATOM     19  C   UNL     1      32.486 -13.585 -21.978  0.00  0.00    +0.237 C 
BRANCH  19  20
ATOM     20  C   UNL     1      32.892 -13.261 -23.386  0.00  0.00    +0.021 C 
ATOM     21  C   UNL     1      32.695 -14.200 -24.392  0.00  0.00    -0.001 C 
ATOM     22  C   UNL     1      33.461 -12.025 -23.671  0.00  0.00    -0.001 C 
ATOM     23  C   UNL     1      33.071 -13.899 -25.701  0.00  0.00    -0.000 C 
ATOM     24  C   UNL     1      33.837 -11.723 -24.980  0.00  0.00    -0.000 C 
ATOM     25  C   UNL     1      33.643 -12.661 -25.996  0.00  0.00    -0.000 C 
ENDBRANCH  19  20
ENDBRANCH  18  19
ENDBRANCH  16  18
ENDBRANCH   1  15
BRANCH   1  26
ATOM     26  P   UNL     1      35.671 -17.924 -23.168  0.00  0.00    +0.359 P 
ATOM     27  O   UNL     1      34.978 -18.855 -24.119  0.00  0.00    -0.256 OA
BRANCH  26  28
ATOM     28  O   UNL     1      37.201 -18.318 -22.824  0.00  0.00    -0.322 OA
ATOM     29  H   UNL     1      37.235 -18.762 -21.963  0.00  0.00    +0.220 HD
ENDBRANCH  26  28
BRANCH  26  30
ATOM     30  O   UNL     1      35.788 -16.397 -23.685  0.00  0.00    -0.322 OA
ATOM     31  H   UNL     1      36.458 -16.342 -24.383  0.00  0.00    +0.220 HD
ENDBRANCH  26  30
ENDBRANCH   1  26
TORSDOF 9
ENDMDL
MODEL 7
REMARK VINA RESULT:      -9.4      5.863      8.473
REMARK  Name = 447110
REMARK  9 active torsions:
REMARK  status: ('A' for Active; 'I' for Inactive)
REMARK    1  A    between atoms: C_1  and  C_2
REMARK    2  A    between atoms: C_1  and  N_15
REMARK    3  A    between atoms: C_1  and  P_26
REMARK    4  A    between atoms: C_5  and  C_10
REMARK    5  A    between atoms: C_16  and  O_18
REMARK    6  A    between atoms: O_18  and  C_19
REMARK    7  A    between atoms: C_19  and  C_20
REMARK    8  A    between atoms: P_26  and  O_28
REMARK    9  A    between atoms: P_26  and  O_30
REMARK                            x       y       z     vdW  Elec       q    Type
REMARK                         _______ _______ _______ _____ _____    ______ ____
ROOT
ATOM      1  C   UNL     1      33.171 -23.709 -16.025  0.00  0.00    +0.202 C 
ENDROOT
BRANCH   1   2
ATOM      2  C   UNL     1      34.247 -23.649 -14.962  0.00  0.00    +0.007 C 
ATOM      3  C   UNL     1      34.034 -24.277 -13.747  0.00  0.00    -0.002 C 
ATOM      4  C   UNL     1      35.423 -22.969 -15.230  0.00  0.00    -0.002 C 
ATOM      5  C   UNL     1      36.217 -23.540 -13.021  0.00  0.00    +0.031 C 
ATOM      6  C   UNL     1      35.027 -24.221 -12.768  0.00  0.00    +0.002 C 
ATOM      7  C   UNL     1      36.416 -22.914 -14.251  0.00  0.00    +0.002 C 
BRANCH   5  10
ATOM      8  N   UNL     1      38.108 -24.557 -11.773  0.00  0.00    -0.343 N 
ATOM      9  N   UNL     1      37.388 -22.394 -11.263  0.00  0.00    -0.285 NA
ATOM     10  C   UNL     1      37.251 -23.482 -11.999  0.00  0.00    +0.117 C 
ATOM     11  H   UNL     1      38.802 -24.496 -11.077  0.00  0.00    +0.144 HD
ATOM     12  H   UNL     1      38.021 -25.378 -12.310  0.00  0.00    +0.144 HD
ATOM     13  H   UNL     1      38.088 -22.352 -10.571  0.00  0.00    +0.188 HD
ENDBRANCH   5  10
ENDBRANCH   1   2
BRANCH   1  15
ATOM     14  O   UNL     1      33.699 -24.277 -18.826  0.00  0.00    -0.226 OA
ATOM     15  N   UNL     1      33.407 -22.754 -17.102  0.00  0.00    -0.258 N 
ATOM     16  C   UNL     1      33.648 -23.124 -18.409  0.00  0.00    +0.403 C 
ATOM     17  H   UNL     1      33.393 -21.794 -16.883  0.00  0.00    +0.154 HD
BRANCH  16  18
ATOM     18  O   UNL     1      33.829 -22.011 -19.177  0.00  0.00    -0.430 OA
BRANCH  18  19
ATOM     19  C   UNL     1      35.187 -21.686 -19.497  0.00  0.00    +0.237 C 
BRANCH  19  20
ATOM     20  C   UNL     1      35.212 -20.427 -20.313  0.00  0.00    +0.021 C 
ATOM     21  C   UNL     1      34.017 -19.873 -20.760  0.00  0.00    -0.001 C 
ATOM     22  C   UNL     1      36.429 -19.827 -20.614  0.00  0.00    -0.001 C 
ATOM     23  C   UNL     1      34.041 -18.703 -21.518  0.00  0.00    -0.000 C 
ATOM     24  C   UNL     1      36.452 -18.656 -21.373  0.00  0.00    -0.000 C 
ATOM     25  C   UNL     1      35.257 -18.094 -21.825  0.00  0.00    -0.000 C 
ENDBRANCH  19  20
ENDBRANCH  18  19
ENDBRANCH  16  18
ENDBRANCH   1  15
BRANCH   1  26
ATOM     26  P   UNL     1      31.488 -23.422 -15.470  0.00  0.00    +0.359 P 
ATOM     27  O   UNL     1      30.786 -24.646 -14.960  0.00  0.00    -0.256 OA
BRANCH  26  28
ATOM     28  O   UNL     1      30.764 -22.693 -16.718  0.00  0.00    -0.322 OA
ATOM     29  H   UNL     1      30.099 -22.069 -16.387  0.00  0.00    +0.220 HD
ENDBRANCH  26  28
BRANCH  26  30
ATOM     30  O   UNL     1      31.642 -22.233 -14.385  0.00  0.00    -0.322 OA
ATOM     31  H   UNL     1      30.767 -21.870 -14.177  0.00  0.00    +0.220 HD
ENDBRANCH  26  30
ENDBRANCH   1  26
TORSDOF 9
ENDMDL
MODEL 8
REMARK VINA RESULT:      -9.3      6.819      9.547
REMARK  Name = 447110
REMARK  9 active torsions:
REMARK  status: ('A' for Active; 'I' for Inactive)
REMARK    1  A    between atoms: C_1  and  C_2
REMARK    2  A    between atoms: C_1  and  N_15
REMARK    3  A    between atoms: C_1  and  P_26
REMARK    4  A    between atoms: C_5  and  C_10
REMARK    5  A    between atoms: C_16  and  O_18
REMARK    6  A    between atoms: O_18  and  C_19
REMARK    7  A    between atoms: C_19  and  C_20
REMARK    8  A    between atoms: P_26  and  O_28
REMARK    9  A    between atoms: P_26  and  O_30
REMARK                            x       y       z     vdW  Elec       q    Type
REMARK                         _______ _______ _______ _____ _____    ______ ____
ROOT
ATOM      1  C   UNL     1      31.959 -23.126 -14.847  0.00  0.00    +0.202 C 
ENDROOT
BRANCH   1   2
ATOM      2  C   UNL     1      30.541 -22.822 -15.279  0.00  0.00    +0.007 C 
ATOM      3  C   UNL     1      30.146 -23.134 -16.569  0.00  0.00    -0.002 C 
ATOM      4  C   UNL     1      29.668 -22.243 -14.374  0.00  0.00    -0.002 C 
ATOM      5  C   UNL     1      27.946 -22.270 -16.068  0.00  0.00    +0.031 C 
ATOM      6  C   UNL     1      28.838 -22.855 -16.967  0.00  0.00    +0.002 C 
ATOM      7  C   UNL     1      28.360 -21.964 -14.773  0.00  0.00    +0.002 C 
BRANCH   5  10
ATOM      8  N   UNL     1      26.289 -21.598 -17.792  0.00  0.00    -0.343 N 
ATOM      9  N   UNL     1      25.595 -22.069 -15.612  0.00  0.00    -0.285 NA
ATOM     10  C   UNL     1      26.583 -21.978 -16.484  0.00  0.00    +0.117 C 
ATOM     11  H   UNL     1      25.359 -21.406 -18.052  0.00  0.00    +0.144 HD
ATOM     12  H   UNL     1      27.012 -21.522 -18.457  0.00  0.00    +0.144 HD
ATOM     13  H   UNL     1      24.671 -21.872 -15.891  0.00  0.00    +0.188 HD
ENDBRANCH   5  10
ENDBRANCH   1   2
BRANCH   1  15
ATOM     14  O   UNL     1      34.793 -22.543 -15.115  0.00  0.00    -0.226 OA
ATOM     15  N   UNL     1      32.829 -23.421 -15.980  0.00  0.00    -0.258 N 
ATOM     16  C   UNL     1      34.171 -23.104 -16.011  0.00  0.00    +0.403 C 
ATOM     17  H   UNL     1      32.436 -23.870 -16.763  0.00  0.00    +0.154 HD
BRANCH  16  18
ATOM     18  O   UNL     1      34.711 -23.505 -17.199  0.00  0.00    -0.430 OA
BRANCH  18  19
ATOM     19  C   UNL     1      33.840 -23.439 -18.335  0.00  0.00    +0.237 C 
BRANCH  19  20
ATOM     20  C   UNL     1      34.175 -22.217 -19.139  0.00  0.00    +0.021 C 
ATOM     21  C   UNL     1      33.151 -21.410 -19.623  0.00  0.00    -0.001 C 
ATOM     22  C   UNL     1      35.506 -21.903 -19.393  0.00  0.00    -0.001 C 
ATOM     23  C   UNL     1      33.463 -20.274 -20.370  0.00  0.00    -0.000 C 
ATOM     24  C   UNL     1      35.817 -20.767 -20.140  0.00  0.00    -0.000 C 
ATOM     25  C   UNL     1      34.795 -19.952 -20.629  0.00  0.00    -0.000 C 
ENDBRANCH  19  20
ENDBRANCH  18  19
ENDBRANCH  16  18
ENDBRANCH   1  15
BRANCH   1  26
ATOM     26  P   UNL     1      32.166 -24.490 -13.697  0.00  0.00    +0.359 P 
ATOM     27  O   UNL     1      30.946 -24.803 -12.881  0.00  0.00    -0.256 OA
BRANCH  26  28
ATOM     28  O   UNL     1      33.479 -24.105 -12.837  0.00  0.00    -0.322 OA
ATOM     29  H   UNL     1      34.235 -23.989 -13.435  0.00  0.00    +0.220 HD
ENDBRANCH  26  28
BRANCH  26  30
ATOM     30  O   UNL     1      32.679 -25.703 -14.635  0.00  0.00    -0.322 OA
ATOM     31  H   UNL     1      33.047 -25.343 -15.457  0.00  0.00    +0.220 HD
ENDBRANCH  26  30
ENDBRANCH   1  26
TORSDOF 9
ENDMDL
MODEL 9
REMARK VINA RESULT:      -8.9      3.235      4.403
REMARK  Name = 447110
REMARK  9 active torsions:
REMARK  status: ('A' for Active; 'I' for Inactive)
REMARK    1  A    between atoms: C_1  and  C_2
REMARK    2  A    between atoms: C_1  and  N_15
REMARK    3  A    between atoms: C_1  and  P_26
REMARK    4  A    between atoms: C_5  and  C_10
REMARK    5  A    between atoms: C_16  and  O_18
REMARK    6  A    between atoms: O_18  and  C_19
REMARK    7  A    between atoms: C_19  and  C_20
REMARK    8  A    between atoms: P_26  and  O_28
REMARK    9  A    between atoms: P_26  and  O_30
REMARK                            x       y       z     vdW  Elec       q    Type
REMARK                         _______ _______ _______ _____ _____    ______ ____
ROOT
ATOM      1  C   UNL     1      34.144 -14.510 -24.740  0.00  0.00    +0.202 C 
ENDROOT
BRANCH   1   2
ATOM      2  C   UNL     1      34.364 -15.682 -23.808  0.00  0.00    +0.007 C 
ATOM      3  C   UNL     1      33.957 -15.583 -22.488  0.00  0.00    -0.002 C 
ATOM      4  C   UNL     1      34.965 -16.830 -24.296  0.00  0.00    -0.002 C 
ATOM      5  C   UNL     1      34.764 -17.827 -22.106  0.00  0.00    +0.031 C 
ATOM      6  C   UNL     1      34.160 -16.664 -21.630  0.00  0.00    +0.002 C 
ATOM      7  C   UNL     1      35.167 -17.911 -23.438  0.00  0.00    +0.002 C 
BRANCH   5  10
ATOM      8  N   UNL     1      36.154 -19.086 -20.476  0.00  0.00    -0.343 N 
ATOM      9  N   UNL     1      34.042 -19.879 -21.084  0.00  0.00    -0.285 NA
ATOM     10  C   UNL     1      34.976 -18.954 -21.210  0.00  0.00    +0.117 C 
ATOM     11  H   UNL     1      36.276 -19.855 -19.875  0.00  0.00    +0.144 HD
ATOM     12  H   UNL     1      36.863 -18.407 -20.557  0.00  0.00    +0.144 HD
ATOM     13  H   UNL     1      34.183 -20.643 -20.478  0.00  0.00    +0.188 HD
ENDBRANCH   5  10
ENDBRANCH   1   2
BRANCH   1  15
ATOM     14  O   UNL     1      34.521 -11.679 -25.279  0.00  0.00    -0.226 OA
ATOM     15  N   UNL     1      33.516 -13.380 -24.064  0.00  0.00    -0.258 N 
ATOM     16  C   UNL     1      33.761 -12.063 -24.396  0.00  0.00    +0.403 C 
ATOM     17  H   UNL     1      32.885 -13.567 -23.331  0.00  0.00    +0.154 HD
BRANCH  16  18
ATOM     18  O   UNL     1      33.029 -11.241 -23.588  0.00  0.00    -0.430 OA
BRANCH  18  19
ATOM     19  C   UNL     1      32.057 -11.886 -22.757  0.00  0.00    +0.237 C 
BRANCH  19  20
ATOM     20  C   UNL     1      31.898 -11.101 -21.489  0.00  0.00    +0.021 C 
ATOM     21  C   UNL     1      31.596 -11.761 -20.303  0.00  0.00    -0.001 C 
ATOM     22  C   UNL     1      32.053  -9.718 -21.512  0.00  0.00    -0.001 C 
ATOM     23  C   UNL     1      31.449 -11.031 -19.125  0.00  0.00    -0.000 C 
ATOM     24  C   UNL     1      31.905  -8.988 -20.332  0.00  0.00    -0.000 C 
ATOM     25  C   UNL     1      31.602  -9.644 -19.138  0.00  0.00    -0.000 C 
ENDBRANCH  19  20
ENDBRANCH  18  19
ENDBRANCH  16  18
ENDBRANCH   1  15
BRANCH   1  26
ATOM     26  P   UNL     1      33.145 -14.829 -26.198  0.00  0.00    +0.359 P 
ATOM     27  O   UNL     1      32.912 -16.284 -26.482  0.00  0.00    -0.256 OA
BRANCH  26  28
ATOM     28  O   UNL     1      33.881 -14.014 -27.384  0.00  0.00    -0.322 OA
ATOM     29  H   UNL     1      33.905 -14.561 -28.185  0.00  0.00    +0.220 HD
ENDBRANCH  26  28
BRANCH  26  30
ATOM     30  O   UNL     1      31.801 -13.970 -25.934  0.00  0.00    -0.322 OA
ATOM     31  H   UNL     1      31.064 -14.365 -26.426  0.00  0.00    +0.220 HD
ENDBRANCH  26  30
ENDBRANCH   1  26
TORSDOF 9
ENDMDL
