MODEL 1
REMARK VINA RESULT:      -8.2      0.000      0.000
REMARK  Name = 73555170
REMARK  5 active torsions:
REMARK  status: ('A' for Active; 'I' for Inactive)
REMARK    1  A    between atoms: C_4  and  S_11
REMARK    2  A    between atoms: S_11  and  C_12
REMARK    3  A    between atoms: C_12  and  C_13
REMARK    4  A    between atoms: C_13  and  C_14
REMARK    5  A    between atoms: C_14  and  S_15
REMARK                            x       y       z     vdW  Elec       q    Type
REMARK                         _______ _______ _______ _____ _____    ______ ____
ROOT
ATOM      1  S   UNL     1      35.328 -22.116 -18.607  0.00  0.00    -0.082 S 
ATOM      2  N   UNL     1      32.886 -21.764 -19.056  0.00  0.00    -0.317 N 
ATOM      3  C   UNL     1      33.521 -20.924 -19.941  0.00  0.00    +0.052 C 
ATOM      4  C   UNL     1      33.687 -22.463 -18.281  0.00  0.00    +0.172 C 
ATOM      5  C   UNL     1      34.906 -20.981 -19.839  0.00  0.00    +0.041 C 
ATOM      6  C   UNL     1      32.902 -20.075 -20.872  0.00  0.00    +0.015 C 
ATOM      7  C   UNL     1      35.727 -20.196 -20.660  0.00  0.00    +0.007 C 
ATOM      8  C   UNL     1      33.718 -19.290 -21.692  0.00  0.00    +0.001 C 
ATOM      9  C   UNL     1      35.107 -19.350 -21.587  0.00  0.00    +0.001 C 
ATOM     10  H   UNL     1      31.906 -21.837 -19.007  0.00  0.00    +0.148 HD
ENDROOT
BRANCH   4  11
ATOM     11  S   UNL     1      33.111 -23.586 -17.092  0.00  0.00    -0.110 S 
BRANCH  11  12
ATOM     12  C   UNL     1      31.539 -22.838 -16.541  0.00  0.00    +0.062 C 
BRANCH  12  13
ATOM     13  C   UNL     1      30.523 -23.868 -16.050  0.00  0.00    +0.038 C 
BRANCH  13  14
ATOM     14  C   UNL     1      29.316 -23.256 -15.349  0.00  0.00    +0.159 C 
BRANCH  14  15
ATOM     15  S   UNL     1      27.973 -23.032 -16.472  0.00  0.00    +0.023 S 
ATOM     16  O   UNL     1      28.377 -21.860 -17.246  0.00  0.00    -0.069 OA
ATOM     17  O   UNL     1      27.950 -24.289 -17.219  0.00  0.00    -0.069 OA
ATOM     18  O   UNL     1      26.829 -22.822 -15.584  0.00  0.00    -0.069 OA
ENDBRANCH  14  15
ENDBRANCH  13  14
ENDBRANCH  12  13
ENDBRANCH  11  12
ENDBRANCH   4  11
TORSDOF 5
ENDMDL
MODEL 2
REMARK VINA RESULT:      -8.0      6.699      7.852
REMARK  Name = 73555170
REMARK  5 active torsions:
REMARK  status: ('A' for Active; 'I' for Inactive)
REMARK    1  A    between atoms: C_4  and  S_11
REMARK    2  A    between atoms: S_11  and  C_12
REMARK    3  A    between atoms: C_12  and  C_13
REMARK    4  A    between atoms: C_13  and  C_14
REMARK    5  A    between atoms: C_14  and  S_15
REMARK                            x       y       z     vdW  Elec       q    Type
REMARK                         _______ _______ _______ _____ _____    ______ ____
ROOT
ATOM      1  S   UNL     1      34.402 -23.555 -15.140  0.00  0.00    -0.082 S 
ATOM      2  N   UNL     1      36.704 -22.590 -15.389  0.00  0.00    -0.317 N 
ATOM      3  C   UNL     1      36.118 -22.403 -16.621  0.00  0.00    +0.052 C 
ATOM      4  C   UNL     1      35.940 -23.181 -14.496  0.00  0.00    +0.172 C 
ATOM      5  C   UNL     1      34.815 -22.883 -16.677  0.00  0.00    +0.041 C 
ATOM      6  C   UNL     1      36.713 -21.801 -17.740  0.00  0.00    +0.015 C 
ATOM      7  C   UNL     1      34.055 -22.782 -17.850  0.00  0.00    +0.007 C 
ATOM      8  C   UNL     1      35.957 -21.700 -18.913  0.00  0.00    +0.001 C 
ATOM      9  C   UNL     1      34.650 -22.182 -18.965  0.00  0.00    +0.001 C 
ATOM     10  H   UNL     1      37.624 -22.303 -15.192  0.00  0.00    +0.148 HD
ENDROOT
BRANCH   4  11
ATOM     11  S   UNL     1      36.465 -23.519 -12.878  0.00  0.00    -0.110 S 
BRANCH  11  12
ATOM     12  C   UNL     1      36.456 -25.344 -12.811  0.00  0.00    +0.062 C 
BRANCH  12  13
ATOM     13  C   UNL     1      37.847 -25.945 -12.614  0.00  0.00    +0.038 C 
BRANCH  13  14
ATOM     14  C   UNL     1      38.983 -25.005 -12.997  0.00  0.00    +0.159 C 
BRANCH  14  15
ATOM     15  S   UNL     1      39.629 -25.402 -14.591  0.00  0.00    +0.023 S 
ATOM     16  O   UNL     1      38.943 -26.649 -14.928  0.00  0.00    -0.069 OA
ATOM     17  O   UNL     1      39.247 -24.247 -15.403  0.00  0.00    -0.069 OA
ATOM     18  O   UNL     1      41.065 -25.534 -14.345  0.00  0.00    -0.069 OA
ENDBRANCH  14  15
ENDBRANCH  13  14
ENDBRANCH  12  13
ENDBRANCH  11  12
ENDBRANCH   4  11
TORSDOF 5
ENDMDL
MODEL 3
REMARK VINA RESULT:      -7.9      2.293      2.996
REMARK  Name = 73555170
REMARK  5 active torsions:
REMARK  status: ('A' for Active; 'I' for Inactive)
REMARK    1  A    between atoms: C_4  and  S_11
REMARK    2  A    between atoms: S_11  and  C_12
REMARK    3  A    between atoms: C_12  and  C_13
REMARK    4  A    between atoms: C_13  and  C_14
REMARK    5  A    between atoms: C_14  and  S_15
REMARK                            x       y       z     vdW  Elec       q    Type
REMARK                         _______ _______ _______ _____ _____    ______ ____
ROOT
ATOM      1  S   UNL     1      35.124 -23.165 -15.151  0.00  0.00    -0.082 S 
ATOM      2  N   UNL     1      32.995 -23.434 -16.450  0.00  0.00    -0.317 N 
ATOM      3  C   UNL     1      33.876 -22.873 -17.347  0.00  0.00    +0.052 C 
ATOM      4  C   UNL     1      33.489 -23.654 -15.250  0.00  0.00    +0.172 C 
ATOM      5  C   UNL     1      35.132 -22.645 -16.798  0.00  0.00    +0.041 C 
ATOM      6  C   UNL     1      33.602 -22.541 -18.682  0.00  0.00    +0.015 C 
ATOM      7  C   UNL     1      36.164 -22.078 -17.558  0.00  0.00    +0.007 C 
ATOM      8  C   UNL     1      34.629 -21.975 -19.444  0.00  0.00    +0.001 C 
ATOM      9  C   UNL     1      35.889 -21.748 -18.891  0.00  0.00    +0.001 C 
ATOM     10  H   UNL     1      32.066 -23.655 -16.689  0.00  0.00    +0.148 HD
ENDROOT
BRANCH   4  11
ATOM     11  S   UNL     1      32.565 -24.353 -13.960  0.00  0.00    -0.110 S 
BRANCH  11  12
ATOM     12  C   UNL     1      31.061 -24.952 -14.803  0.00  0.00    +0.062 C 
BRANCH  12  13
ATOM     13  C   UNL     1      29.883 -23.984 -14.690  0.00  0.00    +0.038 C 
BRANCH  13  14
ATOM     14  C   UNL     1      28.787 -24.226 -15.720  0.00  0.00    +0.159 C 
BRANCH  14  15
ATOM     15  S   UNL     1      28.551 -22.808 -16.745  0.00  0.00    +0.023 S 
ATOM     16  O   UNL     1      27.743 -23.325 -17.848  0.00  0.00    -0.069 OA
ATOM     17  O   UNL     1      27.862 -21.869 -15.861  0.00  0.00    -0.069 OA
ATOM     18  O   UNL     1      29.917 -22.428 -17.105  0.00  0.00    -0.069 OA
ENDBRANCH  14  15
ENDBRANCH  13  14
ENDBRANCH  12  13
ENDBRANCH  11  12
ENDBRANCH   4  11
TORSDOF 5
ENDMDL
MODEL 4
REMARK VINA RESULT:      -7.9      4.837      5.698
REMARK  Name = 73555170
REMARK  5 active torsions:
REMARK  status: ('A' for Active; 'I' for Inactive)
REMARK    1  A    between atoms: C_4  and  S_11
REMARK    2  A    between atoms: S_11  and  C_12
REMARK    3  A    between atoms: C_12  and  C_13
REMARK    4  A    between atoms: C_13  and  C_14
REMARK    5  A    between atoms: C_14  and  S_15
REMARK                            x       y       z     vdW  Elec       q    Type
REMARK                         _______ _______ _______ _____ _____    ______ ____
ROOT
ATOM      1  S   UNL     1      35.550 -22.019 -18.587  0.00  0.00    -0.082 S 
ATOM      2  N   UNL     1      33.084 -21.778 -18.974  0.00  0.00    -0.317 N 
ATOM      3  C   UNL     1      33.659 -20.925 -19.888  0.00  0.00    +0.052 C 
ATOM      4  C   UNL     1      33.935 -22.431 -18.212  0.00  0.00    +0.172 C 
ATOM      5  C   UNL     1      35.047 -20.922 -19.823  0.00  0.00    +0.041 C 
ATOM      6  C   UNL     1      32.980 -20.117 -20.813  0.00  0.00    +0.015 C 
ATOM      7  C   UNL     1      35.812 -20.115 -20.676  0.00  0.00    +0.007 C 
ATOM      8  C   UNL     1      33.739 -19.310 -21.665  0.00  0.00    +0.001 C 
ATOM      9  C   UNL     1      35.132 -19.310 -21.598  0.00  0.00    +0.001 C 
ATOM     10  H   UNL     1      32.109 -21.892 -18.897  0.00  0.00    +0.148 HD
ENDROOT
BRANCH   4  11
ATOM     11  S   UNL     1      33.439 -23.559 -16.992  0.00  0.00    -0.110 S 
BRANCH  11  12
ATOM     12  C   UNL     1      34.750 -23.410 -15.730  0.00  0.00    +0.062 C 
BRANCH  12  13
ATOM     13  C   UNL     1      35.284 -24.761 -15.256  0.00  0.00    +0.038 C 
BRANCH  13  14
ATOM     14  C   UNL     1      36.790 -24.779 -15.022  0.00  0.00    +0.159 C 
BRANCH  14  15
ATOM     15  S   UNL     1      37.395 -26.432 -14.892  0.00  0.00    +0.023 S 
ATOM     16  O   UNL     1      36.999 -26.828 -13.542  0.00  0.00    -0.069 OA
ATOM     17  O   UNL     1      36.695 -27.128 -15.971  0.00  0.00    -0.069 OA
ATOM     18  O   UNL     1      38.836 -26.275 -15.092  0.00  0.00    -0.069 OA
ENDBRANCH  14  15
ENDBRANCH  13  14
ENDBRANCH  12  13
ENDBRANCH  11  12
ENDBRANCH   4  11
TORSDOF 5
ENDMDL
MODEL 5
REMARK VINA RESULT:      -7.9      5.522      7.420
REMARK  Name = 73555170
REMARK  5 active torsions:
REMARK  status: ('A' for Active; 'I' for Inactive)
REMARK    1  A    between atoms: C_4  and  S_11
REMARK    2  A    between atoms: S_11  and  C_12
REMARK    3  A    between atoms: C_12  and  C_13
REMARK    4  A    between atoms: C_13  and  C_14
REMARK    5  A    between atoms: C_14  and  S_15
REMARK                            x       y       z     vdW  Elec       q    Type
REMARK                         _______ _______ _______ _____ _____    ______ ____
ROOT
ATOM      1  S   UNL     1      33.838 -23.155 -17.086  0.00  0.00    -0.082 S 
ATOM      2  N   UNL     1      34.075 -23.140 -14.589  0.00  0.00    -0.317 N 
ATOM      3  C   UNL     1      32.716 -23.188 -14.804  0.00  0.00    +0.052 C 
ATOM      4  C   UNL     1      34.810 -23.117 -15.681  0.00  0.00    +0.172 C 
ATOM      5  C   UNL     1      32.385 -23.203 -16.154  0.00  0.00    +0.041 C 
ATOM      6  C   UNL     1      31.720 -23.219 -13.817  0.00  0.00    +0.015 C 
ATOM      7  C   UNL     1      31.048 -23.250 -16.572  0.00  0.00    +0.007 C 
ATOM      8  C   UNL     1      30.385 -23.266 -14.230  0.00  0.00    +0.001 C 
ATOM      9  C   UNL     1      30.055 -23.282 -15.585  0.00  0.00    +0.001 C 
ATOM     10  H   UNL     1      34.467 -23.124 -13.687  0.00  0.00    +0.148 HD
ENDROOT
BRANCH   4  11
ATOM     11  S   UNL     1      36.543 -23.058 -15.654  0.00  0.00    -0.110 S 
BRANCH  11  12
ATOM     12  C   UNL     1      36.997 -24.577 -14.748  0.00  0.00    +0.062 C 
BRANCH  12  13
ATOM     13  C   UNL     1      37.763 -24.300 -13.456  0.00  0.00    +0.038 C 
BRANCH  13  14
ATOM     14  C   UNL     1      36.973 -23.492 -12.434  0.00  0.00    +0.159 C 
BRANCH  14  15
ATOM     15  S   UNL     1      36.014 -24.545 -11.391  0.00  0.00    +0.023 S 
ATOM     16  O   UNL     1      34.655 -24.371 -11.901  0.00  0.00    -0.069 OA
ATOM     17  O   UNL     1      36.597 -25.865 -11.625  0.00  0.00    -0.069 OA
ATOM     18  O   UNL     1      36.248 -23.994 -10.057  0.00  0.00    -0.069 OA
ENDBRANCH  14  15
ENDBRANCH  13  14
ENDBRANCH  12  13
ENDBRANCH  11  12
ENDBRANCH   4  11
TORSDOF 5
ENDMDL
MODEL 6
REMARK VINA RESULT:      -7.8      4.862      6.663
REMARK  Name = 73555170
REMARK  5 active torsions:
REMARK  status: ('A' for Active; 'I' for Inactive)
REMARK    1  A    between atoms: C_4  and  S_11
REMARK    2  A    between atoms: S_11  and  C_12
REMARK    3  A    between atoms: C_12  and  C_13
REMARK    4  A    between atoms: C_13  and  C_14
REMARK    5  A    between atoms: C_14  and  S_15
REMARK                            x       y       z     vdW  Elec       q    Type
REMARK                         _______ _______ _______ _____ _____    ______ ____
ROOT
ATOM      1  S   UNL     1      34.968 -16.357 -23.308  0.00  0.00    -0.082 S 
ATOM      2  N   UNL     1      34.192 -16.239 -20.925  0.00  0.00    -0.317 N 
ATOM      3  C   UNL     1      33.616 -15.143 -21.528  0.00  0.00    +0.052 C 
ATOM      4  C   UNL     1      34.933 -16.983 -21.718  0.00  0.00    +0.172 C 
ATOM      5  C   UNL     1      33.937 -15.039 -22.876  0.00  0.00    +0.041 C 
ATOM      6  C   UNL     1      32.786 -14.196 -20.910  0.00  0.00    +0.015 C 
ATOM      7  C   UNL     1      33.445 -13.987 -23.660  0.00  0.00    +0.007 C 
ATOM      8  C   UNL     1      32.292 -13.145 -21.689  0.00  0.00    +0.001 C 
ATOM      9  C   UNL     1      32.616 -13.043 -23.041  0.00  0.00    +0.001 C 
ATOM     10  H   UNL     1      34.058 -16.449 -19.973  0.00  0.00    +0.148 HD
ENDROOT
BRANCH   4  11
ATOM     11  S   UNL     1      35.755 -18.411 -21.178  0.00  0.00    -0.110 S 
BRANCH  11  12
ATOM     12  C   UNL     1      34.546 -19.738 -21.513  0.00  0.00    +0.062 C 
BRANCH  12  13
ATOM     13  C   UNL     1      34.002 -20.390 -20.243  0.00  0.00    +0.038 C 
BRANCH  13  14
ATOM     14  C   UNL     1      34.897 -21.489 -19.684  0.00  0.00    +0.159 C 
BRANCH  14  15
ATOM     15  S   UNL     1      33.951 -22.705 -18.822  0.00  0.00    +0.023 S 
ATOM     16  O   UNL     1      34.061 -23.883 -19.680  0.00  0.00    -0.069 OA
ATOM     17  O   UNL     1      34.638 -22.811 -17.536  0.00  0.00    -0.069 OA
ATOM     18  O   UNL     1      32.617 -22.107 -18.761  0.00  0.00    -0.069 OA
ENDBRANCH  14  15
ENDBRANCH  13  14
ENDBRANCH  12  13
ENDBRANCH  11  12
ENDBRANCH   4  11
TORSDOF 5
ENDMDL
MODEL 7
REMARK VINA RESULT:      -7.8      5.071      7.001
REMARK  Name = 73555170
REMARK  5 active torsions:
REMARK  status: ('A' for Active; 'I' for Inactive)
REMARK    1  A    between atoms: C_4  and  S_11
REMARK    2  A    between atoms: S_11  and  C_12
REMARK    3  A    between atoms: C_12  and  C_13
REMARK    4  A    between atoms: C_13  and  C_14
REMARK    5  A    between atoms: C_14  and  S_15
REMARK                            x       y       z     vdW  Elec       q    Type
REMARK                         _______ _______ _______ _____ _____    ______ ____
ROOT
ATOM      1  S   UNL     1      34.582 -17.667 -24.577  0.00  0.00    -0.082 S 
ATOM      2  N   UNL     1      34.851 -16.115 -22.626  0.00  0.00    -0.317 N 
ATOM      3  C   UNL     1      34.277 -15.336 -23.606  0.00  0.00    +0.052 C 
ATOM      4  C   UNL     1      35.077 -17.364 -22.970  0.00  0.00    +0.172 C 
ATOM      5  C   UNL     1      34.048 -16.037 -24.784  0.00  0.00    +0.041 C 
ATOM      6  C   UNL     1      33.936 -13.980 -23.496  0.00  0.00    +0.015 C 
ATOM      7  C   UNL     1      33.470 -15.413 -25.898  0.00  0.00    +0.007 C 
ATOM      8  C   UNL     1      33.359 -13.354 -24.605  0.00  0.00    +0.001 C 
ATOM      9  C   UNL     1      33.130 -14.060 -25.786  0.00  0.00    +0.001 C 
ATOM     10  H   UNL     1      35.074 -15.762 -21.734  0.00  0.00    +0.148 HD
ENDROOT
BRANCH   4  11
ATOM     11  S   UNL     1      35.791 -18.526 -21.899  0.00  0.00    -0.110 S 
BRANCH  11  12
ATOM     12  C   UNL     1      34.463 -19.760 -21.680  0.00  0.00    +0.062 C 
BRANCH  12  13
ATOM     13  C   UNL     1      34.296 -20.213 -20.230  0.00  0.00    +0.038 C 
BRANCH  13  14
ATOM     14  C   UNL     1      35.061 -21.486 -19.891  0.00  0.00    +0.159 C 
BRANCH  14  15
ATOM     15  S   UNL     1      34.055 -22.608 -18.971  0.00  0.00    +0.023 S 
ATOM     16  O   UNL     1      34.744 -22.695 -17.685  0.00  0.00    -0.069 OA
ATOM     17  O   UNL     1      32.757 -21.936 -18.933  0.00  0.00    -0.069 OA
ATOM     18  O   UNL     1      34.095 -23.828 -19.777  0.00  0.00    -0.069 OA
ENDBRANCH  14  15
ENDBRANCH  13  14
ENDBRANCH  12  13
ENDBRANCH  11  12
ENDBRANCH   4  11
TORSDOF 5
ENDMDL
MODEL 8
REMARK VINA RESULT:      -7.7      2.191      2.975
REMARK  Name = 73555170
REMARK  5 active torsions:
REMARK  status: ('A' for Active; 'I' for Inactive)
REMARK    1  A    between atoms: C_4  and  S_11
REMARK    2  A    between atoms: S_11  and  C_12
REMARK    3  A    between atoms: C_12  and  C_13
REMARK    4  A    between atoms: C_13  and  C_14
REMARK    5  A    between atoms: C_14  and  S_15
REMARK                            x       y       z     vdW  Elec       q    Type
REMARK                         _______ _______ _______ _____ _____    ______ ____
ROOT
ATOM      1  S   UNL     1      32.774 -23.274 -17.197  0.00  0.00    -0.082 S 
ATOM      2  N   UNL     1      34.744 -22.995 -15.671  0.00  0.00    -0.317 N 
ATOM      3  C   UNL     1      35.190 -22.541 -16.892  0.00  0.00    +0.052 C 
ATOM      4  C   UNL     1      33.498 -23.416 -15.656  0.00  0.00    +0.172 C 
ATOM      5  C   UNL     1      34.218 -22.619 -17.883  0.00  0.00    +0.041 C 
ATOM      6  C   UNL     1      36.469 -22.041 -17.176  0.00  0.00    +0.015 C 
ATOM      7  C   UNL     1      34.484 -22.203 -19.194  0.00  0.00    +0.007 C 
ATOM      8  C   UNL     1      36.739 -21.625 -18.484  0.00  0.00    +0.001 C 
ATOM      9  C   UNL     1      35.762 -21.704 -19.475  0.00  0.00    +0.001 C 
ATOM     10  H   UNL     1      35.316 -23.003 -14.870  0.00  0.00    +0.148 HD
ENDROOT
BRANCH   4  11
ATOM     11  S   UNL     1      32.724 -24.030 -14.231  0.00  0.00    -0.110 S 
BRANCH  11  12
ATOM     12  C   UNL     1      31.155 -24.709 -14.870  0.00  0.00    +0.062 C 
BRANCH  12  13
ATOM     13  C   UNL     1      29.986 -23.732 -14.754  0.00  0.00    +0.038 C 
BRANCH  13  14
ATOM     14  C   UNL     1      28.746 -24.161 -15.529  0.00  0.00    +0.159 C 
BRANCH  14  15
ATOM     15  S   UNL     1      28.214 -22.891 -16.634  0.00  0.00    +0.023 S 
ATOM     16  O   UNL     1      29.469 -22.278 -17.067  0.00  0.00    -0.069 OA
ATOM     17  O   UNL     1      27.498 -23.631 -17.672  0.00  0.00    -0.069 OA
ATOM     18  O   UNL     1      27.373 -22.045 -15.788  0.00  0.00    -0.069 OA
ENDBRANCH  14  15
ENDBRANCH  13  14
ENDBRANCH  12  13
ENDBRANCH  11  12
ENDBRANCH   4  11
TORSDOF 5
ENDMDL
MODEL 9
REMARK VINA RESULT:      -7.7      6.807      9.035
REMARK  Name = 73555170
REMARK  5 active torsions:
REMARK  status: ('A' for Active; 'I' for Inactive)
REMARK    1  A    between atoms: C_4  and  S_11
REMARK    2  A    between atoms: S_11  and  C_12
REMARK    3  A    between atoms: C_12  and  C_13
REMARK    4  A    between atoms: C_13  and  C_14
REMARK    5  A    between atoms: C_14  and  S_15
REMARK                            x       y       z     vdW  Elec       q    Type
REMARK                         _______ _______ _______ _____ _____    ______ ____
ROOT
ATOM      1  S   UNL     1      33.215 -14.163 -24.707  0.00  0.00    -0.082 S 
ATOM      2  N   UNL     1      33.854 -15.803 -22.919  0.00  0.00    -0.317 N 
ATOM      3  C   UNL     1      33.226 -14.783 -22.241  0.00  0.00    +0.052 C 
ATOM      4  C   UNL     1      33.933 -15.636 -24.222  0.00  0.00    +0.172 C 
ATOM      5  C   UNL     1      32.793 -13.764 -23.080  0.00  0.00    +0.041 C 
ATOM      6  C   UNL     1      33.011 -14.716 -20.856  0.00  0.00    +0.015 C 
ATOM      7  C   UNL     1      32.131 -12.638 -22.572  0.00  0.00    +0.007 C 
ATOM      8  C   UNL     1      32.351 -13.594 -20.345  0.00  0.00    +0.001 C 
ATOM      9  C   UNL     1      31.918 -12.573 -21.191  0.00  0.00    +0.001 C 
ATOM     10  H   UNL     1      34.216 -16.597 -22.464  0.00  0.00    +0.148 HD
ENDROOT
BRANCH   4  11
ATOM     11  S   UNL     1      34.681 -16.790 -25.279  0.00  0.00    -0.110 S 
BRANCH  11  12
ATOM     12  C   UNL     1      34.079 -18.391 -24.639  0.00  0.00    +0.062 C 
BRANCH  12  13
ATOM     13  C   UNL     1      35.104 -19.112 -23.765  0.00  0.00    +0.038 C 
BRANCH  13  14
ATOM     14  C   UNL     1      34.661 -19.291 -22.318  0.00  0.00    +0.159 C 
BRANCH  14  15
ATOM     15  S   UNL     1      35.876 -18.671 -21.198  0.00  0.00    +0.023 S 
ATOM     16  O   UNL     1      37.051 -18.486 -22.048  0.00  0.00    -0.069 OA
ATOM     17  O   UNL     1      35.271 -17.436 -20.701  0.00  0.00    -0.069 OA
ATOM     18  O   UNL     1      35.993 -19.742 -20.208  0.00  0.00    -0.069 OA
ENDBRANCH  14  15
ENDBRANCH  13  14
ENDBRANCH  12  13
ENDBRANCH  11  12
ENDBRANCH   4  11
TORSDOF 5
ENDMDL
