MODEL 1
REMARK VINA RESULT:      -7.7      0.000      0.000
REMARK  Name = 6793
REMARK  2 active torsions:
REMARK  status: ('A' for Active; 'I' for Inactive)
REMARK    1  A    between atoms: C_3  and  S_11
REMARK    2  A    between atoms: C_4  and  N_15
REMARK                            x       y       z     vdW  Elec       q    Type
REMARK                         _______ _______ _______ _____ _____    ______ ____
ROOT
ATOM      1  C   UNL     1      34.495 -16.439 -23.104  0.00  0.00    +0.019 C 
ATOM      2  C   UNL     1      33.916 -15.148 -23.050  0.00  0.00    +0.014 C 
ATOM      3  C   UNL     1      34.965 -17.031 -21.920  0.00  0.00    +0.112 C 
ATOM      4  C   UNL     1      33.445 -14.557 -24.234  0.00  0.00    +0.042 C 
ATOM      5  C   UNL     1      34.585 -17.099 -24.339  0.00  0.00    +0.001 C 
ATOM      6  C   UNL     1      33.825 -14.487 -21.815  0.00  0.00    +0.001 C 
ATOM      7  C   UNL     1      34.867 -16.359 -20.700  0.00  0.00    +0.019 C 
ATOM      8  C   UNL     1      34.297 -15.089 -20.647  0.00  0.00    +0.001 C 
ATOM      9  C   UNL     1      33.544 -15.227 -25.452  0.00  0.00    +0.014 C 
ATOM     10  C   UNL     1      34.112 -16.497 -25.505  0.00  0.00    +0.001 C 
ENDROOT
BRANCH   3  11
ATOM     11  S   UNL     1      35.700 -18.626 -21.879  0.00  0.00    +0.042 S 
ATOM     12  O   UNL     1      36.010 -18.903 -20.301  0.00  0.00    -0.065 OA
ATOM     13  O   UNL     1      34.692 -19.584 -22.297  0.00  0.00    -0.065 OA
ATOM     14  O   UNL     1      36.965 -18.514 -22.581  0.00  0.00    -0.065 OA
ENDBRANCH   3  11
BRANCH   4  15
ATOM     15  N   UNL     1      32.860 -13.267 -24.236  0.00  0.00    -0.357 N 
ATOM     16  H   UNL     1      31.881 -13.170 -24.286  0.00  0.00    +0.142 HD
ATOM     17  H   UNL     1      33.431 -12.467 -24.190  0.00  0.00    +0.142 HD
ENDBRANCH   4  15
TORSDOF 2
ENDMDL
MODEL 2
REMARK VINA RESULT:      -7.5      9.781     11.251
REMARK  Name = 6793
REMARK  2 active torsions:
REMARK  status: ('A' for Active; 'I' for Inactive)
REMARK    1  A    between atoms: C_3  and  S_11
REMARK    2  A    between atoms: C_4  and  N_15
REMARK                            x       y       z     vdW  Elec       q    Type
REMARK                         _______ _______ _______ _____ _____    ______ ____
ROOT
ATOM      1  C   UNL     1      36.169 -23.192 -14.593  0.00  0.00    +0.019 C 
ATOM      2  C   UNL     1      34.969 -23.284 -15.340  0.00  0.00    +0.014 C 
ATOM      3  C   UNL     1      36.185 -23.641 -13.262  0.00  0.00    +0.112 C 
ATOM      4  C   UNL     1      34.953 -22.836 -16.671  0.00  0.00    +0.042 C 
ATOM      5  C   UNL     1      37.315 -22.655 -15.200  0.00  0.00    +0.001 C 
ATOM      6  C   UNL     1      33.823 -23.821 -14.734  0.00  0.00    +0.001 C 
ATOM      7  C   UNL     1      35.035 -24.172 -12.675  0.00  0.00    +0.019 C 
ATOM      8  C   UNL     1      33.856 -24.262 -13.410  0.00  0.00    +0.001 C 
ATOM      9  C   UNL     1      36.102 -22.305 -17.257  0.00  0.00    +0.014 C 
ATOM     10  C   UNL     1      37.282 -22.215 -16.522  0.00  0.00    +0.001 C 
ENDROOT
BRANCH   3  11
ATOM     11  S   UNL     1      37.620 -23.570 -12.250  0.00  0.00    +0.042 S 
ATOM     12  O   UNL     1      37.205 -24.353 -10.881  0.00  0.00    -0.065 OA
ATOM     13  O   UNL     1      38.654 -24.354 -12.901  0.00  0.00    -0.065 OA
ATOM     14  O   UNL     1      37.830 -22.170 -11.931  0.00  0.00    -0.065 OA
ENDBRANCH   3  11
BRANCH   4  15
ATOM     15  N   UNL     1      33.781 -22.903 -17.461  0.00  0.00    -0.357 N 
ATOM     16  H   UNL     1      33.849 -22.924 -18.444  0.00  0.00    +0.142 HD
ATOM     17  H   UNL     1      32.896 -22.927 -17.029  0.00  0.00    +0.142 HD
ENDBRANCH   4  15
TORSDOF 2
ENDMDL
MODEL 3
REMARK VINA RESULT:      -7.5      1.111      2.944
REMARK  Name = 6793
REMARK  2 active torsions:
REMARK  status: ('A' for Active; 'I' for Inactive)
REMARK    1  A    between atoms: C_3  and  S_11
REMARK    2  A    between atoms: C_4  and  N_15
REMARK                            x       y       z     vdW  Elec       q    Type
REMARK                         _______ _______ _______ _____ _____    ______ ____
ROOT
ATOM      1  C   UNL     1      34.065 -16.333 -22.673  0.00  0.00    +0.019 C 
ATOM      2  C   UNL     1      33.917 -15.590 -23.869  0.00  0.00    +0.014 C 
ATOM      3  C   UNL     1      34.514 -17.662 -22.743  0.00  0.00    +0.112 C 
ATOM      4  C   UNL     1      33.469 -14.260 -23.800  0.00  0.00    +0.042 C 
ATOM      5  C   UNL     1      33.762 -15.725 -21.445  0.00  0.00    +0.001 C 
ATOM      6  C   UNL     1      34.220 -16.197 -25.098  0.00  0.00    +0.001 C 
ATOM      7  C   UNL     1      34.811 -18.251 -23.974  0.00  0.00    +0.019 C 
ATOM      8  C   UNL     1      34.665 -17.519 -25.149  0.00  0.00    +0.001 C 
ATOM      9  C   UNL     1      33.171 -13.673 -22.570  0.00  0.00    +0.014 C 
ATOM     10  C   UNL     1      33.318 -14.404 -21.394  0.00  0.00    +0.001 C 
ENDROOT
BRANCH   3  11
ATOM     11  S   UNL     1      34.730 -18.670 -21.320  0.00  0.00    +0.042 S 
ATOM     12  O   UNL     1      35.374 -20.059 -21.885  0.00  0.00    -0.065 OA
ATOM     13  O   UNL     1      35.734 -18.037 -20.483  0.00  0.00    -0.065 OA
ATOM     14  O   UNL     1      33.401 -18.956 -20.812  0.00  0.00    -0.065 OA
ENDBRANCH   3  11
BRANCH   4  15
ATOM     15  N   UNL     1      33.301 -13.473 -24.965  0.00  0.00    -0.357 N 
ATOM     16  H   UNL     1      34.085 -13.211 -25.500  0.00  0.00    +0.142 HD
ATOM     17  H   UNL     1      32.400 -13.186 -25.239  0.00  0.00    +0.142 HD
ENDBRANCH   4  15
TORSDOF 2
ENDMDL
MODEL 4
REMARK VINA RESULT:      -7.5      3.976      5.210
REMARK  Name = 6793
REMARK  2 active torsions:
REMARK  status: ('A' for Active; 'I' for Inactive)
REMARK    1  A    between atoms: C_3  and  S_11
REMARK    2  A    between atoms: C_4  and  N_15
REMARK                            x       y       z     vdW  Elec       q    Type
REMARK                         _______ _______ _______ _____ _____    ______ ____
ROOT
ATOM      1  C   UNL     1      34.144 -15.585 -23.005  0.00  0.00    +0.019 C 
ATOM      2  C   UNL     1      34.758 -16.812 -22.652  0.00  0.00    +0.014 C 
ATOM      3  C   UNL     1      33.825 -15.339 -24.351  0.00  0.00    +0.112 C 
ATOM      4  C   UNL     1      35.076 -17.057 -21.307  0.00  0.00    +0.042 C 
ATOM      5  C   UNL     1      33.868 -14.642 -22.002  0.00  0.00    +0.001 C 
ATOM      6  C   UNL     1      35.034 -17.755 -23.654  0.00  0.00    +0.001 C 
ATOM      7  C   UNL     1      34.108 -16.288 -25.335  0.00  0.00    +0.019 C 
ATOM      8  C   UNL     1      34.710 -17.494 -24.987  0.00  0.00    +0.001 C 
ATOM      9  C   UNL     1      34.794 -16.109 -20.324  0.00  0.00    +0.014 C 
ATOM     10  C   UNL     1      34.190 -14.903 -20.671  0.00  0.00    +0.001 C 
ENDROOT
BRANCH   3  11
ATOM     11  S   UNL     1      33.065 -13.851 -24.893  0.00  0.00    +0.042 S 
ATOM     12  O   UNL     1      34.199 -12.698 -24.672  0.00  0.00    -0.065 OA
ATOM     13  O   UNL     1      32.841 -13.969 -26.323  0.00  0.00    -0.065 OA
ATOM     14  O   UNL     1      31.966 -13.593 -23.981  0.00  0.00    -0.065 OA
ENDBRANCH   3  11
BRANCH   4  15
ATOM     15  N   UNL     1      35.691 -18.266 -20.899  0.00  0.00    -0.357 N 
ATOM     16  H   UNL     1      36.591 -18.496 -21.229  0.00  0.00    +0.142 HD
ATOM     17  H   UNL     1      35.219 -18.878 -20.289  0.00  0.00    +0.142 HD
ENDBRANCH   4  15
TORSDOF 2
ENDMDL
MODEL 5
REMARK VINA RESULT:      -7.4      1.090      2.882
REMARK  Name = 6793
REMARK  2 active torsions:
REMARK  status: ('A' for Active; 'I' for Inactive)
REMARK    1  A    between atoms: C_3  and  S_11
REMARK    2  A    between atoms: C_4  and  N_15
REMARK                            x       y       z     vdW  Elec       q    Type
REMARK                         _______ _______ _______ _____ _____    ______ ____
ROOT
ATOM      1  C   UNL     1      33.856 -16.155 -22.195  0.00  0.00    +0.019 C 
ATOM      2  C   UNL     1      33.576 -15.116 -23.115  0.00  0.00    +0.014 C 
ATOM      3  C   UNL     1      34.470 -17.332 -22.654  0.00  0.00    +0.112 C 
ATOM      4  C   UNL     1      32.963 -13.939 -22.656  0.00  0.00    +0.042 C 
ATOM      5  C   UNL     1      33.513 -15.985 -20.844  0.00  0.00    +0.001 C 
ATOM      6  C   UNL     1      33.918 -15.285 -24.466  0.00  0.00    +0.001 C 
ATOM      7  C   UNL     1      34.802 -17.483 -24.001  0.00  0.00    +0.019 C 
ATOM      8  C   UNL     1      34.528 -16.461 -24.906  0.00  0.00    +0.001 C 
ATOM      9  C   UNL     1      32.629 -13.788 -21.310  0.00  0.00    +0.014 C 
ATOM     10  C   UNL     1      32.905 -14.810 -20.405  0.00  0.00    +0.001 C 
ENDROOT
BRANCH   3  11
ATOM     11  S   UNL     1      34.857 -18.679 -21.595  0.00  0.00    +0.042 S 
ATOM     12  O   UNL     1      33.447 -19.056 -20.864  0.00  0.00    -0.065 OA
ATOM     13  O   UNL     1      35.223 -19.806 -22.435  0.00  0.00    -0.065 OA
ATOM     14  O   UNL     1      35.770 -18.165 -20.590  0.00  0.00    -0.065 OA
ENDBRANCH   3  11
BRANCH   4  15
ATOM     15  N   UNL     1      32.660 -12.870 -23.534  0.00  0.00    -0.357 N 
ATOM     16  H   UNL     1      33.301 -12.132 -23.652  0.00  0.00    +0.142 HD
ATOM     17  H   UNL     1      31.807 -12.864 -24.027  0.00  0.00    +0.142 HD
ENDBRANCH   4  15
TORSDOF 2
ENDMDL
MODEL 6
REMARK VINA RESULT:      -7.4     10.106     11.427
REMARK  Name = 6793
REMARK  2 active torsions:
REMARK  status: ('A' for Active; 'I' for Inactive)
REMARK    1  A    between atoms: C_3  and  S_11
REMARK    2  A    between atoms: C_4  and  N_15
REMARK                            x       y       z     vdW  Elec       q    Type
REMARK                         _______ _______ _______ _____ _____    ______ ____
ROOT
ATOM      1  C   UNL     1      31.355 -23.549 -15.902  0.00  0.00    +0.019 C 
ATOM      2  C   UNL     1      32.411 -23.967 -15.056  0.00  0.00    +0.014 C 
ATOM      3  C   UNL     1      30.027 -23.731 -15.484  0.00  0.00    +0.112 C 
ATOM      4  C   UNL     1      33.739 -23.784 -15.474  0.00  0.00    +0.042 C 
ATOM      5  C   UNL     1      31.660 -22.963 -17.141  0.00  0.00    +0.001 C 
ATOM      6  C   UNL     1      32.107 -24.553 -13.817  0.00  0.00    +0.001 C 
ATOM      7  C   UNL     1      29.743 -24.317 -14.249  0.00  0.00    +0.019 C 
ATOM      8  C   UNL     1      30.781 -24.727 -13.417  0.00  0.00    +0.001 C 
ATOM      9  C   UNL     1      34.023 -23.199 -16.708  0.00  0.00    +0.014 C 
ATOM     10  C   UNL     1      32.984 -22.789 -17.540  0.00  0.00    +0.001 C 
ENDROOT
BRANCH   3  11
ATOM     11  S   UNL     1      28.646 -23.251 -16.459  0.00  0.00    +0.042 S 
ATOM     12  O   UNL     1      27.434 -23.034 -15.389  0.00  0.00    -0.065 OA
ATOM     13  O   UNL     1      28.949 -21.954 -17.038  0.00  0.00    -0.065 OA
ATOM     14  O   UNL     1      28.318 -24.389 -17.298  0.00  0.00    -0.065 OA
ENDBRANCH   3  11
BRANCH   4  15
ATOM     15  N   UNL     1      34.832 -24.185 -14.667  0.00  0.00    -0.357 N 
ATOM     16  H   UNL     1      35.710 -24.358 -15.078  0.00  0.00    +0.142 HD
ATOM     17  H   UNL     1      34.713 -24.292 -13.696  0.00  0.00    +0.142 HD
ENDBRANCH   4  15
TORSDOF 2
ENDMDL
MODEL 7
REMARK VINA RESULT:      -7.4      3.945      4.495
REMARK  Name = 6793
REMARK  2 active torsions:
REMARK  status: ('A' for Active; 'I' for Inactive)
REMARK    1  A    between atoms: C_3  and  S_11
REMARK    2  A    between atoms: C_4  and  N_15
REMARK                            x       y       z     vdW  Elec       q    Type
REMARK                         _______ _______ _______ _____ _____    ______ ____
ROOT
ATOM      1  C   UNL     1      34.279 -15.940 -23.187  0.00  0.00    +0.019 C 
ATOM      2  C   UNL     1      34.798 -16.873 -22.256  0.00  0.00    +0.014 C 
ATOM      3  C   UNL     1      33.810 -14.699 -22.726  0.00  0.00    +0.112 C 
ATOM      4  C   UNL     1      35.268 -18.113 -22.718  0.00  0.00    +0.042 C 
ATOM      5  C   UNL     1      34.247 -16.276 -24.550  0.00  0.00    +0.001 C 
ATOM      6  C   UNL     1      34.831 -16.538 -20.894  0.00  0.00    +0.001 C 
ATOM      7  C   UNL     1      33.850 -14.382 -21.367  0.00  0.00    +0.019 C 
ATOM      8  C   UNL     1      34.360 -15.300 -20.452  0.00  0.00    +0.001 C 
ATOM      9  C   UNL     1      35.228 -18.430 -24.075  0.00  0.00    +0.014 C 
ATOM     10  C   UNL     1      34.718 -17.512 -24.990  0.00  0.00    +0.001 C 
ENDROOT
BRANCH   3  11
ATOM     11  S   UNL     1      33.146 -13.474 -23.797  0.00  0.00    +0.042 S 
ATOM     12  O   UNL     1      32.063 -12.664 -22.885  0.00  0.00    -0.065 OA
ATOM     13  O   UNL     1      34.217 -12.548 -24.121  0.00  0.00    -0.065 OA
ATOM     14  O   UNL     1      32.428 -14.184 -24.840  0.00  0.00    -0.065 OA
ENDBRANCH   3  11
BRANCH   4  15
ATOM     15  N   UNL     1      35.795 -19.083 -21.830  0.00  0.00    -0.357 N 
ATOM     16  H   UNL     1      35.697 -18.965 -20.857  0.00  0.00    +0.142 HD
ATOM     17  H   UNL     1      36.261 -19.874 -22.185  0.00  0.00    +0.142 HD
ENDBRANCH   4  15
TORSDOF 2
ENDMDL
MODEL 8
REMARK VINA RESULT:      -7.4      7.265      8.589
REMARK  Name = 6793
REMARK  2 active torsions:
REMARK  status: ('A' for Active; 'I' for Inactive)
REMARK    1  A    between atoms: C_3  and  S_11
REMARK    2  A    between atoms: C_4  and  N_15
REMARK                            x       y       z     vdW  Elec       q    Type
REMARK                         _______ _______ _______ _____ _____    ______ ____
ROOT
ATOM      1  C   UNL     1      35.192 -22.453 -17.431  0.00  0.00    +0.019 C 
ATOM      2  C   UNL     1      33.976 -22.314 -18.145  0.00  0.00    +0.014 C 
ATOM      3  C   UNL     1      35.183 -23.089 -16.179  0.00  0.00    +0.112 C 
ATOM      4  C   UNL     1      33.985 -21.679 -19.398  0.00  0.00    +0.042 C 
ATOM      5  C   UNL     1      36.377 -21.954 -17.992  0.00  0.00    +0.001 C 
ATOM      6  C   UNL     1      32.790 -22.813 -17.585  0.00  0.00    +0.001 C 
ATOM      7  C   UNL     1      33.994 -23.579 -15.637  0.00  0.00    +0.019 C 
ATOM      8  C   UNL     1      32.799 -23.442 -16.339  0.00  0.00    +0.001 C 
ATOM      9  C   UNL     1      35.173 -21.189 -19.939  0.00  0.00    +0.014 C 
ATOM     10  C   UNL     1      36.368 -21.326 -19.238  0.00  0.00    +0.001 C 
ENDROOT
BRANCH   3  11
ATOM     11  S   UNL     1      36.635 -23.310 -15.214  0.00  0.00    +0.042 S 
ATOM     12  O   UNL     1      36.122 -23.242 -13.666  0.00  0.00    -0.065 OA
ATOM     13  O   UNL     1      37.117 -24.659 -15.450  0.00  0.00    -0.065 OA
ATOM     14  O   UNL     1      37.479 -22.157 -15.467  0.00  0.00    -0.065 OA
ENDBRANCH   3  11
BRANCH   4  15
ATOM     15  N   UNL     1      32.798 -21.512 -20.152  0.00  0.00    -0.357 N 
ATOM     16  H   UNL     1      32.590 -20.638 -20.557  0.00  0.00    +0.142 HD
ATOM     17  H   UNL     1      32.179 -22.269 -20.271  0.00  0.00    +0.142 HD
ENDBRANCH   4  15
TORSDOF 2
ENDMDL
MODEL 9
REMARK VINA RESULT:      -7.3      8.874     10.053
REMARK  Name = 6793
REMARK  2 active torsions:
REMARK  status: ('A' for Active; 'I' for Inactive)
REMARK    1  A    between atoms: C_3  and  S_11
REMARK    2  A    between atoms: C_4  and  N_15
REMARK                            x       y       z     vdW  Elec       q    Type
REMARK                         _______ _______ _______ _____ _____    ______ ____
ROOT
ATOM      1  C   UNL     1      34.852 -22.920 -16.442  0.00  0.00    +0.019 C 
ATOM      2  C   UNL     1      34.533 -23.211 -15.093  0.00  0.00    +0.014 C 
ATOM      3  C   UNL     1      33.822 -22.876 -17.396  0.00  0.00    +0.112 C 
ATOM      4  C   UNL     1      35.563 -23.254 -14.139  0.00  0.00    +0.042 C 
ATOM      5  C   UNL     1      36.189 -22.683 -16.796  0.00  0.00    +0.001 C 
ATOM      6  C   UNL     1      33.196 -23.448 -14.739  0.00  0.00    +0.001 C 
ATOM      7  C   UNL     1      32.497 -23.115 -17.026  0.00  0.00    +0.019 C 
ATOM      8  C   UNL     1      32.185 -23.400 -15.700  0.00  0.00    +0.001 C 
ATOM      9  C   UNL     1      36.887 -23.016 -14.509  0.00  0.00    +0.014 C 
ATOM     10  C   UNL     1      37.199 -22.730 -15.835  0.00  0.00    +0.001 C 
ENDROOT
BRANCH   3  11
ATOM     11  S   UNL     1      34.110 -22.527 -19.094  0.00  0.00    +0.042 S 
ATOM     12  O   UNL     1      32.734 -21.824 -19.616  0.00  0.00    -0.065 OA
ATOM     13  O   UNL     1      35.160 -21.526 -19.163  0.00  0.00    -0.065 OA
ATOM     14  O   UNL     1      34.251 -23.809 -19.760  0.00  0.00    -0.065 OA
ENDBRANCH   3  11
BRANCH   4  15
ATOM     15  N   UNL     1      35.300 -23.542 -12.778  0.00  0.00    -0.357 N 
ATOM     16  H   UNL     1      35.856 -24.198 -12.296  0.00  0.00    +0.142 HD
ATOM     17  H   UNL     1      34.561 -23.087 -12.312  0.00  0.00    +0.142 HD
ENDBRANCH   4  15
TORSDOF 2
ENDMDL
