MODEL 1
REMARK VINA RESULT:      -7.0      0.000      0.000
REMARK  Name = 19844
REMARK  4 active torsions:
REMARK  status: ('A' for Active; 'I' for Inactive)
REMARK    1  A    between atoms: C_1  and  C_12
REMARK    2  A    between atoms: C_2  and  O_7
REMARK    3  A    between atoms: C_4  and  O_9
REMARK    4  A    between atoms: C_12  and  O_13
REMARK                            x       y       z     vdW  Elec       q    Type
REMARK                         _______ _______ _______ _____ _____    ______ ____
ROOT
ATOM      1  C   UNL     1      34.829 -18.669 -22.228  0.00  0.00    +0.079 C 
ATOM      2  C   UNL     1      34.942 -16.586 -23.448  0.00  0.00    +0.172 C 
ATOM      3  C   UNL     1      34.962 -17.280 -22.237  0.00  0.00    +0.046 C 
ATOM      4  C   UNL     1      34.791 -17.280 -24.648  0.00  0.00    +0.168 C 
ATOM      5  C   UNL     1      34.677 -19.363 -23.428  0.00  0.00    +0.010 C 
ATOM      6  C   UNL     1      34.658 -18.668 -24.637  0.00  0.00    +0.040 C 
ENDROOT
BRANCH   2   7
ATOM      7  O   UNL     1      35.073 -15.229 -23.444  0.00  0.00    -0.468 OA
ATOM      8  C   UNL     1      34.327 -14.509 -22.465  0.00  0.00    +0.253 C 
ENDBRANCH   2   7
BRANCH   4   9
ATOM      9  O   UNL     1      34.771 -16.613 -25.835  0.00  0.00    -0.503 OA
ATOM     10  H   UNL     1      35.236 -16.956 -26.573  0.00  0.00    +0.292 HD
ENDBRANCH   4   9
BRANCH   1  12
ATOM     11  O   UNL     1      35.869 -19.627 -20.308  0.00  0.00    -0.245 OA
ATOM     12  C   UNL     1      34.847 -19.392 -20.966  0.00  0.00    +0.341 C 
BRANCH  12  13
ATOM     13  O   UNL     1      33.591 -19.783 -20.593  0.00  0.00    -0.441 OA
ATOM     14  C   UNL     1      33.487 -20.998 -19.844  0.00  0.00    +0.256 C 
ENDBRANCH  12  13
ENDBRANCH   1  12
TORSDOF 4
ENDMDL
MODEL 2
REMARK VINA RESULT:      -7.0      2.092      5.637
REMARK  Name = 19844
REMARK  4 active torsions:
REMARK  status: ('A' for Active; 'I' for Inactive)
REMARK    1  A    between atoms: C_1  and  C_12
REMARK    2  A    between atoms: C_2  and  O_7
REMARK    3  A    between atoms: C_4  and  O_9
REMARK    4  A    between atoms: C_12  and  O_13
REMARK                            x       y       z     vdW  Elec       q    Type
REMARK                         _______ _______ _______ _____ _____    ______ ____
ROOT
ATOM      1  C   UNL     1      34.930 -19.518 -21.130  0.00  0.00    +0.079 C 
ATOM      2  C   UNL     1      34.920 -21.370 -19.578  0.00  0.00    +0.172 C 
ATOM      3  C   UNL     1      35.622 -20.455 -20.364  0.00  0.00    +0.046 C 
ATOM      4  C   UNL     1      33.525 -21.345 -19.558  0.00  0.00    +0.168 C 
ATOM      5  C   UNL     1      33.535 -19.495 -21.110  0.00  0.00    +0.010 C 
ATOM      6  C   UNL     1      32.834 -20.408 -20.324  0.00  0.00    +0.040 C 
ENDROOT
BRANCH   2   7
ATOM      7  O   UNL     1      35.607 -22.281 -18.834  0.00  0.00    -0.468 OA
ATOM      8  C   UNL     1      36.620 -21.776 -17.966  0.00  0.00    +0.253 C 
ENDBRANCH   2   7
BRANCH   4   9
ATOM      9  O   UNL     1      32.829 -22.232 -18.794  0.00  0.00    -0.503 OA
ATOM     10  H   UNL     1      32.070 -21.950 -18.322  0.00  0.00    +0.292 HD
ENDBRANCH   4   9
BRANCH   1  12
ATOM     11  O   UNL     1      36.895 -18.458 -21.967  0.00  0.00    -0.245 OA
ATOM     12  C   UNL     1      35.662 -18.567 -21.952  0.00  0.00    +0.341 C 
BRANCH  12  13
ATOM     13  O   UNL     1      34.818 -17.803 -22.709  0.00  0.00    -0.441 OA
ATOM     14  C   UNL     1      35.019 -16.386 -22.672  0.00  0.00    +0.256 C 
ENDBRANCH  12  13
ENDBRANCH   1  12
TORSDOF 4
ENDMDL
MODEL 3
REMARK VINA RESULT:      -6.5      8.701     10.921
REMARK  Name = 19844
REMARK  4 active torsions:
REMARK  status: ('A' for Active; 'I' for Inactive)
REMARK    1  A    between atoms: C_1  and  C_12
REMARK    2  A    between atoms: C_2  and  O_7
REMARK    3  A    between atoms: C_4  and  O_9
REMARK    4  A    between atoms: C_12  and  O_13
REMARK                            x       y       z     vdW  Elec       q    Type
REMARK                         _______ _______ _______ _____ _____    ______ ____
ROOT
ATOM      1  C   UNL     1      29.458 -23.889 -15.932  0.00  0.00    +0.079 C 
ATOM      2  C   UNL     1      31.779 -23.762 -15.272  0.00  0.00    +0.172 C 
ATOM      3  C   UNL     1      30.739 -23.370 -16.116  0.00  0.00    +0.046 C 
ATOM      4  C   UNL     1      31.537 -24.673 -14.244  0.00  0.00    +0.168 C 
ATOM      5  C   UNL     1      29.216 -24.800 -14.904  0.00  0.00    +0.010 C 
ATOM      6  C   UNL     1      30.255 -25.191 -14.060  0.00  0.00    +0.040 C 
ENDROOT
BRANCH   2   7
ATOM      7  O   UNL     1      33.027 -23.249 -15.462  0.00  0.00    -0.468 OA
ATOM      8  C   UNL     1      33.546 -23.283 -16.790  0.00  0.00    +0.253 C 
ENDBRANCH   2   7
BRANCH   4   9
ATOM      9  O   UNL     1      32.543 -25.062 -13.413  0.00  0.00    -0.503 OA
ATOM     10  H   UNL     1      33.222 -25.625 -13.731  0.00  0.00    +0.292 HD
ENDBRANCH   4   9
BRANCH   1  12
ATOM     11  O   UNL     1      27.830 -24.223 -17.642  0.00  0.00    -0.245 OA
ATOM     12  C   UNL     1      28.375 -23.482 -16.813  0.00  0.00    +0.341 C 
BRANCH  12  13
ATOM     13  O   UNL     1      28.030 -22.173 -16.614  0.00  0.00    -0.441 OA
ATOM     14  C   UNL     1      26.739 -21.924 -16.047  0.00  0.00    +0.256 C 
ENDBRANCH  12  13
ENDBRANCH   1  12
TORSDOF 4
ENDMDL
MODEL 4
REMARK VINA RESULT:      -6.4      2.655      4.211
REMARK  Name = 19844
REMARK  4 active torsions:
REMARK  status: ('A' for Active; 'I' for Inactive)
REMARK    1  A    between atoms: C_1  and  C_12
REMARK    2  A    between atoms: C_2  and  O_7
REMARK    3  A    between atoms: C_4  and  O_9
REMARK    4  A    between atoms: C_12  and  O_13
REMARK                            x       y       z     vdW  Elec       q    Type
REMARK                         _______ _______ _______ _____ _____    ______ ____
ROOT
ATOM      1  C   UNL     1      34.631 -21.320 -19.525  0.00  0.00    +0.079 C 
ATOM      2  C   UNL     1      34.798 -19.459 -21.058  0.00  0.00    +0.172 C 
ATOM      3  C   UNL     1      34.018 -20.363 -20.334  0.00  0.00    +0.046 C 
ATOM      4  C   UNL     1      36.189 -19.512 -20.971  0.00  0.00    +0.168 C 
ATOM      5  C   UNL     1      36.023 -21.374 -19.440  0.00  0.00    +0.010 C 
ATOM      6  C   UNL     1      36.800 -20.470 -20.163  0.00  0.00    +0.040 C 
ENDROOT
BRANCH   2   7
ATOM      7  O   UNL     1      34.188 -18.528 -21.844  0.00  0.00    -0.468 OA
ATOM      8  C   UNL     1      34.054 -17.214 -21.306  0.00  0.00    +0.253 C 
ENDBRANCH   2   7
BRANCH   4   9
ATOM      9  O   UNL     1      36.959 -18.635 -21.672  0.00  0.00    -0.503 OA
ATOM     10  H   UNL     1      36.972 -17.729 -21.435  0.00  0.00    +0.292 HD
ENDBRANCH   4   9
BRANCH   1  12
ATOM     11  O   UNL     1      32.593 -22.387 -18.896  0.00  0.00    -0.245 OA
ATOM     12  C   UNL     1      33.819 -22.264 -18.773  0.00  0.00    +0.341 C 
BRANCH  12  13
ATOM     13  O   UNL     1      34.579 -23.003 -17.909  0.00  0.00    -0.441 OA
ATOM     14  C   UNL     1      33.997 -23.310 -16.637  0.00  0.00    +0.256 C 
ENDBRANCH  12  13
ENDBRANCH   1  12
TORSDOF 4
ENDMDL
MODEL 5
REMARK VINA RESULT:      -6.3      2.252      5.483
REMARK  Name = 19844
REMARK  4 active torsions:
REMARK  status: ('A' for Active; 'I' for Inactive)
REMARK    1  A    between atoms: C_1  and  C_12
REMARK    2  A    between atoms: C_2  and  O_7
REMARK    3  A    between atoms: C_4  and  O_9
REMARK    4  A    between atoms: C_12  and  O_13
REMARK                            x       y       z     vdW  Elec       q    Type
REMARK                         _______ _______ _______ _____ _____    ______ ____
ROOT
ATOM      1  C   UNL     1      34.160 -14.863 -23.179  0.00  0.00    +0.079 C 
ATOM      2  C   UNL     1      35.119 -17.051 -22.818  0.00  0.00    +0.172 C 
ATOM      3  C   UNL     1      34.663 -16.060 -23.688  0.00  0.00    +0.046 C 
ATOM      4  C   UNL     1      35.073 -16.844 -21.439  0.00  0.00    +0.168 C 
ATOM      5  C   UNL     1      34.113 -14.656 -21.800  0.00  0.00    +0.010 C 
ATOM      6  C   UNL     1      34.570 -15.647 -20.931  0.00  0.00    +0.040 C 
ENDROOT
BRANCH   2   7
ATOM      7  O   UNL     1      35.608 -18.217 -23.326  0.00  0.00    -0.468 OA
ATOM      8  C   UNL     1      34.778 -18.919 -24.250  0.00  0.00    +0.253 C 
ENDBRANCH   2   7
BRANCH   4   9
ATOM      9  O   UNL     1      35.516 -17.803 -20.580  0.00  0.00    -0.503 OA
ATOM     10  H   UNL     1      35.169 -18.672 -20.629  0.00  0.00    +0.292 HD
ENDBRANCH   4   9
BRANCH   1  12
ATOM     11  O   UNL     1      34.000 -12.636 -24.018  0.00  0.00    -0.245 OA
ATOM     12  C   UNL     1      33.682 -13.831 -24.086  0.00  0.00    +0.341 C 
BRANCH  12  13
ATOM     13  O   UNL     1      32.834 -14.344 -25.029  0.00  0.00    -0.441 OA
ATOM     14  C   UNL     1      33.073 -13.965 -26.388  0.00  0.00    +0.256 C 
ENDBRANCH  12  13
ENDBRANCH   1  12
TORSDOF 4
ENDMDL
MODEL 6
REMARK VINA RESULT:      -6.3      5.344      9.487
REMARK  Name = 19844
REMARK  4 active torsions:
REMARK  status: ('A' for Active; 'I' for Inactive)
REMARK    1  A    between atoms: C_1  and  C_12
REMARK    2  A    between atoms: C_2  and  O_7
REMARK    3  A    between atoms: C_4  and  O_9
REMARK    4  A    between atoms: C_12  and  O_13
REMARK                            x       y       z     vdW  Elec       q    Type
REMARK                         _______ _______ _______ _____ _____    ______ ____
ROOT
ATOM      1  C   UNL     1      33.270 -23.071 -17.208  0.00  0.00    +0.079 C 
ATOM      2  C   UNL     1      31.874 -23.305 -15.250  0.00  0.00    +0.172 C 
ATOM      3  C   UNL     1      32.003 -23.132 -16.628  0.00  0.00    +0.046 C 
ATOM      4  C   UNL     1      33.012 -23.417 -14.451  0.00  0.00    +0.168 C 
ATOM      5  C   UNL     1      34.408 -23.182 -16.409  0.00  0.00    +0.010 C 
ATOM      6  C   UNL     1      34.279 -23.355 -15.032  0.00  0.00    +0.040 C 
ENDROOT
BRANCH   2   7
ATOM      7  O   UNL     1      30.631 -23.364 -14.695  0.00  0.00    -0.468 OA
ATOM      8  C   UNL     1      29.940 -24.608 -14.784  0.00  0.00    +0.253 C 
ENDBRANCH   2   7
BRANCH   4   9
ATOM      9  O   UNL     1      32.899 -23.587 -13.105  0.00  0.00    -0.503 OA
ATOM     10  H   UNL     1      32.219 -24.129 -12.756  0.00  0.00    +0.292 HD
ENDBRANCH   4   9
BRANCH   1  12
ATOM     11  O   UNL     1      34.089 -23.609 -19.382  0.00  0.00    -0.245 OA
ATOM     12  C   UNL     1      33.404 -22.888 -18.645  0.00  0.00    +0.341 C 
BRANCH  12  13
ATOM     13  O   UNL     1      32.677 -21.816 -19.085  0.00  0.00    -0.441 OA
ATOM     14  C   UNL     1      33.359 -20.870 -19.916  0.00  0.00    +0.256 C 
ENDBRANCH  12  13
ENDBRANCH   1  12
TORSDOF 4
ENDMDL
MODEL 7
REMARK VINA RESULT:      -6.3      2.342      4.098
REMARK  Name = 19844
REMARK  4 active torsions:
REMARK  status: ('A' for Active; 'I' for Inactive)
REMARK    1  A    between atoms: C_1  and  C_12
REMARK    2  A    between atoms: C_2  and  O_7
REMARK    3  A    between atoms: C_4  and  O_9
REMARK    4  A    between atoms: C_12  and  O_13
REMARK                            x       y       z     vdW  Elec       q    Type
REMARK                         _______ _______ _______ _____ _____    ______ ____
ROOT
ATOM      1  C   UNL     1      34.179 -15.850 -21.822  0.00  0.00    +0.079 C 
ATOM      2  C   UNL     1      33.027 -14.235 -23.203  0.00  0.00    +0.172 C 
ATOM      3  C   UNL     1      33.895 -15.321 -23.081  0.00  0.00    +0.046 C 
ATOM      4  C   UNL     1      32.442 -13.679 -22.065  0.00  0.00    +0.168 C 
ATOM      5  C   UNL     1      33.594 -15.293 -20.684  0.00  0.00    +0.010 C 
ATOM      6  C   UNL     1      32.726 -14.208 -20.806  0.00  0.00    +0.040 C 
ENDROOT
BRANCH   2   7
ATOM      7  O   UNL     1      32.758 -13.727 -24.438  0.00  0.00    -0.468 OA
ATOM      8  C   UNL     1      33.055 -14.558 -25.558  0.00  0.00    +0.253 C 
ENDBRANCH   2   7
BRANCH   4   9
ATOM      9  O   UNL     1      31.593 -12.620 -22.171  0.00  0.00    -0.503 OA
ATOM     10  H   UNL     1      31.763 -11.833 -21.693  0.00  0.00    +0.292 HD
ENDBRANCH   4   9
BRANCH   1  12
ATOM     11  O   UNL     1      35.383 -17.523 -20.623  0.00  0.00    -0.245 OA
ATOM     12  C   UNL     1      35.086 -16.980 -21.695  0.00  0.00    +0.341 C 
BRANCH  12  13
ATOM     13  O   UNL     1      35.574 -17.371 -22.912  0.00  0.00    -0.441 OA
ATOM     14  C   UNL     1      35.278 -18.709 -23.327  0.00  0.00    +0.256 C 
ENDBRANCH  12  13
ENDBRANCH   1  12
TORSDOF 4
ENDMDL
MODEL 8
REMARK VINA RESULT:      -6.2      5.351      9.223
REMARK  Name = 19844
REMARK  4 active torsions:
REMARK  status: ('A' for Active; 'I' for Inactive)
REMARK    1  A    between atoms: C_1  and  C_12
REMARK    2  A    between atoms: C_2  and  O_7
REMARK    3  A    between atoms: C_4  and  O_9
REMARK    4  A    between atoms: C_12  and  O_13
REMARK                            x       y       z     vdW  Elec       q    Type
REMARK                         _______ _______ _______ _____ _____    ______ ____
ROOT
ATOM      1  C   UNL     1      33.361 -23.070 -17.247  0.00  0.00    +0.079 C 
ATOM      2  C   UNL     1      34.448 -23.284 -15.100  0.00  0.00    +0.172 C 
ATOM      3  C   UNL     1      34.527 -23.121 -16.483  0.00  0.00    +0.046 C 
ATOM      4  C   UNL     1      33.203 -23.396 -14.481  0.00  0.00    +0.168 C 
ATOM      5  C   UNL     1      32.116 -23.183 -16.628  0.00  0.00    +0.010 C 
ATOM      6  C   UNL     1      32.038 -23.345 -15.245  0.00  0.00    +0.040 C 
ENDROOT
BRANCH   2   7
ATOM      7  O   UNL     1      35.593 -23.332 -14.364  0.00  0.00    -0.468 OA
ATOM      8  C   UNL     1      36.812 -23.541 -15.075  0.00  0.00    +0.253 C 
ENDBRANCH   2   7
BRANCH   4   9
ATOM      9  O   UNL     1      33.113 -23.554 -13.131  0.00  0.00    -0.503 OA
ATOM     10  H   UNL     1      33.474 -22.907 -12.558  0.00  0.00    +0.292 HD
ENDBRANCH   4   9
BRANCH   1  12
ATOM     11  O   UNL     1      34.121 -23.617 -19.440  0.00  0.00    -0.245 OA
ATOM     12  C   UNL     1      33.443 -22.903 -18.690  0.00  0.00    +0.341 C 
BRANCH  12  13
ATOM     13  O   UNL     1      32.677 -21.854 -19.119  0.00  0.00    -0.441 OA
ATOM     14  C   UNL     1      33.338 -20.839 -19.882  0.00  0.00    +0.256 C 
ENDBRANCH  12  13
ENDBRANCH   1  12
TORSDOF 4
ENDMDL
MODEL 9
REMARK VINA RESULT:      -6.2      1.312      2.581
REMARK  Name = 19844
REMARK  4 active torsions:
REMARK  status: ('A' for Active; 'I' for Inactive)
REMARK    1  A    between atoms: C_1  and  C_12
REMARK    2  A    between atoms: C_2  and  O_7
REMARK    3  A    between atoms: C_4  and  O_9
REMARK    4  A    between atoms: C_12  and  O_13
REMARK                            x       y       z     vdW  Elec       q    Type
REMARK                         _______ _______ _______ _____ _____    ______ ____
ROOT
ATOM      1  C   UNL     1      34.941 -17.496 -21.628  0.00  0.00    +0.079 C 
ATOM      2  C   UNL     1      34.807 -15.967 -23.494  0.00  0.00    +0.172 C 
ATOM      3  C   UNL     1      34.994 -17.259 -23.001  0.00  0.00    +0.046 C 
ATOM      4  C   UNL     1      34.566 -14.913 -22.613  0.00  0.00    +0.168 C 
ATOM      5  C   UNL     1      34.701 -16.441 -20.747  0.00  0.00    +0.010 C 
ATOM      6  C   UNL     1      34.513 -15.151 -21.240  0.00  0.00    +0.040 C 
ENDROOT
BRANCH   2   7
ATOM      7  O   UNL     1      34.861 -15.747 -24.837  0.00  0.00    -0.468 OA
ATOM      8  C   UNL     1      33.638 -15.860 -25.562  0.00  0.00    +0.253 C 
ENDBRANCH   2   7
BRANCH   4   9
ATOM      9  O   UNL     1      34.381 -13.648 -23.082  0.00  0.00    -0.503 OA
ATOM     10  H   UNL     1      33.838 -13.047 -22.610  0.00  0.00    +0.292 HD
ENDBRANCH   4   9
BRANCH   1  12
ATOM     11  O   UNL     1      36.068 -19.178 -20.368  0.00  0.00    -0.245 OA
ATOM     12  C   UNL     1      35.139 -18.843 -21.114  0.00  0.00    +0.341 C 
BRANCH  12  13
ATOM     13  O   UNL     1      34.168 -19.697 -21.559  0.00  0.00    -0.441 OA
ATOM     14  C   UNL     1      33.107 -20.001 -20.647  0.00  0.00    +0.256 C 
ENDBRANCH  12  13
ENDBRANCH   1  12
TORSDOF 4
ENDMDL
