MODEL 1
REMARK VINA RESULT:     -10.2      0.000      0.000
REMARK  Name = 1941
REMARK  5 active torsions:
REMARK  status: ('A' for Active; 'I' for Inactive)
REMARK    1  A    between atoms: C_8  and  N_20
REMARK    2  A    between atoms: C_9  and  C_26
REMARK    3  A    between atoms: C_14  and  O_21
REMARK    4  A    between atoms: C_16  and  O_23
REMARK    5  A    between atoms: C_26  and  O_27
REMARK                            x       y       z     vdW  Elec       q    Type
REMARK                         _______ _______ _______ _____ _____    ______ ____
ROOT
ATOM      1  O   UNL     1      35.315 -22.485 -18.179  0.00  0.00    -0.435 OA
ATOM      2  O   UNL     1      33.243 -22.065 -19.307  0.00  0.00    -0.435 OA
ATOM      3  C   UNL     1      34.308 -23.337 -16.079  0.00  0.00    +0.039 C 
ATOM      4  C   UNL     1      33.036 -23.591 -15.490  0.00  0.00    +0.032 C 
ATOM      5  C   UNL     1      35.507 -23.626 -15.314  0.00  0.00    +0.006 C 
ATOM      6  C   UNL     1      34.249 -22.816 -17.389  0.00  0.00    +0.176 C 
ATOM      7  C   UNL     1      35.376 -24.151 -14.001  0.00  0.00    +0.039 C 
ATOM      8  C   UNL     1      32.959 -24.109 -14.196  0.00  0.00    +0.143 C 
ATOM      9  C   UNL     1      31.835 -23.331 -16.189  0.00  0.00    +0.080 C 
ATOM     10  C   UNL     1      33.062 -22.568 -18.055  0.00  0.00    +0.177 C 
ATOM     11  C   UNL     1      34.108 -24.384 -13.464  0.00  0.00    +0.027 C 
ATOM     12  C   UNL     1      31.840 -22.815 -17.482  0.00  0.00    +0.047 C 
ATOM     13  C   UNL     1      36.834 -23.423 -15.773  0.00  0.00    +0.003 C 
ATOM     14  C   UNL     1      36.509 -24.445 -13.223  0.00  0.00    +0.172 C 
ATOM     15  C   UNL     1      34.676 -22.016 -19.378  0.00  0.00    +0.429 C 
ATOM     16  C   UNL     1      37.792 -24.231 -13.714  0.00  0.00    +0.168 C 
ATOM     17  C   UNL     1      37.955 -23.719 -14.991  0.00  0.00    +0.040 C 
ENDROOT
BRANCH   8  20
ATOM     18  O   UNL     1      31.205 -25.516 -13.685  0.00  0.00    -0.126 OA
ATOM     19  O   UNL     1      31.266 -23.536 -12.739  0.00  0.00    -0.126 OA
ATOM     20  N   UNL     1      31.746 -24.402 -13.504  0.00  0.00    +0.058 N 
ENDBRANCH   8  20
BRANCH  14  21
ATOM     21  O   UNL     1      36.386 -24.951 -11.957  0.00  0.00    -0.468 OA
ATOM     22  C   UNL     1      36.232 -24.009 -10.902  0.00  0.00    +0.253 C 
ENDBRANCH  14  21
BRANCH  16  23
ATOM     23  O   UNL     1      38.887 -24.517 -12.959  0.00  0.00    -0.503 OA
ATOM     24  H   UNL     1      39.699 -24.734 -13.373  0.00  0.00    +0.292 HD
ENDBRANCH  16  23
BRANCH   9  26
ATOM     25  O   UNL     1      29.818 -22.730 -15.050  0.00  0.00    -0.245 OA
ATOM     26  C   UNL     1      30.479 -23.551 -15.684  0.00  0.00    +0.338 C 
BRANCH  26  27
ATOM     27  O   UNL     1      30.012 -24.788 -15.996  0.00  0.00    -0.477 OA
ATOM     28  H   UNL     1      30.000 -25.072 -16.889  0.00  0.00    +0.295 HD
ENDBRANCH  26  27
ENDBRANCH   9  26
TORSDOF 5
ENDMDL
MODEL 2
REMARK VINA RESULT:      -9.8      1.401      5.203
REMARK  Name = 1941
REMARK  5 active torsions:
REMARK  status: ('A' for Active; 'I' for Inactive)
REMARK    1  A    between atoms: C_8  and  N_20
REMARK    2  A    between atoms: C_9  and  C_26
REMARK    3  A    between atoms: C_14  and  O_21
REMARK    4  A    between atoms: C_16  and  O_23
REMARK    5  A    between atoms: C_26  and  O_27
REMARK                            x       y       z     vdW  Elec       q    Type
REMARK                         _______ _______ _______ _____ _____    ______ ____
ROOT
ATOM      1  O   UNL     1      37.083 -23.146 -14.711  0.00  0.00    -0.435 OA
ATOM      2  O   UNL     1      36.491 -24.064 -12.579  0.00  0.00    -0.435 OA
ATOM      3  C   UNL     1      34.786 -23.139 -15.646  0.00  0.00    +0.039 C 
ATOM      4  C   UNL     1      33.450 -23.483 -15.290  0.00  0.00    +0.032 C 
ATOM      5  C   UNL     1      35.043 -22.587 -16.963  0.00  0.00    +0.006 C 
ATOM      6  C   UNL     1      35.739 -23.384 -14.633  0.00  0.00    +0.176 C 
ATOM      7  C   UNL     1      33.956 -22.409 -17.858  0.00  0.00    +0.039 C 
ATOM      8  C   UNL     1      32.415 -23.288 -16.206  0.00  0.00    +0.143 C 
ATOM      9  C   UNL     1      33.141 -24.023 -14.020  0.00  0.00    +0.080 C 
ATOM     10  C   UNL     1      35.414 -23.913 -13.397  0.00  0.00    +0.177 C 
ATOM     11  C   UNL     1      32.662 -22.760 -17.468  0.00  0.00    +0.027 C 
ATOM     12  C   UNL     1      34.125 -24.242 -13.062  0.00  0.00    +0.047 C 
ATOM     13  C   UNL     1      36.319 -22.201 -17.449  0.00  0.00    +0.003 C 
ATOM     14  C   UNL     1      34.157 -21.879 -19.144  0.00  0.00    +0.172 C 
ATOM     15  C   UNL     1      37.546 -23.575 -13.420  0.00  0.00    +0.429 C 
ATOM     16  C   UNL     1      35.426 -21.513 -19.580  0.00  0.00    +0.168 C 
ATOM     17  C   UNL     1      36.508 -21.674 -18.731  0.00  0.00    +0.040 C 
ENDROOT
BRANCH   8  20
ATOM     18  O   UNL     1      30.289 -22.689 -15.541  0.00  0.00    -0.126 OA
ATOM     19  O   UNL     1      30.638 -24.758 -16.186  0.00  0.00    -0.126 OA
ATOM     20  N   UNL     1      31.041 -23.595 -15.964  0.00  0.00    +0.058 N 
ENDBRANCH   8  20
BRANCH  14  21
ATOM     21  O   UNL     1      33.111 -21.705 -20.010  0.00  0.00    -0.468 OA
ATOM     22  C   UNL     1      32.737 -20.364 -20.304  0.00  0.00    +0.253 C 
ENDBRANCH  14  21
BRANCH  16  23
ATOM     23  O   UNL     1      35.618 -20.999 -20.825  0.00  0.00    -0.503 OA
ATOM     24  H   UNL     1      36.253 -21.383 -21.397  0.00  0.00    +0.292 HD
ENDBRANCH  16  23
BRANCH   9  26
ATOM     25  O   UNL     1      31.018 -23.668 -12.974  0.00  0.00    -0.245 OA
ATOM     26  C   UNL     1      31.810 -24.412 -13.551  0.00  0.00    +0.338 C 
BRANCH  26  27
ATOM     27  O   UNL     1      31.532 -25.712 -13.826  0.00  0.00    -0.477 OA
ATOM     28  H   UNL     1      32.058 -26.393 -13.455  0.00  0.00    +0.295 HD
ENDBRANCH  26  27
ENDBRANCH   9  26
TORSDOF 5
ENDMDL
MODEL 3
REMARK VINA RESULT:      -9.5      1.876      5.986
REMARK  Name = 1941
REMARK  5 active torsions:
REMARK  status: ('A' for Active; 'I' for Inactive)
REMARK    1  A    between atoms: C_8  and  N_20
REMARK    2  A    between atoms: C_9  and  C_26
REMARK    3  A    between atoms: C_14  and  O_21
REMARK    4  A    between atoms: C_16  and  O_23
REMARK    5  A    between atoms: C_26  and  O_27
REMARK                            x       y       z     vdW  Elec       q    Type
REMARK                         _______ _______ _______ _____ _____    ______ ____
ROOT
ATOM      1  O   UNL     1      35.955 -23.782 -13.852  0.00  0.00    -0.435 OA
ATOM      2  O   UNL     1      37.954 -22.939 -14.867  0.00  0.00    -0.435 OA
ATOM      3  C   UNL     1      34.452 -23.273 -15.757  0.00  0.00    +0.039 C 
ATOM      4  C   UNL     1      34.482 -22.707 -17.065  0.00  0.00    +0.032 C 
ATOM      5  C   UNL     1      33.190 -23.757 -15.230  0.00  0.00    +0.006 C 
ATOM      6  C   UNL     1      35.704 -23.297 -15.105  0.00  0.00    +0.176 C 
ATOM      7  C   UNL     1      32.023 -23.652 -16.032  0.00  0.00    +0.039 C 
ATOM      8  C   UNL     1      33.308 -22.626 -17.815  0.00  0.00    +0.143 C 
ATOM      9  C   UNL     1      35.684 -22.220 -17.630  0.00  0.00    +0.080 C 
ATOM     10  C   UNL     1      36.867 -22.815 -15.677  0.00  0.00    +0.177 C 
ATOM     11  C   UNL     1      32.099 -23.090 -17.308  0.00  0.00    +0.027 C 
ATOM     12  C   UNL     1      36.889 -22.271 -16.936  0.00  0.00    +0.047 C 
ATOM     13  C   UNL     1      33.014 -24.342 -13.949  0.00  0.00    +0.003 C 
ATOM     14  C   UNL     1      30.779 -24.107 -15.563  0.00  0.00    +0.172 C 
ATOM     15  C   UNL     1      37.367 -23.554 -13.711  0.00  0.00    +0.429 C 
ATOM     16  C   UNL     1      30.652 -24.675 -14.300  0.00  0.00    +0.168 C 
ATOM     17  C   UNL     1      31.771 -24.792 -13.492  0.00  0.00    +0.040 C 
ENDROOT
BRANCH   8  20
ATOM     18  O   UNL     1      33.441 -22.829 -20.108  0.00  0.00    -0.126 OA
ATOM     19  O   UNL     1      32.908 -20.876 -19.260  0.00  0.00    -0.126 OA
ATOM     20  N   UNL     1      33.214 -22.081 -19.131  0.00  0.00    +0.058 N 
ENDBRANCH   8  20
BRANCH  14  21
ATOM     21  O   UNL     1      29.652 -24.007 -16.333  0.00  0.00    -0.468 OA
ATOM     22  C   UNL     1      28.863 -22.835 -16.166  0.00  0.00    +0.253 C 
ENDBRANCH  14  21
BRANCH  16  23
ATOM     23  O   UNL     1      29.447 -25.115 -13.848  0.00  0.00    -0.503 OA
ATOM     24  H   UNL     1      29.404 -25.688 -13.108  0.00  0.00    +0.292 HD
ENDBRANCH  16  23
BRANCH   9  26
ATOM     25  O   UNL     1      35.819 -20.414 -19.193  0.00  0.00    -0.245 OA
ATOM     26  C   UNL     1      35.830 -21.621 -18.957  0.00  0.00    +0.338 C 
BRANCH  26  27
ATOM     27  O   UNL     1      35.985 -22.559 -19.927  0.00  0.00    -0.477 OA
ATOM     28  H   UNL     1      36.594 -23.260 -19.807  0.00  0.00    +0.295 HD
ENDBRANCH  26  27
ENDBRANCH   9  26
TORSDOF 5
ENDMDL
MODEL 4
REMARK VINA RESULT:      -9.1      1.467      5.308
REMARK  Name = 1941
REMARK  5 active torsions:
REMARK  status: ('A' for Active; 'I' for Inactive)
REMARK    1  A    between atoms: C_8  and  N_20
REMARK    2  A    between atoms: C_9  and  C_26
REMARK    3  A    between atoms: C_14  and  O_21
REMARK    4  A    between atoms: C_16  and  O_23
REMARK    5  A    between atoms: C_26  and  O_27
REMARK                            x       y       z     vdW  Elec       q    Type
REMARK                         _______ _______ _______ _____ _____    ______ ____
ROOT
ATOM      1  O   UNL     1      34.801 -22.142 -18.083  0.00  0.00    -0.435 OA
ATOM      2  O   UNL     1      37.167 -21.774 -18.006  0.00  0.00    -0.435 OA
ATOM      3  C   UNL     1      34.612 -23.142 -15.822  0.00  0.00    +0.039 C 
ATOM      4  C   UNL     1      35.417 -23.487 -14.698  0.00  0.00    +0.032 C 
ATOM      5  C   UNL     1      33.185 -23.405 -15.772  0.00  0.00    +0.006 C 
ATOM      6  C   UNL     1      35.326 -22.563 -16.893  0.00  0.00    +0.176 C 
ATOM      7  C   UNL     1      32.636 -23.998 -14.605  0.00  0.00    +0.039 C 
ATOM      8  C   UNL     1      34.829 -24.068 -13.573  0.00  0.00    +0.143 C 
ATOM      9  C   UNL     1      36.812 -23.253 -14.691  0.00  0.00    +0.080 C 
ATOM     10  C   UNL     1      36.691 -22.343 -16.865  0.00  0.00    +0.177 C 
ATOM     11  C   UNL     1      33.463 -24.319 -13.526  0.00  0.00    +0.027 C 
ATOM     12  C   UNL     1      37.460 -22.677 -15.779  0.00  0.00    +0.047 C 
ATOM     13  C   UNL     1      32.267 -23.114 -16.813  0.00  0.00    +0.003 C 
ATOM     14  C   UNL     1      31.260 -24.271 -14.511  0.00  0.00    +0.172 C 
ATOM     15  C   UNL     1      35.960 -21.650 -18.774  0.00  0.00    +0.429 C 
ATOM     16  C   UNL     1      30.396 -23.969 -15.557  0.00  0.00    +0.168 C 
ATOM     17  C   UNL     1      30.900 -23.389 -16.710  0.00  0.00    +0.040 C 
ENDROOT
BRANCH   8  20
ATOM     18  O   UNL     1      35.562 -23.663 -11.424  0.00  0.00    -0.126 OA
ATOM     19  O   UNL     1      36.089 -25.574 -12.365  0.00  0.00    -0.126 OA
ATOM     20  N   UNL     1      35.531 -24.455 -12.392  0.00  0.00    +0.058 N 
ENDBRANCH   8  20
BRANCH  14  21
ATOM     21  O   UNL     1      30.727 -24.843 -13.388  0.00  0.00    -0.468 OA
ATOM     22  C   UNL     1      30.249 -23.957 -12.382  0.00  0.00    +0.253 C 
ENDBRANCH  14  21
BRANCH  16  23
ATOM     23  O   UNL     1      29.064 -24.233 -15.464  0.00  0.00    -0.503 OA
ATOM     24  H   UNL     1      28.770 -25.108 -15.303  0.00  0.00    +0.292 HD
ENDBRANCH  16  23
BRANCH   9  26
ATOM     25  O   UNL     1      37.990 -22.821 -12.653  0.00  0.00    -0.245 OA
ATOM     26  C   UNL     1      37.732 -23.567 -13.597  0.00  0.00    +0.338 C 
BRANCH  26  27
ATOM     27  O   UNL     1      38.286 -24.799 -13.733  0.00  0.00    -0.477 OA
ATOM     28  H   UNL     1      38.616 -25.075 -14.565  0.00  0.00    +0.295 HD
ENDBRANCH  26  27
ENDBRANCH   9  26
TORSDOF 5
ENDMDL
MODEL 5
REMARK VINA RESULT:      -8.8      2.160      5.968
REMARK  Name = 1941
REMARK  5 active torsions:
REMARK  status: ('A' for Active; 'I' for Inactive)
REMARK    1  A    between atoms: C_8  and  N_20
REMARK    2  A    between atoms: C_9  and  C_26
REMARK    3  A    between atoms: C_14  and  O_21
REMARK    4  A    between atoms: C_16  and  O_23
REMARK    5  A    between atoms: C_26  and  O_27
REMARK                            x       y       z     vdW  Elec       q    Type
REMARK                         _______ _______ _______ _____ _____    ______ ____
ROOT
ATOM      1  O   UNL     1      30.956 -22.858 -17.049  0.00  0.00    -0.435 OA
ATOM      2  O   UNL     1      30.572 -23.995 -14.975  0.00  0.00    -0.435 OA
ATOM      3  C   UNL     1      33.429 -22.816 -16.876  0.00  0.00    +0.039 C 
ATOM      4  C   UNL     1      34.481 -23.227 -16.007  0.00  0.00    +0.032 C 
ATOM      5  C   UNL     1      33.765 -22.133 -18.112  0.00  0.00    +0.006 C 
ATOM      6  C   UNL     1      32.135 -23.135 -16.414  0.00  0.00    +0.176 C 
ATOM      7  C   UNL     1      35.131 -21.894 -18.417  0.00  0.00    +0.039 C 
ATOM      8  C   UNL     1      35.809 -22.970 -16.352  0.00  0.00    +0.143 C 
ATOM      9  C   UNL     1      34.213 -23.897 -14.791  0.00  0.00    +0.080 C 
ATOM     10  C   UNL     1      31.895 -23.792 -15.221  0.00  0.00    +0.177 C 
ATOM     11  C   UNL     1      36.130 -22.315 -17.536  0.00  0.00    +0.027 C 
ATOM     12  C   UNL     1      32.913 -24.185 -14.388  0.00  0.00    +0.047 C 
ATOM     13  C   UNL     1      32.824 -21.670 -19.068  0.00  0.00    +0.003 C 
ATOM     14  C   UNL     1      35.503 -21.236 -19.602  0.00  0.00    +0.172 C 
ATOM     15  C   UNL     1      29.983 -23.400 -16.141  0.00  0.00    +0.429 C 
ATOM     16  C   UNL     1      34.547 -20.799 -20.511  0.00  0.00    +0.168 C 
ATOM     17  C   UNL     1      33.205 -21.017 -20.244  0.00  0.00    +0.040 C 
ENDROOT
BRANCH   8  20
ATOM     18  O   UNL     1      37.391 -24.496 -15.655  0.00  0.00    -0.126 OA
ATOM     19  O   UNL     1      37.450 -22.471 -14.811  0.00  0.00    -0.126 OA
ATOM     20  N   UNL     1      36.943 -23.332 -15.564  0.00  0.00    +0.058 N 
ENDBRANCH   8  20
BRANCH  14  21
ATOM     21  O   UNL     1      36.819 -21.004 -19.899  0.00  0.00    -0.468 OA
ATOM     22  C   UNL     1      37.190 -19.655 -20.156  0.00  0.00    +0.253 C 
ENDBRANCH  14  21
BRANCH  16  23
ATOM     23  O   UNL     1      34.910 -20.163 -21.658  0.00  0.00    -0.503 OA
ATOM     24  H   UNL     1      35.812 -19.975 -21.825  0.00  0.00    +0.292 HD
ENDBRANCH  16  23
BRANCH   9  26
ATOM     25  O   UNL     1      35.684 -23.683 -12.915  0.00  0.00    -0.245 OA
ATOM     26  C   UNL     1      35.210 -24.361 -13.826  0.00  0.00    +0.338 C 
BRANCH  26  27
ATOM     27  O   UNL     1      35.569 -25.653 -14.043  0.00  0.00    -0.477 OA
ATOM     28  H   UNL     1      35.650 -25.976 -14.919  0.00  0.00    +0.295 HD
ENDBRANCH  26  27
ENDBRANCH   9  26
TORSDOF 5
ENDMDL
MODEL 6
REMARK VINA RESULT:      -7.9      1.671      4.324
REMARK  Name = 1941
REMARK  5 active torsions:
REMARK  status: ('A' for Active; 'I' for Inactive)
REMARK    1  A    between atoms: C_8  and  N_20
REMARK    2  A    between atoms: C_9  and  C_26
REMARK    3  A    between atoms: C_14  and  O_21
REMARK    4  A    between atoms: C_16  and  O_23
REMARK    5  A    between atoms: C_26  and  O_27
REMARK                            x       y       z     vdW  Elec       q    Type
REMARK                         _______ _______ _______ _____ _____    ______ ____
ROOT
ATOM      1  O   UNL     1      31.666 -24.155 -13.976  0.00  0.00    -0.435 OA
ATOM      2  O   UNL     1      29.959 -23.558 -15.549  0.00  0.00    -0.435 OA
ATOM      3  C   UNL     1      33.584 -23.475 -15.393  0.00  0.00    +0.039 C 
ATOM      4  C   UNL     1      33.866 -22.919 -16.674  0.00  0.00    +0.032 C 
ATOM      5  C   UNL     1      34.688 -23.802 -14.510  0.00  0.00    +0.006 C 
ATOM      6  C   UNL     1      32.209 -23.646 -15.123  0.00  0.00    +0.176 C 
ATOM      7  C   UNL     1      36.016 -23.561 -14.951  0.00  0.00    +0.039 C 
ATOM      8  C   UNL     1      35.189 -22.700 -17.061  0.00  0.00    +0.143 C 
ATOM      9  C   UNL     1      32.830 -22.580 -17.575  0.00  0.00    +0.080 C 
ATOM     10  C   UNL     1      31.211 -23.306 -16.019  0.00  0.00    +0.177 C 
ATOM     11  C   UNL     1      36.246 -23.015 -16.216  0.00  0.00    +0.027 C 
ATOM     12  C   UNL     1      31.490 -22.772 -17.251  0.00  0.00    +0.047 C 
ATOM     13  C   UNL     1      34.555 -24.358 -13.211  0.00  0.00    +0.003 C 
ATOM     14  C   UNL     1      37.117 -23.863 -14.131  0.00  0.00    +0.172 C 
ATOM     15  C   UNL     1      30.256 -24.096 -14.251  0.00  0.00    +0.429 C 
ATOM     16  C   UNL     1      36.940 -24.407 -12.863  0.00  0.00    +0.168 C 
ATOM     17  C   UNL     1      35.657 -24.655 -12.403  0.00  0.00    +0.040 C 
ENDROOT
BRANCH   8  20
ATOM     18  O   UNL     1      36.083 -21.001 -18.339  0.00  0.00    -0.126 OA
ATOM     19  O   UNL     1      35.445 -22.842 -19.348  0.00  0.00    -0.126 OA
ATOM     20  N   UNL     1      35.593 -22.152 -18.316  0.00  0.00    +0.058 N 
ENDBRANCH   8  20
BRANCH  14  21
ATOM     21  O   UNL     1      38.398 -23.632 -14.552  0.00  0.00    -0.468 OA
ATOM     22  C   UNL     1      39.117 -24.748 -15.063  0.00  0.00    +0.253 C 
ENDBRANCH  14  21
BRANCH  16  23
ATOM     23  O   UNL     1      38.007 -24.698 -12.071  0.00  0.00    -0.503 OA
ATOM     24  H   UNL     1      38.518 -25.466 -12.236  0.00  0.00    +0.292 HD
ENDBRANCH  16  23
BRANCH   9  26
ATOM     25  O   UNL     1      32.934 -20.809 -19.182  0.00  0.00    -0.245 OA
ATOM     26  C   UNL     1      33.003 -22.007 -18.911  0.00  0.00    +0.338 C 
BRANCH  26  27
ATOM     27  O   UNL     1      33.256 -22.960 -19.846  0.00  0.00    -0.477 OA
ATOM     28  H   UNL     1      34.103 -23.356 -19.893  0.00  0.00    +0.295 HD
ENDBRANCH  26  27
ENDBRANCH   9  26
TORSDOF 5
ENDMDL
MODEL 7
REMARK VINA RESULT:      -7.2     10.119     12.894
REMARK  Name = 1941
REMARK  5 active torsions:
REMARK  status: ('A' for Active; 'I' for Inactive)
REMARK    1  A    between atoms: C_8  and  N_20
REMARK    2  A    between atoms: C_9  and  C_26
REMARK    3  A    between atoms: C_14  and  O_21
REMARK    4  A    between atoms: C_16  and  O_23
REMARK    5  A    between atoms: C_26  and  O_27
REMARK                            x       y       z     vdW  Elec       q    Type
REMARK                         _______ _______ _______ _____ _____    ______ ____
ROOT
ATOM      1  O   UNL     1      32.835 -13.046 -25.940  0.00  0.00    -0.435 OA
ATOM      2  O   UNL     1      33.799 -14.885 -27.134  0.00  0.00    -0.435 OA
ATOM      3  C   UNL     1      33.101 -14.027 -23.678  0.00  0.00    +0.039 C 
ATOM      4  C   UNL     1      33.596 -15.198 -23.035  0.00  0.00    +0.032 C 
ATOM      5  C   UNL     1      32.535 -12.966 -22.866  0.00  0.00    +0.006 C 
ATOM      6  C   UNL     1      33.227 -14.038 -25.084  0.00  0.00    +0.176 C 
ATOM      7  C   UNL     1      32.490 -13.128 -21.456  0.00  0.00    +0.039 C 
ATOM      8  C   UNL     1      33.530 -15.310 -21.646  0.00  0.00    +0.143 C 
ATOM      9  C   UNL     1      34.159 -16.263 -23.776  0.00  0.00    +0.080 C 
ATOM     10  C   UNL     1      33.781 -15.090 -25.789  0.00  0.00    +0.177 C 
ATOM     11  C   UNL     1      32.987 -14.294 -20.869  0.00  0.00    +0.027 C 
ATOM     12  C   UNL     1      34.256 -16.216 -25.163  0.00  0.00    +0.047 C 
ATOM     13  C   UNL     1      32.008 -11.748 -23.369  0.00  0.00    +0.003 C 
ATOM     14  C   UNL     1      31.950 -12.127 -20.630  0.00  0.00    +0.172 C 
ATOM     15  C   UNL     1      33.197 -13.585 -27.222  0.00  0.00    +0.429 C 
ATOM     16  C   UNL     1      31.444 -10.949 -21.166  0.00  0.00    +0.168 C 
ATOM     17  C   UNL     1      31.473 -10.759 -22.538  0.00  0.00    +0.040 C 
ENDROOT
BRANCH   8  20
ATOM     18  O   UNL     1      35.159 -16.416 -20.445  0.00  0.00    -0.126 OA
ATOM     19  O   UNL     1      33.211 -17.391 -20.707  0.00  0.00    -0.126 OA
ATOM     20  N   UNL     1      33.991 -16.432 -20.893  0.00  0.00    +0.058 N 
ENDBRANCH   8  20
BRANCH  14  21
ATOM     21  O   UNL     1      31.905 -12.280 -19.270  0.00  0.00    -0.468 OA
ATOM     22  C   UNL     1      31.528 -11.139 -18.509  0.00  0.00    +0.253 C 
ENDBRANCH  14  21
BRANCH  16  23
ATOM     23  O   UNL     1      30.923  -9.981 -20.364  0.00  0.00    -0.503 OA
ATOM     24  H   UNL     1      30.003  -9.962 -20.190  0.00  0.00    +0.292 HD
ENDBRANCH  16  23
BRANCH   9  26
ATOM     25  O   UNL     1      34.060 -18.553 -23.090  0.00  0.00    -0.245 OA
ATOM     26  C   UNL     1      34.695 -17.508 -23.224  0.00  0.00    +0.338 C 
BRANCH  26  27
ATOM     27  O   UNL     1      35.999 -17.388 -22.865  0.00  0.00    -0.477 OA
ATOM     28  H   UNL     1      36.674 -17.664 -23.453  0.00  0.00    +0.295 HD
ENDBRANCH  26  27
ENDBRANCH   9  26
TORSDOF 5
ENDMDL
