MODEL 1
REMARK VINA RESULT:      -7.7      0.000      0.000
REMARK  Name = 460516
REMARK  6 active torsions:
REMARK  status: ('A' for Active; 'I' for Inactive)
REMARK    1  A    between atoms: C3*_2  and  O3*_18
REMARK    2  A    between atoms: C2*_3  and  O2*_16
REMARK    3  A    between atoms: C4*_4  and  C5*_20
REMARK    4  A    between atoms: C1*_5  and  N_6
REMARK    5  A    between atoms: C_10  and  C_13
REMARK    6  A    between atoms: C5*_20  and  O5*_21
REMARK                            x       y       z     vdW  Elec       q    Type
REMARK                         _______ _______ _______ _____ _____    ______ ____
ROOT
ATOM      1  O4* UNL     1      37.405 -23.754 -14.412  0.00  0.00    -0.332 OA
ATOM      2  C3* UNL     1      38.180 -26.000 -14.266  0.00  0.00    +0.171 C 
ATOM      3  C2* UNL     1      36.750 -26.002 -14.767  0.00  0.00    +0.188 C 
ATOM      4  C4* UNL     1      38.315 -24.601 -13.673  0.00  0.00    +0.175 C 
ATOM      5  C1* UNL     1      36.609 -24.578 -15.286  0.00  0.00    +0.240 C 
ENDROOT
BRANCH   5   6
ATOM      6  N   UNL     1      35.233 -24.087 -15.310  0.00  0.00    -0.172 N 
ATOM      7  N   UNL     1      34.622 -23.810 -16.472  0.00  0.00    -0.120 NA
ATOM      8  N   UNL     1      33.253 -23.413 -14.684  0.00  0.00    -0.191 NA
ATOM      9  C   UNL     1      34.414 -23.847 -14.253  0.00  0.00    +0.250 C 
ATOM     10  C   UNL     1      33.427 -23.406 -16.038  0.00  0.00    +0.104 C 
BRANCH  10  13
ATOM     11  O   UNL     1      31.189 -22.930 -16.635  0.00  0.00    -0.259 OA
ATOM     12  N   UNL     1      32.782 -22.620 -18.237  0.00  0.00    -0.317 N 
ATOM     13  C   UNL     1      32.399 -22.993 -16.945  0.00  0.00    +0.307 C 
ATOM     14  H   UNL     1      32.102 -22.330 -18.888  0.00  0.00    +0.146 HD
ATOM     15  H   UNL     1      33.731 -22.647 -18.496  0.00  0.00    +0.146 HD
ENDBRANCH  10  13
ENDBRANCH   5   6
BRANCH   3  16
ATOM     16  O2* UNL     1      36.521 -26.957 -15.783  0.00  0.00    -0.378 OA
ATOM     17  H2* UNL     1      36.568 -27.849 -15.404  0.00  0.00    +0.211 HD
ENDBRANCH   3  16
BRANCH   2  18
ATOM     18  O3* UNL     1      39.073 -26.118 -15.373  0.00  0.00    -0.379 OA
ATOM     19  H3* UNL     1      38.856 -26.916 -15.880  0.00  0.00    +0.211 HD
ENDBRANCH   2  18
BRANCH   4  20
ATOM     20  C5* UNL     1      37.934 -24.542 -12.199  0.00  0.00    +0.169 C 
BRANCH  20  21
ATOM     21  O5* UNL     1      38.530 -23.393 -11.623  0.00  0.00    -0.379 OA
ATOM     22  H5* UNL     1      39.046 -23.652 -10.843  0.00  0.00    +0.211 HD
ENDBRANCH  20  21
ENDBRANCH   4  20
TORSDOF 6
ENDMDL
MODEL 2
REMARK VINA RESULT:      -7.7      2.067      2.925
REMARK  Name = 460516
REMARK  6 active torsions:
REMARK  status: ('A' for Active; 'I' for Inactive)
REMARK    1  A    between atoms: C3*_2  and  O3*_18
REMARK    2  A    between atoms: C2*_3  and  O2*_16
REMARK    3  A    between atoms: C4*_4  and  C5*_20
REMARK    4  A    between atoms: C1*_5  and  N_6
REMARK    5  A    between atoms: C_10  and  C_13
REMARK    6  A    between atoms: C5*_20  and  O5*_21
REMARK                            x       y       z     vdW  Elec       q    Type
REMARK                         _______ _______ _______ _____ _____    ______ ____
ROOT
ATOM      1  O4* UNL     1      35.950 -25.262 -15.211  0.00  0.00    -0.332 OA
ATOM      2  C3* UNL     1      36.421 -24.524 -12.998  0.00  0.00    +0.171 C 
ATOM      3  C2* UNL     1      35.224 -23.762 -13.529  0.00  0.00    +0.188 C 
ATOM      4  C4* UNL     1      37.037 -25.092 -14.273  0.00  0.00    +0.175 C 
ATOM      5  C1* UNL     1      34.758 -24.676 -14.653  0.00  0.00    +0.240 C 
ENDROOT
BRANCH   5   6
ATOM      6  N   UNL     1      34.006 -23.992 -15.703  0.00  0.00    -0.172 N 
ATOM      7  N   UNL     1      34.592 -23.655 -16.862  0.00  0.00    -0.120 NA
ATOM      8  N   UNL     1      32.393 -23.026 -16.816  0.00  0.00    -0.191 NA
ATOM      9  C   UNL     1      32.700 -23.614 -15.683  0.00  0.00    +0.250 C 
ATOM     10  C   UNL     1      33.575 -23.074 -17.500  0.00  0.00    +0.104 C 
BRANCH  10  13
ATOM     11  O   UNL     1      34.653 -22.856 -19.592  0.00  0.00    -0.259 OA
ATOM     12  N   UNL     1      32.761 -21.628 -19.264  0.00  0.00    -0.317 N 
ATOM     13  C   UNL     1      33.724 -22.537 -18.818  0.00  0.00    +0.307 C 
ATOM     14  H   UNL     1      32.831 -21.238 -20.166  0.00  0.00    +0.146 HD
ATOM     15  H   UNL     1      32.012 -21.377 -18.676  0.00  0.00    +0.146 HD
ENDBRANCH  10  13
ENDBRANCH   5   6
BRANCH   3  16
ATOM     16  O2* UNL     1      34.217 -23.567 -12.557  0.00  0.00    -0.378 OA
ATOM     17  H2* UNL     1      33.681 -24.371 -12.481  0.00  0.00    +0.211 HD
ENDBRANCH   3  16
BRANCH   2  18
ATOM     18  O3* UNL     1      35.973 -25.606 -12.182  0.00  0.00    -0.379 OA
ATOM     19  H3* UNL     1      36.733 -26.007 -11.731  0.00  0.00    +0.211 HD
ENDBRANCH   2  18
BRANCH   4  20
ATOM     20  C5* UNL     1      38.069 -24.163 -14.899  0.00  0.00    +0.169 C 
BRANCH  20  21
ATOM     21  O5* UNL     1      37.531 -23.627 -16.095  0.00  0.00    -0.379 OA
ATOM     22  H5* UNL     1      38.247 -23.471 -16.730  0.00  0.00    +0.211 HD
ENDBRANCH  20  21
ENDBRANCH   4  20
TORSDOF 6
ENDMDL
MODEL 3
REMARK VINA RESULT:      -7.6      1.797      1.964
REMARK  Name = 460516
REMARK  6 active torsions:
REMARK  status: ('A' for Active; 'I' for Inactive)
REMARK    1  A    between atoms: C3*_2  and  O3*_18
REMARK    2  A    between atoms: C2*_3  and  O2*_16
REMARK    3  A    between atoms: C4*_4  and  C5*_20
REMARK    4  A    between atoms: C1*_5  and  N_6
REMARK    5  A    between atoms: C_10  and  C_13
REMARK    6  A    between atoms: C5*_20  and  O5*_21
REMARK                            x       y       z     vdW  Elec       q    Type
REMARK                         _______ _______ _______ _____ _____    ______ ____
ROOT
ATOM      1  O4* UNL     1      36.354 -23.062 -13.130  0.00  0.00    -0.332 OA
ATOM      2  C3* UNL     1      37.740 -24.984 -12.904  0.00  0.00    +0.171 C 
ATOM      3  C2* UNL     1      36.957 -25.088 -14.197  0.00  0.00    +0.188 C 
ATOM      4  C4* UNL     1      36.960 -23.921 -12.137  0.00  0.00    +0.175 C 
ATOM      5  C1* UNL     1      36.568 -23.636 -14.434  0.00  0.00    +0.240 C 
ENDROOT
BRANCH   5   6
ATOM      6  N   UNL     1      35.370 -23.466 -15.252  0.00  0.00    -0.172 N 
ATOM      7  N   UNL     1      35.464 -23.188 -16.561  0.00  0.00    -0.120 NA
ATOM      8  N   UNL     1      33.284 -23.337 -15.885  0.00  0.00    -0.191 NA
ATOM      9  C   UNL     1      34.072 -23.552 -14.858  0.00  0.00    +0.250 C 
ATOM     10  C   UNL     1      34.175 -23.120 -16.897  0.00  0.00    +0.104 C 
BRANCH  10  13
ATOM     11  O   UNL     1      34.465 -23.085 -19.244  0.00  0.00    -0.259 OA
ATOM     12  N   UNL     1      32.498 -22.271 -18.426  0.00  0.00    -0.317 N 
ATOM     13  C   UNL     1      33.763 -22.836 -18.239  0.00  0.00    +0.307 C 
ATOM     14  H   UNL     1      32.182 -22.063 -19.335  0.00  0.00    +0.146 HD
ATOM     15  H   UNL     1      31.924 -22.082 -17.649  0.00  0.00    +0.146 HD
ENDBRANCH  10  13
ENDBRANCH   5   6
BRANCH   3  16
ATOM     16  O2* UNL     1      37.719 -25.611 -15.266  0.00  0.00    -0.378 OA
ATOM     17  H2* UNL     1      38.450 -26.141 -14.912  0.00  0.00    +0.211 HD
ENDBRANCH   3  16
BRANCH   2  18
ATOM     18  O3* UNL     1      39.049 -24.486 -13.179  0.00  0.00    -0.379 OA
ATOM     19  H3* UNL     1      39.015 -23.895 -13.947  0.00  0.00    +0.211 HD
ENDBRANCH   2  18
BRANCH   4  20
ATOM     20  C5* UNL     1      35.854 -24.506 -11.268  0.00  0.00    +0.169 C 
BRANCH  20  21
ATOM     21  O5* UNL     1      36.120 -24.182  -9.915  0.00  0.00    -0.379 OA
ATOM     22  H5* UNL     1      37.066 -24.297  -9.735  0.00  0.00    +0.211 HD
ENDBRANCH  20  21
ENDBRANCH   4  20
TORSDOF 6
ENDMDL
MODEL 4
REMARK VINA RESULT:      -7.5      1.967      3.021
REMARK  Name = 460516
REMARK  6 active torsions:
REMARK  status: ('A' for Active; 'I' for Inactive)
REMARK    1  A    between atoms: C3*_2  and  O3*_18
REMARK    2  A    between atoms: C2*_3  and  O2*_16
REMARK    3  A    between atoms: C4*_4  and  C5*_20
REMARK    4  A    between atoms: C1*_5  and  N_6
REMARK    5  A    between atoms: C_10  and  C_13
REMARK    6  A    between atoms: C5*_20  and  O5*_21
REMARK                            x       y       z     vdW  Elec       q    Type
REMARK                         _______ _______ _______ _____ _____    ______ ____
ROOT
ATOM      1  O4* UNL     1      35.713 -24.901 -15.555  0.00  0.00    -0.332 OA
ATOM      2  C3* UNL     1      36.409 -24.361 -13.344  0.00  0.00    +0.171 C 
ATOM      3  C2* UNL     1      35.030 -23.780 -13.584  0.00  0.00    +0.188 C 
ATOM      4  C4* UNL     1      36.895 -24.643 -14.762  0.00  0.00    +0.175 C 
ATOM      5  C1* UNL     1      34.548 -24.621 -14.757  0.00  0.00    +0.240 C 
ENDROOT
BRANCH   5   6
ATOM      6  N   UNL     1      33.530 -23.969 -15.579  0.00  0.00    -0.172 N 
ATOM      7  N   UNL     1      32.269 -23.841 -15.140  0.00  0.00    -0.120 NA
ATOM      8  N   UNL     1      32.532 -22.937 -17.225  0.00  0.00    -0.191 NA
ATOM      9  C   UNL     1      33.678 -23.430 -16.818  0.00  0.00    +0.250 C 
ATOM     10  C   UNL     1      31.706 -23.211 -16.172  0.00  0.00    +0.104 C 
BRANCH  10  13
ATOM     11  O   UNL     1      29.715 -22.420 -17.172  0.00  0.00    -0.259 OA
ATOM     12  N   UNL     1      29.611 -23.011 -14.972  0.00  0.00    -0.317 N 
ATOM     13  C   UNL     1      30.321 -22.849 -16.165  0.00  0.00    +0.307 C 
ATOM     14  H   UNL     1      28.656 -22.773 -14.931  0.00  0.00    +0.146 HD
ATOM     15  H   UNL     1      30.066 -23.363 -14.173  0.00  0.00    +0.146 HD
ENDBRANCH  10  13
ENDBRANCH   5   6
BRANCH   3  16
ATOM     16  O2* UNL     1      34.177 -23.898 -12.465  0.00  0.00    -0.378 OA
ATOM     17  H2* UNL     1      34.084 -23.032 -12.037  0.00  0.00    +0.211 HD
ENDBRANCH   3  16
BRANCH   2  18
ATOM     18  O3* UNL     1      36.288 -25.600 -12.644  0.00  0.00    -0.379 OA
ATOM     19  H3* UNL     1      35.361 -25.742 -12.396  0.00  0.00    +0.211 HD
ENDBRANCH   2  18
BRANCH   4  20
ATOM     20  C5* UNL     1      37.640 -23.467 -15.379  0.00  0.00    +0.169 C 
BRANCH  20  21
ATOM     21  O5* UNL     1      38.959 -23.880 -15.692  0.00  0.00    -0.379 OA
ATOM     22  H5* UNL     1      38.961 -24.826 -15.904  0.00  0.00    +0.211 HD
ENDBRANCH  20  21
ENDBRANCH   4  20
TORSDOF 6
ENDMDL
MODEL 5
REMARK VINA RESULT:      -7.4      1.815      2.836
REMARK  Name = 460516
REMARK  6 active torsions:
REMARK  status: ('A' for Active; 'I' for Inactive)
REMARK    1  A    between atoms: C3*_2  and  O3*_18
REMARK    2  A    between atoms: C2*_3  and  O2*_16
REMARK    3  A    between atoms: C4*_4  and  C5*_20
REMARK    4  A    between atoms: C1*_5  and  N_6
REMARK    5  A    between atoms: C_10  and  C_13
REMARK    6  A    between atoms: C5*_20  and  O5*_21
REMARK                            x       y       z     vdW  Elec       q    Type
REMARK                         _______ _______ _______ _____ _____    ______ ____
ROOT
ATOM      1  O4* UNL     1      36.964 -25.693 -14.668  0.00  0.00    -0.332 OA
ATOM      2  C3* UNL     1      37.405 -24.931 -12.457  0.00  0.00    +0.171 C 
ATOM      3  C2* UNL     1      36.641 -23.858 -13.207  0.00  0.00    +0.188 C 
ATOM      4  C4* UNL     1      37.918 -25.816 -13.589  0.00  0.00    +0.175 C 
ATOM      5  C1* UNL     1      36.011 -24.666 -14.332  0.00  0.00    +0.240 C 
ENDROOT
BRANCH   5   6
ATOM      6  N   UNL     1      35.692 -23.880 -15.522  0.00  0.00    -0.172 N 
ATOM      7  N   UNL     1      34.552 -24.088 -16.199  0.00  0.00    -0.120 NA
ATOM      8  N   UNL     1      35.806 -22.429 -17.150  0.00  0.00    -0.191 NA
ATOM      9  C   UNL     1      36.431 -22.894 -16.094  0.00  0.00    +0.250 C 
ATOM     10  C   UNL     1      34.669 -23.186 -17.174  0.00  0.00    +0.104 C 
BRANCH  10  13
ATOM     11  O   UNL     1      33.857 -23.243 -19.394  0.00  0.00    -0.259 OA
ATOM     12  N   UNL     1      32.383 -22.641 -17.763  0.00  0.00    -0.317 N 
ATOM     13  C   UNL     1      33.660 -23.030 -18.177  0.00  0.00    +0.307 C 
ATOM     14  H   UNL     1      31.664 -22.524 -18.425  0.00  0.00    +0.146 HD
ATOM     15  H   UNL     1      32.203 -22.484 -16.807  0.00  0.00    +0.146 HD
ENDBRANCH  10  13
ENDBRANCH   5   6
BRANCH   3  16
ATOM     16  O2* UNL     1      35.667 -23.214 -12.412  0.00  0.00    -0.378 OA
ATOM     17  H2* UNL     1      34.822 -23.194 -12.888  0.00  0.00    +0.211 HD
ENDBRANCH   3  16
BRANCH   2  18
ATOM     18  O3* UNL     1      36.499 -25.688 -11.655  0.00  0.00    -0.379 OA
ATOM     19  H3* UNL     1      35.837 -26.109 -12.225  0.00  0.00    +0.211 HD
ENDBRANCH   2  18
BRANCH   4  20
ATOM     20  C5* UNL     1      39.285 -25.386 -14.105  0.00  0.00    +0.169 C 
BRANCH  20  21
ATOM     21  O5* UNL     1      39.411 -25.802 -15.454  0.00  0.00    -0.379 OA
ATOM     22  H5* UNL     1      38.555 -25.717 -15.901  0.00  0.00    +0.211 HD
ENDBRANCH  20  21
ENDBRANCH   4  20
TORSDOF 6
ENDMDL
MODEL 6
REMARK VINA RESULT:      -7.4      1.808      2.763
REMARK  Name = 460516
REMARK  6 active torsions:
REMARK  status: ('A' for Active; 'I' for Inactive)
REMARK    1  A    between atoms: C3*_2  and  O3*_18
REMARK    2  A    between atoms: C2*_3  and  O2*_16
REMARK    3  A    between atoms: C4*_4  and  C5*_20
REMARK    4  A    between atoms: C1*_5  and  N_6
REMARK    5  A    between atoms: C_10  and  C_13
REMARK    6  A    between atoms: C5*_20  and  O5*_21
REMARK                            x       y       z     vdW  Elec       q    Type
REMARK                         _______ _______ _______ _____ _____    ______ ____
ROOT
ATOM      1  O4* UNL     1      36.569 -25.295 -13.597  0.00  0.00    -0.332 OA
ATOM      2  C3* UNL     1      36.166 -24.362 -11.445  0.00  0.00    +0.171 C 
ATOM      3  C2* UNL     1      35.361 -23.595 -12.475  0.00  0.00    +0.188 C 
ATOM      4  C4* UNL     1      37.192 -25.088 -12.309  0.00  0.00    +0.175 C 
ATOM      5  C1* UNL     1      35.311 -24.592 -13.623  0.00  0.00    +0.240 C 
ENDROOT
BRANCH   5   6
ATOM      6  N   UNL     1      35.115 -23.980 -14.935  0.00  0.00    -0.172 N 
ATOM      7  N   UNL     1      33.896 -23.923 -15.493  0.00  0.00    -0.120 NA
ATOM      8  N   UNL     1      35.483 -22.974 -16.838  0.00  0.00    -0.191 NA
ATOM      9  C   UNL     1      36.052 -23.414 -15.741  0.00  0.00    +0.250 C 
ATOM     10  C   UNL     1      34.173 -23.306 -16.643  0.00  0.00    +0.104 C 
BRANCH  10  13
ATOM     11  O   UNL     1      31.961 -22.788 -17.298  0.00  0.00    -0.259 OA
ATOM     12  N   UNL     1      33.522 -22.962 -18.950  0.00  0.00    -0.317 N 
ATOM     13  C   UNL     1      33.152 -23.016 -17.604  0.00  0.00    +0.307 C 
ATOM     14  H   UNL     1      32.846 -22.765 -19.639  0.00  0.00    +0.146 HD
ATOM     15  H   UNL     1      34.458 -23.122 -19.210  0.00  0.00    +0.146 HD
ENDBRANCH  10  13
ENDBRANCH   5   6
BRANCH   3  16
ATOM     16  O2* UNL     1      34.068 -23.250 -12.021  0.00  0.00    -0.378 OA
ATOM     17  H2* UNL     1      33.536 -24.054 -11.916  0.00  0.00    +0.211 HD
ENDBRANCH   3  16
BRANCH   2  18
ATOM     18  O3* UNL     1      35.330 -25.331 -10.812  0.00  0.00    -0.379 OA
ATOM     19  H3* UNL     1      34.451 -25.316 -11.221  0.00  0.00    +0.211 HD
ENDBRANCH   2  18
BRANCH   4  20
ATOM     20  C5* UNL     1      38.468 -24.283 -12.518  0.00  0.00    +0.169 C 
BRANCH  20  21
ATOM     21  O5* UNL     1      38.514 -23.247 -11.552  0.00  0.00    -0.379 OA
ATOM     22  H5* UNL     1      39.256 -22.654 -11.748  0.00  0.00    +0.211 HD
ENDBRANCH  20  21
ENDBRANCH   4  20
TORSDOF 6
ENDMDL
MODEL 7
REMARK VINA RESULT:      -7.4      1.891      2.324
REMARK  Name = 460516
REMARK  6 active torsions:
REMARK  status: ('A' for Active; 'I' for Inactive)
REMARK    1  A    between atoms: C3*_2  and  O3*_18
REMARK    2  A    between atoms: C2*_3  and  O2*_16
REMARK    3  A    between atoms: C4*_4  and  C5*_20
REMARK    4  A    between atoms: C1*_5  and  N_6
REMARK    5  A    between atoms: C_10  and  C_13
REMARK    6  A    between atoms: C5*_20  and  O5*_21
REMARK                            x       y       z     vdW  Elec       q    Type
REMARK                         _______ _______ _______ _____ _____    ______ ____
ROOT
ATOM      1  O4* UNL     1      36.274 -23.057 -14.472  0.00  0.00    -0.332 OA
ATOM      2  C3* UNL     1      37.574 -25.040 -14.269  0.00  0.00    +0.171 C 
ATOM      3  C2* UNL     1      36.162 -25.414 -14.674  0.00  0.00    +0.188 C 
ATOM      4  C4* UNL     1      37.399 -23.615 -13.754  0.00  0.00    +0.175 C 
ATOM      5  C1* UNL     1      35.655 -24.099 -15.250  0.00  0.00    +0.240 C 
ENDROOT
BRANCH   5   6
ATOM      6  N   UNL     1      34.202 -23.951 -15.208  0.00  0.00    -0.172 N 
ATOM      7  N   UNL     1      33.496 -24.396 -14.158  0.00  0.00    -0.120 NA
ATOM      8  N   UNL     1      32.146 -23.445 -15.741  0.00  0.00    -0.191 NA
ATOM      9  C   UNL     1      33.393 -23.388 -16.144  0.00  0.00    +0.250 C 
ATOM     10  C   UNL     1      32.258 -24.066 -14.529  0.00  0.00    +0.104 C 
BRANCH  10  13
ATOM     11  O   UNL     1      30.865 -23.727 -12.649  0.00  0.00    -0.259 OA
ATOM     12  N   UNL     1      30.256 -25.365 -14.113  0.00  0.00    -0.317 N 
ATOM     13  C   UNL     1      31.125 -24.350 -13.702  0.00  0.00    +0.307 C 
ATOM     14  H   UNL     1      29.466 -25.587 -13.569  0.00  0.00    +0.146 HD
ATOM     15  H   UNL     1      30.434 -25.856 -14.948  0.00  0.00    +0.146 HD
ENDBRANCH  10  13
ENDBRANCH   5   6
BRANCH   3  16
ATOM     16  O2* UNL     1      36.117 -26.458 -15.625  0.00  0.00    -0.378 OA
ATOM     17  H2* UNL     1      36.043 -26.081 -16.516  0.00  0.00    +0.211 HD
ENDBRANCH   3  16
BRANCH   2  18
ATOM     18  O3* UNL     1      38.410 -25.012 -15.426  0.00  0.00    -0.379 OA
ATOM     19  H3* UNL     1      38.433 -24.112 -15.786  0.00  0.00    +0.211 HD
ENDBRANCH   2  18
BRANCH   4  20
ATOM     20  C5* UNL     1      37.093 -23.556 -12.263  0.00  0.00    +0.169 C 
BRANCH  20  21
ATOM     21  O5* UNL     1      38.116 -22.816 -11.620  0.00  0.00    -0.379 OA
ATOM     22  H5* UNL     1      38.881 -23.391 -11.463  0.00  0.00    +0.211 HD
ENDBRANCH  20  21
ENDBRANCH   4  20
TORSDOF 6
ENDMDL
MODEL 8
REMARK VINA RESULT:      -7.4      2.454      3.439
REMARK  Name = 460516
REMARK  6 active torsions:
REMARK  status: ('A' for Active; 'I' for Inactive)
REMARK    1  A    between atoms: C3*_2  and  O3*_18
REMARK    2  A    between atoms: C2*_3  and  O2*_16
REMARK    3  A    between atoms: C4*_4  and  C5*_20
REMARK    4  A    between atoms: C1*_5  and  N_6
REMARK    5  A    between atoms: C_10  and  C_13
REMARK    6  A    between atoms: C5*_20  and  O5*_21
REMARK                            x       y       z     vdW  Elec       q    Type
REMARK                         _______ _______ _______ _____ _____    ______ ____
ROOT
ATOM      1  O4* UNL     1      36.744 -25.805 -14.604  0.00  0.00    -0.332 OA
ATOM      2  C3* UNL     1      37.245 -25.129 -12.377  0.00  0.00    +0.171 C 
ATOM      3  C2* UNL     1      36.555 -23.987 -13.098  0.00  0.00    +0.188 C 
ATOM      4  C4* UNL     1      37.691 -26.020 -13.532  0.00  0.00    +0.175 C 
ATOM      5  C1* UNL     1      35.867 -24.722 -14.239  0.00  0.00    +0.240 C 
ENDROOT
BRANCH   5   6
ATOM      6  N   UNL     1      35.599 -23.888 -15.408  0.00  0.00    -0.172 N 
ATOM      7  N   UNL     1      36.566 -23.133 -15.951  0.00  0.00    -0.120 NA
ATOM      8  N   UNL     1      34.588 -22.908 -17.078  0.00  0.00    -0.191 NA
ATOM      9  C   UNL     1      34.428 -23.748 -16.083  0.00  0.00    +0.250 C 
ATOM     10  C   UNL     1      35.904 -22.560 -16.957  0.00  0.00    +0.104 C 
BRANCH  10  13
ATOM     11  O   UNL     1      36.429 -21.692 -19.093  0.00  0.00    -0.259 OA
ATOM     12  N   UNL     1      37.311 -20.616 -17.287  0.00  0.00    -0.317 N 
ATOM     13  C   UNL     1      36.542 -21.639 -17.848  0.00  0.00    +0.307 C 
ATOM     14  H   UNL     1      37.764 -19.964 -17.870  0.00  0.00    +0.146 HD
ATOM     15  H   UNL     1      37.399 -20.547 -16.309  0.00  0.00    +0.146 HD
ENDBRANCH  10  13
ENDBRANCH   5   6
BRANCH   3  16
ATOM     16  O2* UNL     1      35.631 -23.296 -12.282  0.00  0.00    -0.378 OA
ATOM     17  H2* UNL     1      36.111 -22.752 -11.639  0.00  0.00    +0.211 HD
ENDBRANCH   3  16
BRANCH   2  18
ATOM     18  O3* UNL     1      36.291 -25.840 -11.589  0.00  0.00    -0.379 OA
ATOM     19  H3* UNL     1      36.518 -26.783 -11.579  0.00  0.00    +0.211 HD
ENDBRANCH   2  18
BRANCH   4  20
ATOM     20  C5* UNL     1      39.083 -25.674 -14.045  0.00  0.00    +0.169 C 
BRANCH  20  21
ATOM     21  O5* UNL     1      39.168 -26.044 -15.410  0.00  0.00    -0.379 OA
ATOM     22  H5* UNL     1      38.430 -25.647 -15.900  0.00  0.00    +0.211 HD
ENDBRANCH  20  21
ENDBRANCH   4  20
TORSDOF 6
ENDMDL
MODEL 9
REMARK VINA RESULT:      -7.3      2.807      5.824
REMARK  Name = 460516
REMARK  6 active torsions:
REMARK  status: ('A' for Active; 'I' for Inactive)
REMARK    1  A    between atoms: C3*_2  and  O3*_18
REMARK    2  A    between atoms: C2*_3  and  O2*_16
REMARK    3  A    between atoms: C4*_4  and  C5*_20
REMARK    4  A    between atoms: C1*_5  and  N_6
REMARK    5  A    between atoms: C_10  and  C_13
REMARK    6  A    between atoms: C5*_20  and  O5*_21
REMARK                            x       y       z     vdW  Elec       q    Type
REMARK                         _______ _______ _______ _____ _____    ______ ____
ROOT
ATOM      1  O4* UNL     1      34.850 -22.577 -15.174  0.00  0.00    -0.332 OA
ATOM      2  C3* UNL     1      33.329 -24.003 -14.025  0.00  0.00    +0.171 C 
ATOM      3  C2* UNL     1      34.730 -24.567 -13.896  0.00  0.00    +0.188 C 
ATOM      4  C4* UNL     1      33.477 -23.030 -15.191  0.00  0.00    +0.175 C 
ATOM      5  C1* UNL     1      35.579 -23.340 -14.193  0.00  0.00    +0.240 C 
ENDROOT
BRANCH   5   6
ATOM      6  N   UNL     1      36.915 -23.648 -14.699  0.00  0.00    -0.172 N 
ATOM      7  N   UNL     1      37.570 -24.744 -14.288  0.00  0.00    -0.120 NA
ATOM      8  N   UNL     1      38.801 -23.540 -15.793  0.00  0.00    -0.191 NA
ATOM      9  C   UNL     1      37.653 -22.938 -15.592  0.00  0.00    +0.250 C 
ATOM     10  C   UNL     1      38.706 -24.632 -14.978  0.00  0.00    +0.104 C 
BRANCH  10  13
ATOM     11  O   UNL     1      40.540 -25.880 -15.796  0.00  0.00    -0.259 OA
ATOM     12  N   UNL     1      39.908 -26.252 -13.637  0.00  0.00    -0.317 N 
ATOM     13  C   UNL     1      39.752 -25.603 -14.865  0.00  0.00    +0.307 C 
ATOM     14  H   UNL     1      40.617 -26.926 -13.523  0.00  0.00    +0.146 HD
ATOM     15  H   UNL     1      39.308 -26.036 -12.887  0.00  0.00    +0.146 HD
ENDBRANCH  10  13
ENDBRANCH   5   6
BRANCH   3  16
ATOM     16  O2* UNL     1      34.997 -25.095 -12.613  0.00  0.00    -0.378 OA
ATOM     17  H2* UNL     1      34.333 -24.771 -11.985  0.00  0.00    +0.211 HD
ENDBRANCH   3  16
BRANCH   2  18
ATOM     18  O3* UNL     1      33.002 -23.264 -12.848  0.00  0.00    -0.379 OA
ATOM     19  H3* UNL     1      33.816 -23.045 -12.368  0.00  0.00    +0.211 HD
ENDBRANCH   2  18
BRANCH   4  20
ATOM     20  C5* UNL     1      33.202 -23.677 -16.542  0.00  0.00    +0.169 C 
BRANCH  20  21
ATOM     21  O5* UNL     1      34.255 -23.342 -17.428  0.00  0.00    -0.379 OA
ATOM     22  H5* UNL     1      34.187 -22.406 -17.673  0.00  0.00    +0.211 HD
ENDBRANCH  20  21
ENDBRANCH   4  20
TORSDOF 6
ENDMDL
