MODEL 1
REMARK VINA RESULT:      -6.5      0.000      0.000
REMARK  Name = 764
REMARK  0 active torsions:
REMARK  status: ('A' for Active; 'I' for Inactive)
REMARK                            x       y       z     vdW  Elec       q    Type
REMARK                         _______ _______ _______ _____ _____    ______ ____
ROOT
ATOM      1  O   UNL     1      36.826 -21.556 -19.135  0.00  0.00    -0.208 OA
ATOM      2  N   UNL     1      32.770 -21.977 -18.905  0.00  0.00    -0.263 N 
ATOM      3  N   UNL     1      34.861 -20.014 -20.816  0.00  0.00    -0.304 N 
ATOM      4  N   UNL     1      32.648 -20.288 -20.644  0.00  0.00    -0.303 N 
ATOM      5  N   UNL     1      34.995 -22.583 -18.172  0.00  0.00    -0.301 NA
ATOM      6  N   UNL     1      33.069 -23.561 -17.263  0.00  0.00    -0.320 N 
ATOM      7  C   UNL     1      34.669 -20.962 -19.852  0.00  0.00    +0.170 C 
ATOM      8  C   UNL     1      33.307 -21.104 -19.774  0.00  0.00    +0.127 C 
ATOM      9  C   UNL     1      35.611 -21.696 -19.052  0.00  0.00    +0.223 C 
ATOM     10  C   UNL     1      33.684 -22.688 -18.129  0.00  0.00    +0.248 C 
ATOM     11  C   UNL     1      33.616 -19.640 -21.261  0.00  0.00    +0.183 C 
ATOM     12  H   UNL     1      31.797 -22.105 -18.822  0.00  0.00    +0.157 HD
ATOM     13  H   UNL     1      35.725 -19.665 -21.131  0.00  0.00    +0.149 HD
ATOM     14  H   UNL     1      31.676 -20.203 -20.780  0.00  0.00    +0.150 HD
ATOM     15  H   UNL     1      32.088 -23.626 -17.245  0.00  0.00    +0.146 HD
ATOM     16  H   UNL     1      33.612 -24.120 -16.661  0.00  0.00    +0.146 HD
ENDROOT
TORSDOF 0
ENDMDL
MODEL 2
REMARK VINA RESULT:      -6.5      6.128      7.627
REMARK  Name = 764
REMARK  0 active torsions:
REMARK  status: ('A' for Active; 'I' for Inactive)
REMARK                            x       y       z     vdW  Elec       q    Type
REMARK                         _______ _______ _______ _____ _____    ______ ____
ROOT
ATOM      1  O   UNL     1      37.179 -26.533 -11.831  0.00  0.00    -0.208 OA
ATOM      2  N   UNL     1      37.901 -24.705 -15.412  0.00  0.00    -0.263 N 
ATOM      3  N   UNL     1      35.124 -24.980 -13.390  0.00  0.00    -0.304 N 
ATOM      4  N   UNL     1      35.579 -24.000 -15.348  0.00  0.00    -0.303 N 
ATOM      5  N   UNL     1      38.657 -26.029 -13.532  0.00  0.00    -0.301 NA
ATOM      6  N   UNL     1      40.072 -25.460 -15.312  0.00  0.00    -0.320 N 
ATOM      7  C   UNL     1      36.436 -25.249 -13.653  0.00  0.00    +0.170 C 
ATOM      8  C   UNL     1      36.679 -24.635 -14.856  0.00  0.00    +0.127 C 
ATOM      9  C   UNL     1      37.414 -25.991 -12.906  0.00  0.00    +0.223 C 
ATOM     10  C   UNL     1      38.848 -25.427 -14.687  0.00  0.00    +0.248 C 
ATOM     11  C   UNL     1      34.653 -24.227 -14.438  0.00  0.00    +0.183 C 
ATOM     12  H   UNL     1      38.111 -24.278 -16.274  0.00  0.00    +0.157 HD
ATOM     13  H   UNL     1      34.613 -25.270 -12.600  0.00  0.00    +0.149 HD
ATOM     14  H   UNL     1      35.495 -23.491 -16.187  0.00  0.00    +0.150 HD
ATOM     15  H   UNL     1      40.196 -25.003 -16.175  0.00  0.00    +0.146 HD
ATOM     16  H   UNL     1      40.824 -25.941 -14.896  0.00  0.00    +0.146 HD
ENDROOT
TORSDOF 0
ENDMDL
MODEL 3
REMARK VINA RESULT:      -6.5      6.931      7.986
REMARK  Name = 764
REMARK  0 active torsions:
REMARK  status: ('A' for Active; 'I' for Inactive)
REMARK                            x       y       z     vdW  Elec       q    Type
REMARK                         _______ _______ _______ _____ _____    ______ ____
ROOT
ATOM      1  O   UNL     1      37.591 -22.628 -11.183  0.00  0.00    -0.208 OA
ATOM      2  N   UNL     1      37.422 -25.599 -13.982  0.00  0.00    -0.263 N 
ATOM      3  N   UNL     1      35.081 -23.468 -12.619  0.00  0.00    -0.304 N 
ATOM      4  N   UNL     1      35.051 -25.104 -14.143  0.00  0.00    -0.303 N 
ATOM      5  N   UNL     1      38.678 -24.257 -12.407  0.00  0.00    -0.301 NA
ATOM      6  N   UNL     1      39.681 -25.935 -13.700  0.00  0.00    -0.320 N 
ATOM      7  C   UNL     1      36.364 -23.927 -12.708  0.00  0.00    +0.170 C 
ATOM      8  C   UNL     1      36.308 -24.925 -13.648  0.00  0.00    +0.127 C 
ATOM      9  C   UNL     1      37.559 -23.523 -12.021  0.00  0.00    +0.223 C 
ATOM     10  C   UNL     1      38.581 -25.207 -13.313  0.00  0.00    +0.248 C 
ATOM     11  C   UNL     1      34.330 -24.207 -13.501  0.00  0.00    +0.183 C 
ATOM     12  H   UNL     1      37.419 -26.320 -14.651  0.00  0.00    +0.157 HD
ATOM     13  H   UNL     1      34.757 -22.746 -12.035  0.00  0.00    +0.149 HD
ATOM     14  H   UNL     1      34.752 -25.752 -14.822  0.00  0.00    +0.150 HD
ATOM     15  H   UNL     1      39.589 -26.641 -14.379  0.00  0.00    +0.146 HD
ATOM     16  H   UNL     1      40.560 -25.750 -13.297  0.00  0.00    +0.146 HD
ENDROOT
TORSDOF 0
ENDMDL
MODEL 4
REMARK VINA RESULT:      -6.4      6.368      7.938
REMARK  Name = 764
REMARK  0 active torsions:
REMARK  status: ('A' for Active; 'I' for Inactive)
REMARK                            x       y       z     vdW  Elec       q    Type
REMARK                         _______ _______ _______ _____ _____    ______ ____
ROOT
ATOM      1  O   UNL     1      37.022 -26.294 -11.826  0.00  0.00    -0.208 OA
ATOM      2  N   UNL     1      37.272 -23.764 -15.023  0.00  0.00    -0.263 N 
ATOM      3  N   UNL     1      39.375 -26.152 -13.700  0.00  0.00    -0.304 N 
ATOM      4  N   UNL     1      39.454 -24.743 -15.436  0.00  0.00    -0.303 N 
ATOM      5  N   UNL     1      36.065 -24.632 -13.113  0.00  0.00    -0.301 NA
ATOM      6  N   UNL     1      35.188 -22.947 -14.486  0.00  0.00    -0.320 N 
ATOM      7  C   UNL     1      38.200 -25.456 -13.679  0.00  0.00    +0.170 C 
ATOM      8  C   UNL     1      38.283 -24.606 -14.752  0.00  0.00    +0.127 C 
ATOM      9  C   UNL     1      37.079 -25.527 -12.782  0.00  0.00    +0.223 C 
ATOM     10  C   UNL     1      36.185 -23.833 -14.152  0.00  0.00    +0.248 C 
ATOM     11  C   UNL     1      40.094 -25.687 -14.775  0.00  0.00    +0.183 C 
ATOM     12  H   UNL     1      37.297 -23.140 -15.785  0.00  0.00    +0.157 HD
ATOM     13  H   UNL     1      39.652 -26.852 -13.067  0.00  0.00    +0.149 HD
ATOM     14  H   UNL     1      39.752 -24.253 -16.236  0.00  0.00    +0.150 HD
ATOM     15  H   UNL     1      35.296 -22.358 -15.266  0.00  0.00    +0.146 HD
ATOM     16  H   UNL     1      34.368 -22.902 -13.943  0.00  0.00    +0.146 HD
ENDROOT
TORSDOF 0
ENDMDL
MODEL 5
REMARK VINA RESULT:      -6.4      7.297      8.264
REMARK  Name = 764
REMARK  0 active torsions:
REMARK  status: ('A' for Active; 'I' for Inactive)
REMARK                            x       y       z     vdW  Elec       q    Type
REMARK                         _______ _______ _______ _____ _____    ______ ____
ROOT
ATOM      1  O   UNL     1      36.263 -26.924 -15.789  0.00  0.00    -0.208 OA
ATOM      2  N   UNL     1      38.782 -25.192 -13.079  0.00  0.00    -0.263 N 
ATOM      3  N   UNL     1      35.379 -25.052 -13.602  0.00  0.00    -0.304 N 
ATOM      4  N   UNL     1      36.807 -24.134 -12.146  0.00  0.00    -0.303 N 
ATOM      5  N   UNL     1      38.409 -26.636 -14.985  0.00  0.00    -0.301 NA
ATOM      6  N   UNL     1      40.544 -26.274 -14.089  0.00  0.00    -0.320 N 
ATOM      7  C   UNL     1      36.617 -25.519 -13.939  0.00  0.00    +0.170 C 
ATOM      8  C   UNL     1      37.464 -24.938 -13.029  0.00  0.00    +0.127 C 
ATOM      9  C   UNL     1      37.035 -26.413 -14.984  0.00  0.00    +0.223 C 
ATOM     10  C   UNL     1      39.187 -26.058 -14.094  0.00  0.00    +0.248 C 
ATOM     11  C   UNL     1      35.546 -24.224 -12.519  0.00  0.00    +0.183 C 
ATOM     12  H   UNL     1      39.419 -24.793 -12.443  0.00  0.00    +0.157 HD
ATOM     13  H   UNL     1      34.530 -25.268 -14.050  0.00  0.00    +0.149 HD
ATOM     14  H   UNL     1      37.186 -23.609 -11.404  0.00  0.00    +0.150 HD
ATOM     15  H   UNL     1      41.109 -25.833 -13.415  0.00  0.00    +0.146 HD
ATOM     16  H   UNL     1      40.950 -26.869 -14.760  0.00  0.00    +0.146 HD
ENDROOT
TORSDOF 0
ENDMDL
MODEL 6
REMARK VINA RESULT:      -6.3      6.729      8.554
REMARK  Name = 764
REMARK  0 active torsions:
REMARK  status: ('A' for Active; 'I' for Inactive)
REMARK                            x       y       z     vdW  Elec       q    Type
REMARK                         _______ _______ _______ _____ _____    ______ ____
ROOT
ATOM      1  O   UNL     1      34.682 -17.820 -25.569  0.00  0.00    -0.208 OA
ATOM      2  N   UNL     1      33.128 -14.164 -24.618  0.00  0.00    -0.263 N 
ATOM      3  N   UNL     1      34.933 -16.519 -22.865  0.00  0.00    -0.304 N 
ATOM      4  N   UNL     1      34.060 -14.513 -22.404  0.00  0.00    -0.303 N 
ATOM      5  N   UNL     1      33.498 -15.945 -26.215  0.00  0.00    -0.301 NA
ATOM      6  N   UNL     1      32.312 -13.999 -26.763  0.00  0.00    -0.320 N 
ATOM      7  C   UNL     1      34.326 -16.096 -24.013  0.00  0.00    +0.170 C 
ATOM      8  C   UNL     1      33.803 -14.868 -23.694  0.00  0.00    +0.127 C 
ATOM      9  C   UNL     1      34.208 -16.721 -25.302  0.00  0.00    +0.223 C 
ATOM     10  C   UNL     1      33.013 -14.771 -25.868  0.00  0.00    +0.248 C 
ATOM     11  C   UNL     1      34.746 -15.533 -21.928  0.00  0.00    +0.183 C 
ATOM     12  H   UNL     1      32.740 -13.280 -24.425  0.00  0.00    +0.157 HD
ATOM     13  H   UNL     1      35.414 -17.368 -22.735  0.00  0.00    +0.149 HD
ATOM     14  H   UNL     1      33.794 -13.687 -21.937  0.00  0.00    +0.150 HD
ATOM     15  H   UNL     1      31.957 -13.125 -26.485  0.00  0.00    +0.146 HD
ATOM     16  H   UNL     1      32.165 -14.323 -27.681  0.00  0.00    +0.146 HD
ENDROOT
TORSDOF 0
ENDMDL
MODEL 7
REMARK VINA RESULT:      -6.2      5.423      7.233
REMARK  Name = 764
REMARK  0 active torsions:
REMARK  status: ('A' for Active; 'I' for Inactive)
REMARK                            x       y       z     vdW  Elec       q    Type
REMARK                         _______ _______ _______ _____ _____    ______ ____
ROOT
ATOM      1  O   UNL     1      34.772 -16.794 -25.843  0.00  0.00    -0.208 OA
ATOM      2  N   UNL     1      33.933 -15.645 -22.015  0.00  0.00    -0.263 N 
ATOM      3  N   UNL     1      35.858 -18.153 -23.386  0.00  0.00    -0.304 N 
ATOM      4  N   UNL     1      35.362 -17.478 -21.312  0.00  0.00    -0.303 N 
ATOM      5  N   UNL     1      33.678 -15.358 -24.404  0.00  0.00    -0.301 NA
ATOM      6  N   UNL     1      32.613 -13.958 -22.854  0.00  0.00    -0.320 N 
ATOM      7  C   UNL     1      35.025 -17.080 -23.525  0.00  0.00    +0.170 C 
ATOM      8  C   UNL     1      34.742 -16.694 -22.239  0.00  0.00    +0.127 C 
ATOM      9  C   UNL     1      34.509 -16.435 -24.701  0.00  0.00    +0.223 C 
ATOM     10  C   UNL     1      33.432 -15.020 -23.156  0.00  0.00    +0.248 C 
ATOM     11  C   UNL     1      36.030 -18.352 -22.037  0.00  0.00    +0.183 C 
ATOM     12  H   UNL     1      33.708 -15.340 -21.106  0.00  0.00    +0.157 HD
ATOM     13  H   UNL     1      36.259 -18.682 -24.112  0.00  0.00    +0.149 HD
ATOM     14  H   UNL     1      35.320 -17.407 -20.331  0.00  0.00    +0.150 HD
ATOM     15  H   UNL     1      32.441 -13.721 -21.915  0.00  0.00    +0.146 HD
ATOM     16  H   UNL     1      32.197 -13.437 -23.579  0.00  0.00    +0.146 HD
ENDROOT
TORSDOF 0
ENDMDL
MODEL 8
REMARK VINA RESULT:      -6.2      6.533      7.514
REMARK  Name = 764
REMARK  0 active torsions:
REMARK  status: ('A' for Active; 'I' for Inactive)
REMARK                            x       y       z     vdW  Elec       q    Type
REMARK                         _______ _______ _______ _____ _____    ______ ____
ROOT
ATOM      1  O   UNL     1      33.568 -15.535 -26.505  0.00  0.00    -0.208 OA
ATOM      2  N   UNL     1      34.801 -17.508 -23.147  0.00  0.00    -0.263 N 
ATOM      3  N   UNL     1      33.946 -14.237 -23.814  0.00  0.00    -0.304 N 
ATOM      4  N   UNL     1      34.625 -15.371 -22.010  0.00  0.00    -0.303 N 
ATOM      5  N   UNL     1      34.231 -17.506 -25.499  0.00  0.00    -0.301 NA
ATOM      6  N   UNL     1      34.915 -19.448 -24.379  0.00  0.00    -0.320 N 
ATOM      7  C   UNL     1      34.121 -15.529 -24.221  0.00  0.00    +0.170 C 
ATOM      8  C   UNL     1      34.536 -16.192 -23.094  0.00  0.00    +0.127 C 
ATOM      9  C   UNL     1      33.940 -16.144 -25.507  0.00  0.00    +0.223 C 
ATOM     10  C   UNL     1      34.626 -18.104 -24.395  0.00  0.00    +0.248 C 
ATOM     11  C   UNL     1      34.261 -14.193 -22.478  0.00  0.00    +0.183 C 
ATOM     12  H   UNL     1      35.100 -18.016 -22.359  0.00  0.00    +0.157 HD
ATOM     13  H   UNL     1      33.650 -13.482 -24.372  0.00  0.00    +0.149 HD
ATOM     14  H   UNL     1      34.897 -15.603 -21.092  0.00  0.00    +0.150 HD
ATOM     15  H   UNL     1      35.209 -19.878 -23.545  0.00  0.00    +0.146 HD
ATOM     16  H   UNL     1      34.828 -19.979 -25.204  0.00  0.00    +0.146 HD
ENDROOT
TORSDOF 0
ENDMDL
MODEL 9
REMARK VINA RESULT:      -6.2      1.957      2.725
REMARK  Name = 764
REMARK  0 active torsions:
REMARK  status: ('A' for Active; 'I' for Inactive)
REMARK                            x       y       z     vdW  Elec       q    Type
REMARK                         _______ _______ _______ _____ _____    ______ ____
ROOT
ATOM      1  O   UNL     1      32.263 -19.931 -20.789  0.00  0.00    -0.208 OA
ATOM      2  N   UNL     1      35.127 -22.133 -18.883  0.00  0.00    -0.263 N 
ATOM      3  N   UNL     1      35.209 -19.313 -20.862  0.00  0.00    -0.304 N 
ATOM      4  N   UNL     1      36.732 -20.558 -19.797  0.00  0.00    -0.303 N 
ATOM      5  N   UNL     1      32.809 -21.733 -19.452  0.00  0.00    -0.301 NA
ATOM      6  N   UNL     1      33.474 -23.531 -18.103  0.00  0.00    -0.320 N 
ATOM      7  C   UNL     1      34.516 -20.313 -20.242  0.00  0.00    +0.170 C 
ATOM      8  C   UNL     1      35.477 -21.054 -19.602  0.00  0.00    +0.127 C 
ATOM      9  C   UNL     1      33.109 -20.604 -20.210  0.00  0.00    +0.223 C 
ATOM     10  C   UNL     1      33.762 -22.416 -18.853  0.00  0.00    +0.248 C 
ATOM     11  C   UNL     1      36.537 -19.504 -20.564  0.00  0.00    +0.183 C 
ATOM     12  H   UNL     1      35.790 -22.688 -18.411  0.00  0.00    +0.157 HD
ATOM     13  H   UNL     1      34.830 -18.593 -21.415  0.00  0.00    +0.149 HD
ATOM     14  H   UNL     1      37.584 -20.906 -19.447  0.00  0.00    +0.150 HD
ATOM     15  H   UNL     1      34.200 -24.029 -17.663  0.00  0.00    +0.146 HD
ATOM     16  H   UNL     1      32.541 -23.832 -18.008  0.00  0.00    +0.146 HD
ENDROOT
TORSDOF 0
ENDMDL
