MODEL 1
REMARK VINA RESULT:     -10.1      0.000      0.000
REMARK  Name = 12195517
REMARK  2 active torsions:
REMARK  status: ('A' for Active; 'I' for Inactive)
REMARK    1  A    between atoms: C_4  and  C_8
REMARK    2  A    between atoms: C_5  and  C_14
REMARK                            x       y       z     vdW  Elec       q    Type
REMARK                         _______ _______ _______ _____ _____    ______ ____
ROOT
ATOM      1  N   UNL     1      35.513 -17.130 -22.806  0.00  0.00    -0.200 N 
ATOM      2  N   UNL     1      34.021 -17.540 -21.262  0.00  0.00    -0.333 NA
ATOM      3  N   UNL     1      35.830 -18.365 -22.392  0.00  0.00    -0.113 NA
ATOM      4  C   UNL     1      34.436 -16.646 -22.129  0.00  0.00    +0.211 C 
ATOM      5  C   UNL     1      34.898 -18.567 -21.458  0.00  0.00    +0.104 C 
ATOM      6  H   UNL     1      35.995 -16.637 -23.508  0.00  0.00    +0.178 HD
ENDROOT
BRANCH   4   8
ATOM      7  F   UNL     1      32.274 -11.597 -23.066  0.00  0.00    -0.204 F 
ATOM      8  C   UNL     1      33.877 -15.341 -22.372  0.00  0.00    +0.046 C 
ATOM      9  C   UNL     1      32.880 -14.841 -21.534  0.00  0.00    +0.006 C 
ATOM     10  C   UNL     1      34.332 -14.573 -23.447  0.00  0.00    +0.006 C 
ATOM     11  C   UNL     1      32.338 -13.577 -21.768  0.00  0.00    +0.030 C 
ATOM     12  C   UNL     1      33.790 -13.309 -23.681  0.00  0.00    +0.030 C 
ATOM     13  C   UNL     1      32.794 -12.811 -22.842  0.00  0.00    +0.140 C 
ENDBRANCH   4   8
BRANCH   5  14
ATOM     14  C   UNL     1      34.813 -19.783 -20.700  0.00  0.00    +0.075 C 
ATOM     15  C   UNL     1      33.566 -20.304 -20.354  0.00  0.00    +0.011 C 
ATOM     16  C   UNL     1      35.978 -20.444 -20.309  0.00  0.00    +0.011 C 
ATOM     17  C   UNL     1      33.484 -21.486 -19.617  0.00  0.00    +0.001 C 
ATOM     18  C   UNL     1      35.895 -21.625 -19.572  0.00  0.00    +0.001 C 
ATOM     19  C   UNL     1      34.648 -22.147 -19.226  0.00  0.00    +0.000 C 
ENDBRANCH   5  14
TORSDOF 2
ENDMDL
MODEL 2
REMARK VINA RESULT:     -10.0      0.010      1.139
REMARK  Name = 12195517
REMARK  2 active torsions:
REMARK  status: ('A' for Active; 'I' for Inactive)
REMARK    1  A    between atoms: C_4  and  C_8
REMARK    2  A    between atoms: C_5  and  C_14
REMARK                            x       y       z     vdW  Elec       q    Type
REMARK                         _______ _______ _______ _____ _____    ______ ____
ROOT
ATOM      1  N   UNL     1      35.526 -17.121 -22.790  0.00  0.00    -0.200 N 
ATOM      2  N   UNL     1      34.021 -17.541 -21.262  0.00  0.00    -0.333 NA
ATOM      3  N   UNL     1      35.845 -18.356 -22.376  0.00  0.00    -0.113 NA
ATOM      4  C   UNL     1      34.441 -16.644 -22.122  0.00  0.00    +0.211 C 
ATOM      5  C   UNL     1      34.905 -18.564 -21.452  0.00  0.00    +0.104 C 
ATOM      6  H   UNL     1      36.013 -16.624 -23.485  0.00  0.00    +0.178 HD
ENDROOT
BRANCH   4   8
ATOM      7  F   UNL     1      32.266 -11.601 -23.066  0.00  0.00    -0.204 F 
ATOM      8  C   UNL     1      33.878 -15.340 -22.367  0.00  0.00    +0.046 C 
ATOM      9  C   UNL     1      32.881 -14.841 -21.529  0.00  0.00    +0.006 C 
ATOM     10  C   UNL     1      34.330 -14.573 -23.444  0.00  0.00    +0.006 C 
ATOM     11  C   UNL     1      32.336 -13.578 -21.765  0.00  0.00    +0.030 C 
ATOM     12  C   UNL     1      33.786 -13.310 -23.680  0.00  0.00    +0.030 C 
ATOM     13  C   UNL     1      32.790 -12.813 -22.841  0.00  0.00    +0.140 C 
ENDBRANCH   4   8
BRANCH   5  14
ATOM     14  C   UNL     1      34.817 -19.783 -20.698  0.00  0.00    +0.075 C 
ATOM     15  C   UNL     1      35.981 -20.447 -20.309  0.00  0.00    +0.011 C 
ATOM     16  C   UNL     1      33.569 -20.303 -20.355  0.00  0.00    +0.011 C 
ATOM     17  C   UNL     1      35.896 -21.631 -19.576  0.00  0.00    +0.001 C 
ATOM     18  C   UNL     1      33.485 -21.487 -19.622  0.00  0.00    +0.001 C 
ATOM     19  C   UNL     1      34.648 -22.151 -19.233  0.00  0.00    +0.000 C 
ENDBRANCH   5  14
TORSDOF 2
ENDMDL
MODEL 3
REMARK VINA RESULT:      -9.9      1.454      2.252
REMARK  Name = 12195517
REMARK  2 active torsions:
REMARK  status: ('A' for Active; 'I' for Inactive)
REMARK    1  A    between atoms: C_4  and  C_8
REMARK    2  A    between atoms: C_5  and  C_14
REMARK                            x       y       z     vdW  Elec       q    Type
REMARK                         _______ _______ _______ _____ _____    ______ ____
ROOT
ATOM      1  N   UNL     1      36.253 -17.646 -22.862  0.00  0.00    -0.200 N 
ATOM      2  N   UNL     1      34.261 -18.175 -22.135  0.00  0.00    -0.333 NA
ATOM      3  N   UNL     1      36.491 -18.674 -22.035  0.00  0.00    -0.113 NA
ATOM      4  C   UNL     1      34.925 -17.355 -22.916  0.00  0.00    +0.211 C 
ATOM      5  C   UNL     1      35.255 -18.958 -21.622  0.00  0.00    +0.104 C 
ATOM      6  H   UNL     1      36.948 -17.163 -23.365  0.00  0.00    +0.178 HD
ENDROOT
BRANCH   4   8
ATOM      7  F   UNL     1      32.833 -13.257 -26.059  0.00  0.00    -0.204 F 
ATOM      8  C   UNL     1      34.385 -16.295 -23.728  0.00  0.00    +0.046 C 
ATOM      9  C   UNL     1      34.101 -16.522 -25.075  0.00  0.00    +0.006 C 
ATOM     10  C   UNL     1      34.143 -15.038 -23.170  0.00  0.00    +0.006 C 
ATOM     11  C   UNL     1      33.578 -15.497 -25.863  0.00  0.00    +0.030 C 
ATOM     12  C   UNL     1      33.619 -14.012 -23.956  0.00  0.00    +0.030 C 
ATOM     13  C   UNL     1      33.337 -14.242 -25.302  0.00  0.00    +0.140 C 
ENDBRANCH   4   8
BRANCH   5  14
ATOM     14  C   UNL     1      34.973 -20.018 -20.695  0.00  0.00    +0.075 C 
ATOM     15  C   UNL     1      36.022 -20.715 -20.092  0.00  0.00    +0.011 C 
ATOM     16  C   UNL     1      33.652 -20.352 -20.397  0.00  0.00    +0.011 C 
ATOM     17  C   UNL     1      35.747 -21.744 -19.192  0.00  0.00    +0.001 C 
ATOM     18  C   UNL     1      33.378 -21.381 -19.497  0.00  0.00    +0.001 C 
ATOM     19  C   UNL     1      34.427 -22.078 -18.894  0.00  0.00    +0.000 C 
ENDBRANCH   5  14
TORSDOF 2
ENDMDL
MODEL 4
REMARK VINA RESULT:      -9.8      2.940      7.116
REMARK  Name = 12195517
REMARK  2 active torsions:
REMARK  status: ('A' for Active; 'I' for Inactive)
REMARK    1  A    between atoms: C_4  and  C_8
REMARK    2  A    between atoms: C_5  and  C_14
REMARK                            x       y       z     vdW  Elec       q    Type
REMARK                         _______ _______ _______ _____ _____    ______ ____
ROOT
ATOM      1  N   UNL     1      35.538 -17.570 -22.598  0.00  0.00    -0.200 N 
ATOM      2  N   UNL     1      33.813 -16.880 -21.448  0.00  0.00    -0.333 NA
ATOM      3  N   UNL     1      35.332 -16.331 -23.067  0.00  0.00    -0.113 NA
ATOM      4  C   UNL     1      34.631 -17.889 -21.636  0.00  0.00    +0.211 C 
ATOM      5  C   UNL     1      34.278 -15.957 -22.339  0.00  0.00    +0.104 C 
ATOM      6  H   UNL     1      36.253 -18.171 -22.909  0.00  0.00    +0.178 HD
ENDROOT
BRANCH   4   8
ATOM      7  F   UNL     1      34.589 -22.803 -19.009  0.00  0.00    -0.204 F 
ATOM      8  C   UNL     1      34.619 -19.160 -20.958  0.00  0.00    +0.046 C 
ATOM      9  C   UNL     1      35.821 -19.793 -20.640  0.00  0.00    +0.006 C 
ATOM     10  C   UNL     1      33.406 -19.760 -20.614  0.00  0.00    +0.006 C 
ATOM     11  C   UNL     1      35.812 -21.024 -19.982  0.00  0.00    +0.030 C 
ATOM     12  C   UNL     1      33.395 -20.990 -19.956  0.00  0.00    +0.030 C 
ATOM     13  C   UNL     1      34.598 -21.622 -19.641  0.00  0.00    +0.140 C 
ENDBRANCH   4   8
BRANCH   5  14
ATOM     14  C   UNL     1      33.662 -14.667 -22.476  0.00  0.00    +0.075 C 
ATOM     15  C   UNL     1      32.673 -14.267 -21.575  0.00  0.00    +0.011 C 
ATOM     16  C   UNL     1      34.051 -13.814 -23.508  0.00  0.00    +0.011 C 
ATOM     17  C   UNL     1      32.076 -13.014 -21.709  0.00  0.00    +0.001 C 
ATOM     18  C   UNL     1      33.453 -12.561 -23.641  0.00  0.00    +0.001 C 
ATOM     19  C   UNL     1      32.464 -12.161 -22.740  0.00  0.00    +0.000 C 
ENDBRANCH   5  14
TORSDOF 2
ENDMDL
MODEL 5
REMARK VINA RESULT:      -9.6      1.742      2.187
REMARK  Name = 12195517
REMARK  2 active torsions:
REMARK  status: ('A' for Active; 'I' for Inactive)
REMARK    1  A    between atoms: C_4  and  C_8
REMARK    2  A    between atoms: C_5  and  C_14
REMARK                            x       y       z     vdW  Elec       q    Type
REMARK                         _______ _______ _______ _____ _____    ______ ____
ROOT
ATOM      1  N   UNL     1      34.739 -15.582 -21.520  0.00  0.00    -0.200 N 
ATOM      2  N   UNL     1      34.444 -17.427 -22.653  0.00  0.00    -0.333 NA
ATOM      3  N   UNL     1      35.058 -16.539 -20.636  0.00  0.00    -0.113 NA
ATOM      4  C   UNL     1      34.375 -16.118 -22.716  0.00  0.00    +0.211 C 
ATOM      5  C   UNL     1      34.865 -17.636 -21.371  0.00  0.00    +0.104 C 
ATOM      6  H   UNL     1      34.764 -14.617 -21.328  0.00  0.00    +0.178 HD
ENDROOT
BRANCH   4   8
ATOM      7  F   UNL     1      32.859 -13.025 -27.095  0.00  0.00    -0.204 F 
ATOM      8  C   UNL     1      33.982 -15.319 -23.848  0.00  0.00    +0.046 C 
ATOM      9  C   UNL     1      33.863 -13.935 -23.719  0.00  0.00    +0.006 C 
ATOM     10  C   UNL     1      33.721 -15.927 -25.078  0.00  0.00    +0.006 C 
ATOM     11  C   UNL     1      33.484 -13.160 -24.815  0.00  0.00    +0.030 C 
ATOM     12  C   UNL     1      33.342 -15.153 -26.175  0.00  0.00    +0.030 C 
ATOM     13  C   UNL     1      33.223 -13.769 -26.043  0.00  0.00    +0.140 C 
ENDBRANCH   4   8
BRANCH   5  14
ATOM     14  C   UNL     1      35.080 -18.959 -20.856  0.00  0.00    +0.075 C 
ATOM     15  C   UNL     1      33.990 -19.787 -20.582  0.00  0.00    +0.011 C 
ATOM     16  C   UNL     1      36.378 -19.418 -20.630  0.00  0.00    +0.011 C 
ATOM     17  C   UNL     1      34.200 -21.072 -20.082  0.00  0.00    +0.001 C 
ATOM     18  C   UNL     1      36.587 -20.702 -20.131  0.00  0.00    +0.001 C 
ATOM     19  C   UNL     1      35.497 -21.530 -19.856  0.00  0.00    +0.000 C 
ENDBRANCH   5  14
TORSDOF 2
ENDMDL
MODEL 6
REMARK VINA RESULT:      -9.6      3.070      7.169
REMARK  Name = 12195517
REMARK  2 active torsions:
REMARK  status: ('A' for Active; 'I' for Inactive)
REMARK    1  A    between atoms: C_4  and  C_8
REMARK    2  A    between atoms: C_5  and  C_14
REMARK                            x       y       z     vdW  Elec       q    Type
REMARK                         _______ _______ _______ _____ _____    ______ ____
ROOT
ATOM      1  N   UNL     1      35.099 -18.923 -23.495  0.00  0.00    -0.200 N 
ATOM      2  N   UNL     1      34.164 -17.461 -22.166  0.00  0.00    -0.333 NA
ATOM      3  N   UNL     1      34.989 -17.832 -24.267  0.00  0.00    -0.113 NA
ATOM      4  C   UNL     1      34.606 -18.694 -22.247  0.00  0.00    +0.211 C 
ATOM      5  C   UNL     1      34.418 -16.977 -23.417  0.00  0.00    +0.104 C 
ATOM      6  H   UNL     1      35.486 -19.778 -23.791  0.00  0.00    +0.178 HD
ENDROOT
BRANCH   4   8
ATOM      7  F   UNL     1      34.581 -22.558 -18.233  0.00  0.00    -0.204 F 
ATOM      8  C   UNL     1      34.599 -19.693 -21.210  0.00  0.00    +0.046 C 
ATOM      9  C   UNL     1      35.803 -20.196 -20.716  0.00  0.00    +0.006 C 
ATOM     10  C   UNL     1      33.388 -20.161 -20.696  0.00  0.00    +0.006 C 
ATOM     11  C   UNL     1      35.797 -21.164 -19.711  0.00  0.00    +0.030 C 
ATOM     12  C   UNL     1      33.381 -21.128 -19.690  0.00  0.00    +0.030 C 
ATOM     13  C   UNL     1      34.586 -21.629 -19.198  0.00  0.00    +0.140 C 
ENDBRANCH   4   8
BRANCH   5  14
ATOM     14  C   UNL     1      34.086 -15.629 -23.783  0.00  0.00    +0.075 C 
ATOM     15  C   UNL     1      34.258 -14.593 -22.863  0.00  0.00    +0.011 C 
ATOM     16  C   UNL     1      33.591 -15.353 -25.058  0.00  0.00    +0.011 C 
ATOM     17  C   UNL     1      33.935 -13.284 -23.219  0.00  0.00    +0.001 C 
ATOM     18  C   UNL     1      33.268 -14.044 -25.413  0.00  0.00    +0.001 C 
ATOM     19  C   UNL     1      33.440 -13.009 -24.493  0.00  0.00    +0.000 C 
ENDBRANCH   5  14
TORSDOF 2
ENDMDL
MODEL 7
REMARK VINA RESULT:      -9.5      3.124      7.097
REMARK  Name = 12195517
REMARK  2 active torsions:
REMARK  status: ('A' for Active; 'I' for Inactive)
REMARK    1  A    between atoms: C_4  and  C_8
REMARK    2  A    between atoms: C_5  and  C_14
REMARK                            x       y       z     vdW  Elec       q    Type
REMARK                         _______ _______ _______ _____ _____    ______ ____
ROOT
ATOM      1  N   UNL     1      36.135 -18.684 -22.117  0.00  0.00    -0.200 N 
ATOM      2  N   UNL     1      34.122 -17.894 -21.799  0.00  0.00    -0.333 NA
ATOM      3  N   UNL     1      36.123 -17.567 -22.858  0.00  0.00    -0.113 NA
ATOM      4  C   UNL     1      34.942 -18.871 -21.490  0.00  0.00    +0.211 C 
ATOM      5  C   UNL     1      34.884 -17.126 -22.632  0.00  0.00    +0.104 C 
ATOM      6  H   UNL     1      36.906 -19.290 -22.036  0.00  0.00    +0.178 HD
ENDROOT
BRANCH   4   8
ATOM      7  F   UNL     1      33.909 -23.212 -18.153  0.00  0.00    -0.204 F 
ATOM      8  C   UNL     1      34.676 -19.993 -20.627  0.00  0.00    +0.046 C 
ATOM      9  C   UNL     1      33.361 -20.331 -20.306  0.00  0.00    +0.006 C 
ATOM     10  C   UNL     1      35.733 -20.746 -20.110  0.00  0.00    +0.006 C 
ATOM     11  C   UNL     1      33.101 -21.418 -19.470  0.00  0.00    +0.030 C 
ATOM     12  C   UNL     1      35.474 -21.833 -19.275  0.00  0.00    +0.030 C 
ATOM     13  C   UNL     1      34.159 -22.168 -18.955  0.00  0.00    +0.140 C 
ENDBRANCH   4   8
BRANCH   5  14
ATOM     14  C   UNL     1      34.372 -15.921 -23.221  0.00  0.00    +0.075 C 
ATOM     15  C   UNL     1      33.888 -15.936 -24.530  0.00  0.00    +0.011 C 
ATOM     16  C   UNL     1      34.358 -14.735 -22.486  0.00  0.00    +0.011 C 
ATOM     17  C   UNL     1      33.390 -14.765 -25.102  0.00  0.00    +0.001 C 
ATOM     18  C   UNL     1      33.860 -13.565 -23.059  0.00  0.00    +0.001 C 
ATOM     19  C   UNL     1      33.376 -13.580 -24.368  0.00  0.00    +0.000 C 
ENDBRANCH   5  14
TORSDOF 2
ENDMDL
MODEL 8
REMARK VINA RESULT:      -9.4      6.018      9.429
REMARK  Name = 12195517
REMARK  2 active torsions:
REMARK  status: ('A' for Active; 'I' for Inactive)
REMARK    1  A    between atoms: C_4  and  C_8
REMARK    2  A    between atoms: C_5  and  C_14
REMARK                            x       y       z     vdW  Elec       q    Type
REMARK                         _______ _______ _______ _____ _____    ______ ____
ROOT
ATOM      1  N   UNL     1      33.806 -23.477 -16.806  0.00  0.00    -0.200 N 
ATOM      2  N   UNL     1      32.394 -22.338 -18.026  0.00  0.00    -0.333 NA
ATOM      3  N   UNL     1      34.600 -22.826 -17.668  0.00  0.00    -0.113 NA
ATOM      4  C   UNL     1      32.496 -23.182 -17.025  0.00  0.00    +0.211 C 
ATOM      5  C   UNL     1      33.698 -22.151 -18.383  0.00  0.00    +0.104 C 
ATOM      6  H   UNL     1      34.128 -24.089 -16.106  0.00  0.00    +0.178 HD
ENDROOT
BRANCH   4   8
ATOM      7  F   UNL     1      28.345 -25.347 -14.004  0.00  0.00    -0.204 F 
ATOM      8  C   UNL     1      31.423 -23.741 -16.244  0.00  0.00    +0.046 C 
ATOM      9  C   UNL     1      30.097 -23.476 -16.586  0.00  0.00    +0.006 C 
ATOM     10  C   UNL     1      31.708 -24.552 -15.142  0.00  0.00    +0.006 C 
ATOM     11  C   UNL     1      29.057 -24.018 -15.830  0.00  0.00    +0.030 C 
ATOM     12  C   UNL     1      30.668 -25.094 -14.385  0.00  0.00    +0.030 C 
ATOM     13  C   UNL     1      29.344 -24.827 -14.729  0.00  0.00    +0.140 C 
ENDBRANCH   4   8
BRANCH   5  14
ATOM     14  C   UNL     1      34.063 -21.279 -19.464  0.00  0.00    +0.075 C 
ATOM     15  C   UNL     1      35.403 -21.144 -19.830  0.00  0.00    +0.011 C 
ATOM     16  C   UNL     1      33.078 -20.568 -20.150  0.00  0.00    +0.011 C 
ATOM     17  C   UNL     1      35.756 -20.297 -20.880  0.00  0.00    +0.001 C 
ATOM     18  C   UNL     1      33.432 -19.721 -21.200  0.00  0.00    +0.001 C 
ATOM     19  C   UNL     1      34.772 -19.586 -21.566  0.00  0.00    +0.000 C 
ENDBRANCH   5  14
TORSDOF 2
ENDMDL
MODEL 9
REMARK VINA RESULT:      -9.4      4.033      7.484
REMARK  Name = 12195517
REMARK  2 active torsions:
REMARK  status: ('A' for Active; 'I' for Inactive)
REMARK    1  A    between atoms: C_4  and  C_8
REMARK    2  A    between atoms: C_5  and  C_14
REMARK                            x       y       z     vdW  Elec       q    Type
REMARK                         _______ _______ _______ _____ _____    ______ ____
ROOT
ATOM      1  N   UNL     1      36.725 -19.857 -20.234  0.00  0.00    -0.200 N 
ATOM      2  N   UNL     1      34.729 -19.902 -21.124  0.00  0.00    -0.333 NA
ATOM      3  N   UNL     1      36.828 -19.003 -21.262  0.00  0.00    -0.113 NA
ATOM      4  C   UNL     1      35.474 -20.388 -20.159  0.00  0.00    +0.211 C 
ATOM      5  C   UNL     1      35.595 -19.065 -21.768  0.00  0.00    +0.104 C 
ATOM      6  H   UNL     1      37.458 -20.074 -19.614  0.00  0.00    +0.178 HD
ENDROOT
BRANCH   4   8
ATOM      7  F   UNL     1      33.957 -24.058 -16.251  0.00  0.00    -0.204 F 
ATOM      8  C   UNL     1      35.082 -21.336 -19.148  0.00  0.00    +0.046 C 
ATOM      9  C   UNL     1      33.806 -21.899 -19.176  0.00  0.00    +0.006 C 
ATOM     10  C   UNL     1      35.978 -21.695 -18.138  0.00  0.00    +0.006 C 
ATOM     11  C   UNL     1      33.426 -22.819 -18.197  0.00  0.00    +0.030 C 
ATOM     12  C   UNL     1      35.599 -22.614 -17.160  0.00  0.00    +0.030 C 
ATOM     13  C   UNL     1      34.323 -23.176 -17.190  0.00  0.00    +0.140 C 
ENDBRANCH   4   8
BRANCH   5  14
ATOM     14  C   UNL     1      35.191 -18.305 -22.917  0.00  0.00    +0.075 C 
ATOM     15  C   UNL     1      34.785 -18.961 -24.080  0.00  0.00    +0.011 C 
ATOM     16  C   UNL     1      35.203 -16.911 -22.871  0.00  0.00    +0.011 C 
ATOM     17  C   UNL     1      34.392 -18.222 -25.196  0.00  0.00    +0.001 C 
ATOM     18  C   UNL     1      34.811 -16.172 -23.987  0.00  0.00    +0.001 C 
ATOM     19  C   UNL     1      34.405 -16.828 -25.150  0.00  0.00    +0.000 C 
ENDBRANCH   5  14
TORSDOF 2
ENDMDL
