MODEL 1
REMARK VINA RESULT:     -11.9      0.000      0.000
REMARK  Name = 46861612
REMARK  7 active torsions:
REMARK  status: ('A' for Active; 'I' for Inactive)
REMARK    1  A    between atoms: C_1  and  N_2
REMARK    2  A    between atoms: C_1  and  C_17
REMARK    3  A    between atoms: N_3  and  C_11
REMARK    4  A    between atoms: C_17  and  C_18
REMARK    5  A    between atoms: C_18  and  C_19
REMARK    6  A    between atoms: C_19  and  O_20
REMARK    7  A    between atoms: O_20  and  C_24
REMARK                            x       y       z     vdW  Elec       q    Type
REMARK                         _______ _______ _______ _____ _____    ______ ____
ROOT
ATOM      1  C   UNL     1      36.176 -21.808 -18.510  0.00  0.00    -0.077 C 
ENDROOT
BRANCH   1   2
ATOM      2  N   UNL     1      35.794 -20.637 -19.298  0.00  0.00    +0.389 N 
ATOM      3  N   UNL     1      35.195 -19.179 -21.680  0.00  0.00    -0.311 N 
ATOM      4  C   UNL     1      36.863 -20.275 -20.236  0.00  0.00    -0.055 C 
ATOM      5  C   UNL     1      34.551 -20.895 -20.034  0.00  0.00    -0.055 C 
ATOM      6  C   UNL     1      34.108 -19.657 -20.818  0.00  0.00    +0.068 C 
ATOM      7  C   UNL     1      36.500 -19.017 -21.026  0.00  0.00    +0.068 C 
ATOM      8  H   UNL     1      35.641 -19.858 -18.656  0.00  0.00    -0.080 HD
BRANCH   3  11
ATOM      9 CL   UNL     1      34.879 -16.264 -21.057  0.00  0.00    -0.080 Cl
ATOM     10 CL   UNL     1      34.207 -14.484 -23.642  0.00  0.00    -0.081 Cl
ATOM     11  C   UNL     1      34.901 -18.358 -22.775  0.00  0.00    +0.059 C 
ATOM     12  C   UNL     1      34.727 -16.981 -22.631  0.00  0.00    +0.081 C 
ATOM     13  C   UNL     1      34.783 -18.949 -24.033  0.00  0.00    +0.015 C 
ATOM     14  C   UNL     1      34.435 -16.196 -23.746  0.00  0.00    +0.069 C 
ATOM     15  C   UNL     1      34.491 -18.163 -25.148  0.00  0.00    +0.002 C 
ATOM     16  C   UNL     1      34.317 -16.787 -25.004  0.00  0.00    +0.012 C 
ENDBRANCH   3  11
ENDBRANCH   1   2
BRANCH   1  17
ATOM     17  C   UNL     1      36.907 -21.378 -17.239  0.00  0.00    -0.019 C 
BRANCH  17  18
ATOM     18  C   UNL     1      37.450 -22.586 -16.478  0.00  0.00    +0.045 C 
BRANCH  18  19
ATOM     19  C   UNL     1      36.468 -23.072 -15.420  0.00  0.00    +0.205 C 
BRANCH  19  20
ATOM     20  O   UNL     1      35.532 -23.967 -16.007  0.00  0.00    -0.475 OA
BRANCH  20  24
ATOM     21  O   UNL     1      30.325 -23.557 -14.207  0.00  0.00    -0.464 OA
ATOM     22  O   UNL     1      28.726 -22.278 -17.185  0.00  0.00    -0.271 OA
ATOM     23  N   UNL     1      30.941 -22.803 -16.862  0.00  0.00    -0.278 N 
ATOM     24  C   UNL     1      34.233 -23.870 -15.579  0.00  0.00    +0.140 C 
ATOM     25  C   UNL     1      33.247 -23.399 -16.446  0.00  0.00    +0.055 C 
ATOM     26  C   UNL     1      31.925 -23.310 -16.007  0.00  0.00    +0.088 C 
ATOM     27  C   UNL     1      33.900 -24.238 -14.275  0.00  0.00    +0.040 C 
ATOM     28  C   UNL     1      31.590 -23.680 -14.706  0.00  0.00    +0.153 C 
ATOM     29  C   UNL     1      32.580 -24.136 -13.835  0.00  0.00    +0.041 C 
ATOM     30  C   UNL     1      29.314 -23.499 -15.195  0.00  0.00    +0.290 C 
ATOM     31  C   UNL     1      29.615 -22.774 -16.496  0.00  0.00    +0.271 C 
ATOM     32  H   UNL     1      31.203 -22.460 -17.746  0.00  0.00    +0.155 HD
ENDBRANCH  20  24
ENDBRANCH  19  20
ENDBRANCH  18  19
ENDBRANCH  17  18
ENDBRANCH   1  17
TORSDOF 7
ENDMDL
MODEL 2
REMARK VINA RESULT:     -11.6      3.849      6.741
REMARK  Name = 46861612
REMARK  7 active torsions:
REMARK  status: ('A' for Active; 'I' for Inactive)
REMARK    1  A    between atoms: C_1  and  N_2
REMARK    2  A    between atoms: C_1  and  C_17
REMARK    3  A    between atoms: N_3  and  C_11
REMARK    4  A    between atoms: C_17  and  C_18
REMARK    5  A    between atoms: C_18  and  C_19
REMARK    6  A    between atoms: C_19  and  O_20
REMARK    7  A    between atoms: O_20  and  C_24
REMARK                            x       y       z     vdW  Elec       q    Type
REMARK                         _______ _______ _______ _____ _____    ______ ____
ROOT
ATOM      1  C   UNL     1      34.675 -17.019 -25.252  0.00  0.00    -0.077 C 
ENDROOT
BRANCH   1   2
ATOM      2  N   UNL     1      33.910 -15.949 -24.614  0.00  0.00    +0.389 N 
ATOM      3  N   UNL     1      33.349 -13.268 -23.805  0.00  0.00    -0.311 N 
ATOM      4  C   UNL     1      34.698 -15.314 -23.551  0.00  0.00    -0.055 C 
ATOM      5  C   UNL     1      33.505 -14.944 -25.604  0.00  0.00    -0.055 C 
ATOM      6  C   UNL     1      32.654 -13.848 -24.959  0.00  0.00    +0.068 C 
ATOM      7  C   UNL     1      33.886 -14.232 -22.836  0.00  0.00    +0.068 C 
ATOM      8  H   UNL     1      33.072 -16.361 -24.201  0.00  0.00    -0.080 HD
BRANCH   3  11
ATOM      9 CL   UNL     1      34.782 -10.962 -25.072  0.00  0.00    -0.080 Cl
ATOM     10 CL   UNL     1      33.857  -8.111 -23.920  0.00  0.00    -0.081 Cl
ATOM     11  C   UNL     1      32.980 -12.001 -23.337  0.00  0.00    +0.059 C 
ATOM     12  C   UNL     1      33.567 -10.838 -23.838  0.00  0.00    +0.081 C 
ATOM     13  C   UNL     1      32.002 -11.919 -22.347  0.00  0.00    +0.015 C 
ATOM     14  C   UNL     1      33.174  -9.593 -23.347  0.00  0.00    +0.069 C 
ATOM     15  C   UNL     1      31.609 -10.674 -21.856  0.00  0.00    +0.002 C 
ATOM     16  C   UNL     1      32.196  -9.511 -22.356  0.00  0.00    +0.012 C 
ENDBRANCH   3  11
ENDBRANCH   1   2
BRANCH   1  17
ATOM     17  C   UNL     1      34.110 -18.383 -24.863  0.00  0.00    -0.019 C 
BRANCH  17  18
ATOM     18  C   UNL     1      35.138 -19.208 -24.091  0.00  0.00    +0.045 C 
BRANCH  18  19
ATOM     19  C   UNL     1      35.230 -18.772 -22.634  0.00  0.00    +0.205 C 
BRANCH  19  20
ATOM     20  O   UNL     1      34.095 -19.243 -21.919  0.00  0.00    -0.475 OA
BRANCH  20  24
ATOM     21  O   UNL     1      35.125 -22.704 -17.737  0.00  0.00    -0.464 OA
ATOM     22  O   UNL     1      31.749 -23.429 -16.671  0.00  0.00    -0.271 OA
ATOM     23  N   UNL     1      32.448 -22.057 -18.379  0.00  0.00    -0.278 N 
ATOM     24  C   UNL     1      34.333 -20.113 -20.886  0.00  0.00    +0.140 C 
ATOM     25  C   UNL     1      33.265 -20.653 -20.170  0.00  0.00    +0.055 C 
ATOM     26  C   UNL     1      33.514 -21.543 -19.123  0.00  0.00    +0.088 C 
ATOM     27  C   UNL     1      35.644 -20.451 -20.549  0.00  0.00    +0.040 C 
ATOM     28  C   UNL     1      34.823 -21.885 -18.788  0.00  0.00    +0.153 C 
ATOM     29  C   UNL     1      35.891 -21.332 -19.495  0.00  0.00    +0.041 C 
ATOM     30  C   UNL     1      34.061 -23.544 -17.331  0.00  0.00    +0.290 C 
ATOM     31  C   UNL     1      32.644 -22.998 -17.395  0.00  0.00    +0.271 C 
ATOM     32  H   UNL     1      31.535 -21.740 -18.565  0.00  0.00    +0.155 HD
ENDBRANCH  20  24
ENDBRANCH  19  20
ENDBRANCH  18  19
ENDBRANCH  17  18
ENDBRANCH   1  17
TORSDOF 7
ENDMDL
MODEL 3
REMARK VINA RESULT:     -11.4      7.011     11.363
REMARK  Name = 46861612
REMARK  7 active torsions:
REMARK  status: ('A' for Active; 'I' for Inactive)
REMARK    1  A    between atoms: C_1  and  N_2
REMARK    2  A    between atoms: C_1  and  C_17
REMARK    3  A    between atoms: N_3  and  C_11
REMARK    4  A    between atoms: C_17  and  C_18
REMARK    5  A    between atoms: C_18  and  C_19
REMARK    6  A    between atoms: C_19  and  O_20
REMARK    7  A    between atoms: O_20  and  C_24
REMARK                            x       y       z     vdW  Elec       q    Type
REMARK                         _______ _______ _______ _____ _____    ______ ____
ROOT
ATOM      1  C   UNL     1      34.200 -15.580 -24.217  0.00  0.00    -0.077 C 
ENDROOT
BRANCH   1   2
ATOM      2  N   UNL     1      34.872 -16.583 -23.392  0.00  0.00    +0.389 N 
ATOM      3  N   UNL     1      35.036 -18.784 -21.579  0.00  0.00    -0.311 N 
ATOM      4  C   UNL     1      34.518 -16.408 -21.978  0.00  0.00    -0.055 C 
ATOM      5  C   UNL     1      34.514 -17.936 -23.833  0.00  0.00    -0.055 C 
ATOM      6  C   UNL     1      35.255 -18.995 -23.014  0.00  0.00    +0.068 C 
ATOM      7  C   UNL     1      35.260 -17.415 -21.097  0.00  0.00    +0.068 C 
ATOM      8  H   UNL     1      35.879 -16.457 -23.497  0.00  0.00    -0.080 HD
BRANCH   3  11
ATOM      9 CL   UNL     1      32.549 -20.106 -20.557  0.00  0.00    -0.080 Cl
ATOM     10 CL   UNL     1      33.143 -22.506 -18.509  0.00  0.00    -0.081 Cl
ATOM     11  C   UNL     1      35.242 -19.839 -20.683  0.00  0.00    +0.059 C 
ATOM     12  C   UNL     1      34.173 -20.544 -20.127  0.00  0.00    +0.081 C 
ATOM     13  C   UNL     1      36.552 -20.179 -20.348  0.00  0.00    +0.015 C 
ATOM     14  C   UNL     1      34.417 -21.589 -19.236  0.00  0.00    +0.069 C 
ATOM     15  C   UNL     1      36.795 -21.225 -19.458  0.00  0.00    +0.002 C 
ATOM     16  C   UNL     1      35.727 -21.930 -18.902  0.00  0.00    +0.012 C 
ENDBRANCH   3  11
ENDBRANCH   1   2
BRANCH   1  17
ATOM     17  C   UNL     1      34.163 -14.234 -23.495  0.00  0.00    -0.019 C 
BRANCH  17  18
ATOM     18  C   UNL     1      32.726 -13.766 -23.270  0.00  0.00    +0.045 C 
BRANCH  18  19
ATOM     19  C   UNL     1      32.451 -13.485 -21.799  0.00  0.00    +0.205 C 
BRANCH  19  20
ATOM     20  O   UNL     1      31.330 -12.619 -21.677  0.00  0.00    -0.475 OA
BRANCH  20  24
ATOM     21  O   UNL     1      32.358  -7.570 -19.683  0.00  0.00    -0.464 OA
ATOM     22  O   UNL     1      32.344  -5.664 -22.753  0.00  0.00    -0.271 OA
ATOM     23  N   UNL     1      32.013  -7.921 -22.468  0.00  0.00    -0.278 N 
ATOM     24  C   UNL     1      31.573 -11.358 -21.197  0.00  0.00    +0.140 C 
ATOM     25  C   UNL     1      31.654 -10.280 -22.079  0.00  0.00    +0.055 C 
ATOM     26  C   UNL     1      31.895  -8.998 -21.583  0.00  0.00    +0.088 C 
ATOM     27  C   UNL     1      31.745 -11.155 -19.827  0.00  0.00    +0.040 C 
ATOM     28  C   UNL     1      32.063  -8.793 -20.215  0.00  0.00    +0.153 C 
ATOM     29  C   UNL     1      31.997  -9.874 -19.336  0.00  0.00    +0.041 C 
ATOM     30  C   UNL     1      32.012  -6.477 -20.512  0.00  0.00    +0.290 C 
ATOM     31  C   UNL     1      32.169  -6.632 -22.016  0.00  0.00    +0.271 C 
ATOM     32  H   UNL     1      31.983  -8.090 -23.437  0.00  0.00    +0.155 HD
ENDBRANCH  20  24
ENDBRANCH  19  20
ENDBRANCH  18  19
ENDBRANCH  17  18
ENDBRANCH   1  17
TORSDOF 7
ENDMDL
MODEL 4
REMARK VINA RESULT:     -11.4      1.141      1.820
REMARK  Name = 46861612
REMARK  7 active torsions:
REMARK  status: ('A' for Active; 'I' for Inactive)
REMARK    1  A    between atoms: C_1  and  N_2
REMARK    2  A    between atoms: C_1  and  C_17
REMARK    3  A    between atoms: N_3  and  C_11
REMARK    4  A    between atoms: C_17  and  C_18
REMARK    5  A    between atoms: C_18  and  C_19
REMARK    6  A    between atoms: C_19  and  O_20
REMARK    7  A    between atoms: O_20  and  C_24
REMARK                            x       y       z     vdW  Elec       q    Type
REMARK                         _______ _______ _______ _____ _____    ______ ____
ROOT
ATOM      1  C   UNL     1      36.127 -21.934 -19.156  0.00  0.00    -0.077 C 
ENDROOT
BRANCH   1   2
ATOM      2  N   UNL     1      35.827 -20.969 -20.213  0.00  0.00    +0.389 N 
ATOM      3  N   UNL     1      35.149 -18.416 -21.298  0.00  0.00    -0.311 N 
ATOM      4  C   UNL     1      34.472 -20.428 -20.049  0.00  0.00    -0.055 C 
ATOM      5  C   UNL     1      36.805 -19.876 -20.206  0.00  0.00    -0.055 C 
ATOM      6  C   UNL     1      36.537 -18.888 -21.344  0.00  0.00    +0.068 C 
ATOM      7  C   UNL     1      34.125 -19.461 -21.182  0.00  0.00    +0.068 C 
ATOM      8  H   UNL     1      35.881 -21.454 -21.110  0.00  0.00    -0.080 HD
BRANCH   3  11
ATOM      9 CL   UNL     1      34.738 -18.625 -24.259  0.00  0.00    -0.080 Cl
ATOM     10 CL   UNL     1      33.947 -15.830 -25.626  0.00  0.00    -0.081 Cl
ATOM     11  C   UNL     1      34.801 -17.223 -21.942  0.00  0.00    +0.059 C 
ATOM     12  C   UNL     1      34.580 -17.173 -23.319  0.00  0.00    +0.081 C 
ATOM     13  C   UNL     1      34.678 -16.066 -21.173  0.00  0.00    +0.015 C 
ATOM     14  C   UNL     1      34.236 -15.965 -23.926  0.00  0.00    +0.069 C 
ATOM     15  C   UNL     1      34.332 -14.858 -21.781  0.00  0.00    +0.002 C 
ATOM     16  C   UNL     1      34.112 -14.808 -23.157  0.00  0.00    +0.012 C 
ENDBRANCH   3  11
ENDBRANCH   1   2
BRANCH   1  17
ATOM     17  C   UNL     1      36.673 -21.218 -17.922  0.00  0.00    -0.019 C 
BRANCH  17  18
ATOM     18  C   UNL     1      37.202 -22.214 -16.893  0.00  0.00    +0.045 C 
BRANCH  18  19
ATOM     19  C   UNL     1      36.172 -22.500 -15.807  0.00  0.00    +0.205 C 
BRANCH  19  20
ATOM     20  O   UNL     1      35.439 -23.672 -16.136  0.00  0.00    -0.475 OA
BRANCH  20  24
ATOM     21  O   UNL     1      30.204 -23.861 -14.378  0.00  0.00    -0.464 OA
ATOM     22  O   UNL     1      28.538 -22.316 -17.188  0.00  0.00    -0.271 OA
ATOM     23  N   UNL     1      30.782 -22.725 -16.902  0.00  0.00    -0.278 N 
ATOM     24  C   UNL     1      34.133 -23.722 -15.720  0.00  0.00    +0.140 C 
ATOM     25  C   UNL     1      33.122 -23.211 -16.533  0.00  0.00    +0.055 C 
ATOM     26  C   UNL     1      31.795 -23.270 -16.106  0.00  0.00    +0.088 C 
ATOM     27  C   UNL     1      33.819 -24.279 -14.480  0.00  0.00    +0.040 C 
ATOM     28  C   UNL     1      31.478 -23.830 -14.870  0.00  0.00    +0.153 C 
ATOM     29  C   UNL     1      32.492 -24.328 -14.051  0.00  0.00    +0.041 C 
ATOM     30  C   UNL     1      29.198 -23.743 -15.366  0.00  0.00    +0.290 C 
ATOM     31  C   UNL     1      29.456 -22.835 -16.556  0.00  0.00    +0.271 C 
ATOM     32  H   UNL     1      31.025 -22.252 -17.731  0.00  0.00    +0.155 HD
ENDBRANCH  20  24
ENDBRANCH  19  20
ENDBRANCH  18  19
ENDBRANCH  17  18
ENDBRANCH   1  17
TORSDOF 7
ENDMDL
MODEL 5
REMARK VINA RESULT:     -11.3      2.342      4.684
REMARK  Name = 46861612
REMARK  7 active torsions:
REMARK  status: ('A' for Active; 'I' for Inactive)
REMARK    1  A    between atoms: C_1  and  N_2
REMARK    2  A    between atoms: C_1  and  C_17
REMARK    3  A    between atoms: N_3  and  C_11
REMARK    4  A    between atoms: C_17  and  C_18
REMARK    5  A    between atoms: C_18  and  C_19
REMARK    6  A    between atoms: C_19  and  O_20
REMARK    7  A    between atoms: O_20  and  C_24
REMARK                            x       y       z     vdW  Elec       q    Type
REMARK                         _______ _______ _______ _____ _____    ______ ____
ROOT
ATOM      1  C   UNL     1      34.813 -22.164 -18.749  0.00  0.00    -0.077 C 
ENDROOT
BRANCH   1   2
ATOM      2  N   UNL     1      34.769 -20.884 -19.455  0.00  0.00    +0.389 N 
ATOM      3  N   UNL     1      34.662 -19.166 -21.733  0.00  0.00    -0.311 N 
ATOM      4  C   UNL     1      35.939 -20.736 -20.328  0.00  0.00    -0.055 C 
ATOM      5  C   UNL     1      33.538 -20.776 -20.246  0.00  0.00    -0.055 C 
ATOM      6  C   UNL     1      33.451 -19.418 -20.946  0.00  0.00    +0.068 C 
ATOM      7  C   UNL     1      35.933 -19.376 -21.029  0.00  0.00    +0.068 C 
ATOM      8  H   UNL     1      34.780 -20.138 -18.759  0.00  0.00    -0.080 HD
BRANCH   3  11
ATOM      9 CL   UNL     1      34.504 -16.301 -20.869  0.00  0.00    -0.080 Cl
ATOM     10 CL   UNL     1      34.440 -14.240 -23.330  0.00  0.00    -0.081 Cl
ATOM     11  C   UNL     1      34.632 -18.226 -22.770  0.00  0.00    +0.059 C 
ATOM     12  C   UNL     1      34.559 -16.857 -22.513  0.00  0.00    +0.081 C 
ATOM     13  C   UNL     1      34.678 -18.689 -24.085  0.00  0.00    +0.015 C 
ATOM     14  C   UNL     1      34.530 -15.950 -23.573  0.00  0.00    +0.069 C 
ATOM     15  C   UNL     1      34.650 -17.781 -25.144  0.00  0.00    +0.002 C 
ATOM     16  C   UNL     1      34.575 -16.412 -24.888  0.00  0.00    +0.012 C 
ENDBRANCH   3  11
ENDBRANCH   1   2
BRANCH   1  17
ATOM     17  C   UNL     1      33.425 -22.535 -18.230  0.00  0.00    -0.019 C 
BRANCH  17  18
ATOM     18  C   UNL     1      33.483 -23.758 -17.318  0.00  0.00    +0.045 C 
BRANCH  18  19
ATOM     19  C   UNL     1      33.140 -23.403 -15.878  0.00  0.00    +0.205 C 
BRANCH  19  20
ATOM     20  O   UNL     1      34.230 -22.713 -15.280  0.00  0.00    -0.475 OA
BRANCH  20  24
ATOM     21  O   UNL     1      38.073 -25.859 -12.860  0.00  0.00    -0.464 OA
ATOM     22  O   UNL     1      40.610 -25.848 -15.433  0.00  0.00    -0.271 OA
ATOM     23  N   UNL     1      38.556 -24.815 -15.443  0.00  0.00    -0.278 N 
ATOM     24  C   UNL     1      35.198 -23.482 -14.688  0.00  0.00    +0.140 C 
ATOM     25  C   UNL     1      36.391 -23.743 -15.364  0.00  0.00    +0.055 C 
ATOM     26  C   UNL     1      37.375 -24.521 -14.754  0.00  0.00    +0.088 C 
ATOM     27  C   UNL     1      34.988 -24.008 -13.414  0.00  0.00    +0.040 C 
ATOM     28  C   UNL     1      37.169 -25.044 -13.479  0.00  0.00    +0.153 C 
ATOM     29  C   UNL     1      35.969 -24.795 -12.810  0.00  0.00    +0.041 C 
ATOM     30  C   UNL     1      39.392 -25.747 -13.360  0.00  0.00    +0.290 C 
ATOM     31  C   UNL     1      39.584 -25.509 -14.848  0.00  0.00    +0.271 C 
ATOM     32  H   UNL     1      38.655 -24.517 -16.376  0.00  0.00    +0.155 HD
ENDBRANCH  20  24
ENDBRANCH  19  20
ENDBRANCH  18  19
ENDBRANCH  17  18
ENDBRANCH   1  17
TORSDOF 7
ENDMDL
MODEL 6
REMARK VINA RESULT:     -11.2      3.790      6.951
REMARK  Name = 46861612
REMARK  7 active torsions:
REMARK  status: ('A' for Active; 'I' for Inactive)
REMARK    1  A    between atoms: C_1  and  N_2
REMARK    2  A    between atoms: C_1  and  C_17
REMARK    3  A    between atoms: N_3  and  C_11
REMARK    4  A    between atoms: C_17  and  C_18
REMARK    5  A    between atoms: C_18  and  C_19
REMARK    6  A    between atoms: C_19  and  O_20
REMARK    7  A    between atoms: O_20  and  C_24
REMARK                            x       y       z     vdW  Elec       q    Type
REMARK                         _______ _______ _______ _____ _____    ______ ____
ROOT
ATOM      1  C   UNL     1      34.605 -17.091 -25.057  0.00  0.00    -0.077 C 
ENDROOT
BRANCH   1   2
ATOM      2  N   UNL     1      33.860 -15.976 -24.474  0.00  0.00    +0.389 N 
ATOM      3  N   UNL     1      33.366 -13.251 -23.775  0.00  0.00    -0.311 N 
ATOM      4  C   UNL     1      34.647 -15.326 -23.420  0.00  0.00    -0.055 C 
ATOM      5  C   UNL     1      33.504 -14.997 -25.507  0.00  0.00    -0.055 C 
ATOM      6  C   UNL     1      32.675 -13.853 -24.920  0.00  0.00    +0.068 C 
ATOM      7  C   UNL     1      33.856 -14.194 -22.761  0.00  0.00    +0.068 C 
ATOM      8  H   UNL     1      33.003 -16.348 -24.063  0.00  0.00    -0.080 HD
BRANCH   3  11
ATOM      9 CL   UNL     1      34.825 -11.033 -25.164  0.00  0.00    -0.080 Cl
ATOM     10 CL   UNL     1      33.969  -8.116 -24.133  0.00  0.00    -0.081 Cl
ATOM     11  C   UNL     1      33.027 -11.958 -23.362  0.00  0.00    +0.059 C 
ATOM     12  C   UNL     1      33.629 -10.831 -23.922  0.00  0.00    +0.081 C 
ATOM     13  C   UNL     1      32.064 -11.812 -22.364  0.00  0.00    +0.015 C 
ATOM     14  C   UNL     1      33.266  -9.557 -23.484  0.00  0.00    +0.069 C 
ATOM     15  C   UNL     1      31.701 -10.538 -21.926  0.00  0.00    +0.002 C 
ATOM     16  C   UNL     1      32.302  -9.411 -22.486  0.00  0.00    +0.012 C 
ENDBRANCH   3  11
ENDBRANCH   1   2
BRANCH   1  17
ATOM     17  C   UNL     1      35.365 -17.849 -23.971  0.00  0.00    -0.019 C 
BRANCH  17  18
ATOM     18  C   UNL     1      34.578 -19.067 -23.492  0.00  0.00    +0.045 C 
BRANCH  18  19
ATOM     19  C   UNL     1      34.462 -19.100 -21.974  0.00  0.00    +0.205 C 
BRANCH  19  20
ATOM     20  O   UNL     1      35.597 -19.750 -21.418  0.00  0.00    -0.475 OA
BRANCH  20  24
ATOM     21  O   UNL     1      34.646 -23.113 -17.139  0.00  0.00    -0.464 OA
ATOM     22  O   UNL     1      37.858 -22.961 -15.490  0.00  0.00    -0.271 OA
ATOM     23  N   UNL     1      37.185 -21.899 -17.415  0.00  0.00    -0.278 N 
ATOM     24  C   UNL     1      35.373 -20.572 -20.344  0.00  0.00    +0.140 C 
ATOM     25  C   UNL     1      36.391 -20.803 -19.419  0.00  0.00    +0.055 C 
ATOM     26  C   UNL     1      36.155 -21.636 -18.324  0.00  0.00    +0.088 C 
ATOM     27  C   UNL     1      34.129 -21.182 -20.181  0.00  0.00    +0.040 C 
ATOM     28  C   UNL     1      34.912 -22.243 -18.158  0.00  0.00    +0.153 C 
ATOM     29  C   UNL     1      33.899 -22.024 -19.092  0.00  0.00    +0.041 C 
ATOM     30  C   UNL     1      35.512 -22.986 -16.027  0.00  0.00    +0.290 C 
ATOM     31  C   UNL     1      36.971 -22.648 -16.281  0.00  0.00    +0.271 C 
ATOM     32  H   UNL     1      38.084 -21.538 -17.590  0.00  0.00    +0.155 HD
ENDBRANCH  20  24
ENDBRANCH  19  20
ENDBRANCH  18  19
ENDBRANCH  17  18
ENDBRANCH   1  17
TORSDOF 7
ENDMDL
MODEL 7
REMARK VINA RESULT:     -11.0      6.519     11.840
REMARK  Name = 46861612
REMARK  7 active torsions:
REMARK  status: ('A' for Active; 'I' for Inactive)
REMARK    1  A    between atoms: C_1  and  N_2
REMARK    2  A    between atoms: C_1  and  C_17
REMARK    3  A    between atoms: N_3  and  C_11
REMARK    4  A    between atoms: C_17  and  C_18
REMARK    5  A    between atoms: C_18  and  C_19
REMARK    6  A    between atoms: C_19  and  O_20
REMARK    7  A    between atoms: O_20  and  C_24
REMARK                            x       y       z     vdW  Elec       q    Type
REMARK                         _______ _______ _______ _____ _____    ______ ____
ROOT
ATOM      1  C   UNL     1      34.430 -15.360 -24.116  0.00  0.00    -0.077 C 
ENDROOT
BRANCH   1   2
ATOM      2  N   UNL     1      35.051 -16.373 -23.264  0.00  0.00    +0.389 N 
ATOM      3  N   UNL     1      35.116 -18.659 -21.553  0.00  0.00    -0.311 N 
ATOM      4  C   UNL     1      34.522 -16.293 -21.897  0.00  0.00    -0.055 C 
ATOM      5  C   UNL     1      34.822 -17.716 -23.810  0.00  0.00    -0.055 C 
ATOM      6  C   UNL     1      35.517 -18.782 -22.958  0.00  0.00    +0.068 C 
ATOM      7  C   UNL     1      35.206 -17.309 -20.982  0.00  0.00    +0.068 C 
ATOM      8  H   UNL     1      36.056 -16.194 -23.239  0.00  0.00    -0.080 HD
BRANCH   3  11
ATOM      9 CL   UNL     1      32.566 -19.893 -20.575  0.00  0.00    -0.080 Cl
ATOM     10 CL   UNL     1      33.041 -22.382 -18.603  0.00  0.00    -0.081 Cl
ATOM     11  C   UNL     1      35.269 -19.751 -20.690  0.00  0.00    +0.059 C 
ATOM     12  C   UNL     1      34.167 -20.421 -20.158  0.00  0.00    +0.081 C 
ATOM     13  C   UNL     1      36.561 -20.163 -20.365  0.00  0.00    +0.015 C 
ATOM     14  C   UNL     1      34.359 -21.505 -19.300  0.00  0.00    +0.069 C 
ATOM     15  C   UNL     1      36.752 -21.247 -19.508  0.00  0.00    +0.002 C 
ATOM     16  C   UNL     1      35.651 -21.917 -18.975  0.00  0.00    +0.012 C 
ENDBRANCH   3  11
ENDBRANCH   1   2
BRANCH   1  17
ATOM     17  C   UNL     1      33.756 -16.018 -25.319  0.00  0.00    -0.019 C 
BRANCH  17  18
ATOM     18  C   UNL     1      33.115 -14.975 -26.232  0.00  0.00    +0.045 C 
BRANCH  18  19
ATOM     19  C   UNL     1      32.949 -13.636 -25.527  0.00  0.00    +0.205 C 
BRANCH  19  20
ATOM     20  O   UNL     1      33.814 -12.672 -26.113  0.00  0.00    -0.475 OA
BRANCH  20  24
ATOM     21  O   UNL     1      34.623  -7.945 -23.369  0.00  0.00    -0.464 OA
ATOM     22  O   UNL     1      31.830  -8.060 -21.078  0.00  0.00    -0.271 OA
ATOM     23  N   UNL     1      32.419  -9.585 -22.694  0.00  0.00    -0.278 N 
ATOM     24  C   UNL     1      34.007 -11.508 -25.415  0.00  0.00    +0.140 C 
ATOM     25  C   UNL     1      33.121 -11.150 -24.399  0.00  0.00    +0.055 C 
ATOM     26  C   UNL     1      33.327  -9.967 -23.688  0.00  0.00    +0.088 C 
ATOM     27  C   UNL     1      35.087 -10.682 -25.725  0.00  0.00    +0.040 C 
ATOM     28  C   UNL     1      34.407  -9.141 -23.993  0.00  0.00    +0.153 C 
ATOM     29  C   UNL     1      35.285  -9.494 -25.020  0.00  0.00    +0.041 C 
ATOM     30  C   UNL     1      33.994  -7.829 -22.107  0.00  0.00    +0.290 C 
ATOM     31  C   UNL     1      32.630  -8.471 -21.916  0.00  0.00    +0.271 C 
ATOM     32  H   UNL     1      31.612 -10.128 -22.547  0.00  0.00    +0.155 HD
ENDBRANCH  20  24
ENDBRANCH  19  20
ENDBRANCH  18  19
ENDBRANCH  17  18
ENDBRANCH   1  17
TORSDOF 7
ENDMDL
MODEL 8
REMARK VINA RESULT:     -11.0      6.109      9.121
REMARK  Name = 46861612
REMARK  7 active torsions:
REMARK  status: ('A' for Active; 'I' for Inactive)
REMARK    1  A    between atoms: C_1  and  N_2
REMARK    2  A    between atoms: C_1  and  C_17
REMARK    3  A    between atoms: N_3  and  C_11
REMARK    4  A    between atoms: C_17  and  C_18
REMARK    5  A    between atoms: C_18  and  C_19
REMARK    6  A    between atoms: C_19  and  O_20
REMARK    7  A    between atoms: O_20  and  C_24
REMARK                            x       y       z     vdW  Elec       q    Type
REMARK                         _______ _______ _______ _____ _____    ______ ____
ROOT
ATOM      1  C   UNL     1      32.813 -14.155 -23.181  0.00  0.00    -0.077 C 
ENDROOT
BRANCH   1   2
ATOM      2  N   UNL     1      32.370 -12.762 -23.141  0.00  0.00    +0.389 N 
ATOM      3  N   UNL     1      32.300 -10.075 -22.176  0.00  0.00    -0.311 N 
ATOM      4  C   UNL     1      31.753 -12.454 -21.845  0.00  0.00    -0.055 C 
ATOM      5  C   UNL     1      33.498 -11.855 -23.384  0.00  0.00    -0.055 C 
ATOM      6  C   UNL     1      33.038 -10.396 -23.401  0.00  0.00    +0.068 C 
ATOM      7  C   UNL     1      31.233 -11.016 -21.811  0.00  0.00    +0.068 C 
ATOM      8  H   UNL     1      31.675 -12.628 -23.876  0.00  0.00    -0.080 HD
BRANCH   3  11
ATOM      9 CL   UNL     1      31.068  -8.246 -24.206  0.00  0.00    -0.080 Cl
ATOM     10 CL   UNL     1      30.809  -5.214 -23.184  0.00  0.00    -0.081 Cl
ATOM     11  C   UNL     1      32.163  -8.740 -21.778  0.00  0.00    +0.059 C 
ATOM     12  C   UNL     1      31.607  -7.778 -22.623  0.00  0.00    +0.081 C 
ATOM     13  C   UNL     1      32.601  -8.380 -20.503  0.00  0.00    +0.015 C 
ATOM     14  C   UNL     1      31.488  -6.457 -22.191  0.00  0.00    +0.069 C 
ATOM     15  C   UNL     1      32.481  -7.059 -20.072  0.00  0.00    +0.002 C 
ATOM     16  C   UNL     1      31.925  -6.097 -20.917  0.00  0.00    +0.012 C 
ENDBRANCH   3  11
ENDBRANCH   1   2
BRANCH   1  17
ATOM     17  C   UNL     1      32.849 -14.743 -21.772  0.00  0.00    -0.019 C 
BRANCH  17  18
ATOM     18  C   UNL     1      34.189 -15.418 -21.488  0.00  0.00    +0.045 C 
BRANCH  18  19
ATOM     19  C   UNL     1      34.851 -15.913 -22.767  0.00  0.00    +0.205 C 
BRANCH  19  20
ATOM     20  O   UNL     1      34.421 -17.239 -23.049  0.00  0.00    -0.475 OA
BRANCH  20  24
ATOM     21  O   UNL     1      35.919 -21.099 -19.390  0.00  0.00    -0.464 OA
ATOM     22  O   UNL     1      32.680 -22.466 -18.554  0.00  0.00    -0.271 OA
ATOM     23  N   UNL     1      33.181 -20.766 -20.018  0.00  0.00    -0.278 N 
ATOM     24  C   UNL     1      34.777 -18.209 -22.148  0.00  0.00    +0.140 C 
ATOM     25  C   UNL     1      33.796 -19.003 -21.554  0.00  0.00    +0.055 C 
ATOM     26  C   UNL     1      34.165 -19.993 -20.643  0.00  0.00    +0.088 C 
ATOM     27  C   UNL     1      36.121 -18.397 -21.822  0.00  0.00    +0.040 C 
ATOM     28  C   UNL     1      35.507 -20.185 -20.318  0.00  0.00    +0.153 C 
ATOM     29  C   UNL     1      36.486 -19.380 -20.901  0.00  0.00    +0.041 C 
ATOM     30  C   UNL     1      34.989 -22.138 -19.147  0.00  0.00    +0.290 C 
ATOM     31  C   UNL     1      33.507 -21.804 -19.177  0.00  0.00    +0.271 C 
ATOM     32  H   UNL     1      32.233 -20.563 -20.185  0.00  0.00    +0.155 HD
ENDBRANCH  20  24
ENDBRANCH  19  20
ENDBRANCH  18  19
ENDBRANCH  17  18
ENDBRANCH   1  17
TORSDOF 7
ENDMDL
MODEL 9
REMARK VINA RESULT:     -10.9      9.155     13.824
REMARK  Name = 46861612
REMARK  7 active torsions:
REMARK  status: ('A' for Active; 'I' for Inactive)
REMARK    1  A    between atoms: C_1  and  N_2
REMARK    2  A    between atoms: C_1  and  C_17
REMARK    3  A    between atoms: N_3  and  C_11
REMARK    4  A    between atoms: C_17  and  C_18
REMARK    5  A    between atoms: C_18  and  C_19
REMARK    6  A    between atoms: C_19  and  O_20
REMARK    7  A    between atoms: O_20  and  C_24
REMARK                            x       y       z     vdW  Elec       q    Type
REMARK                         _______ _______ _______ _____ _____    ______ ____
ROOT
ATOM      1  C   UNL     1      31.618 -10.924 -21.829  0.00  0.00    -0.077 C 
ENDROOT
BRANCH   1   2
ATOM      2  N   UNL     1      31.886 -12.264 -22.350  0.00  0.00    +0.389 N 
ATOM      3  N   UNL     1      33.439 -14.612 -22.831  0.00  0.00    -0.311 N 
ATOM      4  C   UNL     1      33.004 -12.233 -23.301  0.00  0.00    -0.055 C 
ATOM      5  C   UNL     1      32.189 -13.191 -21.254  0.00  0.00    -0.055 C 
ATOM      6  C   UNL     1      32.416 -14.611 -21.780  0.00  0.00    +0.068 C 
ATOM      7  C   UNL     1      33.257 -13.619 -23.898  0.00  0.00    +0.068 C 
ATOM      8  H   UNL     1      31.049 -12.589 -22.835  0.00  0.00    -0.080 HD
BRANCH   3  11
ATOM      9 CL   UNL     1      34.810 -15.964 -20.535  0.00  0.00    -0.080 Cl
ATOM     10 CL   UNL     1      36.310 -18.675 -21.377  0.00  0.00    -0.081 Cl
ATOM     11  C   UNL     1      34.108 -15.801 -23.146  0.00  0.00    +0.059 C 
ATOM     12  C   UNL     1      34.790 -16.535 -22.175  0.00  0.00    +0.081 C 
ATOM     13  C   UNL     1      34.082 -16.246 -24.468  0.00  0.00    +0.015 C 
ATOM     14  C   UNL     1      35.446 -17.715 -22.527  0.00  0.00    +0.069 C 
ATOM     15  C   UNL     1      34.738 -17.426 -24.819  0.00  0.00    +0.002 C 
ATOM     16  C   UNL     1      35.420 -18.160 -23.849  0.00  0.00    +0.012 C 
ENDBRANCH   3  11
ENDBRANCH   1   2
BRANCH   1  17
ATOM     17  C   UNL     1      31.276 -10.991 -20.342  0.00  0.00    -0.019 C 
BRANCH  17  18
ATOM     18  C   UNL     1      32.069  -9.957 -19.545  0.00  0.00    +0.045 C 
BRANCH  18  19
ATOM     19  C   UNL     1      31.805  -8.541 -20.042  0.00  0.00    +0.205 C 
BRANCH  19  20
ATOM     20  O   UNL     1      33.010  -7.971 -20.532  0.00  0.00    -0.475 OA
BRANCH  20  24
ATOM     21  O   UNL     1      32.786  -5.553 -25.495  0.00  0.00    -0.464 OA
ATOM     22  O   UNL     1      30.062  -3.241 -24.949  0.00  0.00    -0.271 OA
ATOM     23  N   UNL     1      30.972  -4.756 -23.477  0.00  0.00    -0.278 N 
ATOM     24  C   UNL     1      32.949  -7.353 -21.755  0.00  0.00    +0.140 C 
ATOM     25  C   UNL     1      32.000  -6.358 -21.986  0.00  0.00    +0.055 C 
ATOM     26  C   UNL     1      31.947  -5.728 -23.230  0.00  0.00    +0.088 C 
ATOM     27  C   UNL     1      33.834  -7.724 -22.768  0.00  0.00    +0.040 C 
ATOM     28  C   UNL     1      32.832  -6.095 -24.242  0.00  0.00    +0.153 C 
ATOM     29  C   UNL     1      33.772  -7.101 -24.015  0.00  0.00    +0.041 C 
ATOM     30  C   UNL     1      32.137  -4.297 -25.561  0.00  0.00    +0.290 C 
ATOM     31  C   UNL     1      30.937  -4.055 -24.660  0.00  0.00    +0.271 C 
ATOM     32  H   UNL     1      30.295  -4.568 -22.788  0.00  0.00    +0.155 HD
ENDBRANCH  20  24
ENDBRANCH  19  20
ENDBRANCH  18  19
ENDBRANCH  17  18
ENDBRANCH   1  17
TORSDOF 7
ENDMDL
