MODEL 1
REMARK VINA RESULT:      -8.7      0.000      0.000
REMARK  Name = 656902
REMARK  8 active torsions:
REMARK  status: ('A' for Active; 'I' for Inactive)
REMARK    1  A    between atoms: C_2  and  O_7
REMARK    2  A    between atoms: C_3  and  O_9
REMARK    3  A    between atoms: C_4  and  O_11
REMARK    4  A    between atoms: C_5  and  C_23
REMARK    5  A    between atoms: C_6  and  S_13
REMARK    6  A    between atoms: S_13  and  C_14
REMARK    7  A    between atoms: C_19  and  N_22
REMARK    8  A    between atoms: C_23  and  O_24
REMARK                            x       y       z     vdW  Elec       q    Type
REMARK                         _______ _______ _______ _____ _____    ______ ____
ROOT
ATOM      1  O   UNL     1      36.322 -23.393 -13.773  0.00  0.00    -0.340 OA
ATOM      2  C   UNL     1      37.140 -26.142 -13.903  0.00  0.00    +0.170 C 
ATOM      3  C   UNL     1      37.692 -25.174 -12.857  0.00  0.00    +0.169 C 
ATOM      4  C   UNL     1      36.600 -25.395 -15.128  0.00  0.00    +0.178 C 
ATOM      5  C   UNL     1      36.681 -24.062 -12.564  0.00  0.00    +0.175 C 
ATOM      6  C   UNL     1      35.668 -24.254 -14.706  0.00  0.00    +0.196 C 
ENDROOT
BRANCH   2   7
ATOM      7  O   UNL     1      38.182 -27.013 -14.344  0.00  0.00    -0.379 OA
ATOM      8  H   UNL     1      37.805 -27.877 -14.574  0.00  0.00    +0.211 HD
ENDBRANCH   2   7
BRANCH   3   9
ATOM      9  O   UNL     1      37.967 -25.880 -11.651  0.00  0.00    -0.379 OA
ATOM     10  H   UNL     1      37.184 -26.391 -11.390  0.00  0.00    +0.211 HD
ENDBRANCH   3   9
BRANCH   4  11
ATOM     11  O   UNL     1      35.882 -26.322 -15.942  0.00  0.00    -0.379 OA
ATOM     12  H   UNL     1      36.265 -27.207 -15.838  0.00  0.00    +0.211 HD
ENDBRANCH   4  11
BRANCH   6  13
ATOM     13  S   UNL     1      35.144 -23.291 -16.170  0.00  0.00    -0.083 S 
BRANCH  13  14
ATOM     14  C   UNL     1      33.379 -23.214 -15.913  0.00  0.00    +0.028 C 
ATOM     15  C   UNL     1      32.860 -23.349 -14.627  0.00  0.00    +0.008 C 
ATOM     16  C   UNL     1      32.527 -23.020 -16.997  0.00  0.00    +0.008 C 
ATOM     17  C   UNL     1      31.481 -23.289 -14.425  0.00  0.00    +0.025 C 
ATOM     18  C   UNL     1      31.148 -22.959 -16.795  0.00  0.00    +0.025 C 
ATOM     19  C   UNL     1      30.625 -23.095 -15.510  0.00  0.00    +0.143 C 
BRANCH  19  22
ATOM     20  O   UNL     1      28.679 -21.916 -15.132  0.00  0.00    -0.126 OA
ATOM     21  O   UNL     1      28.561 -24.101 -15.301  0.00  0.00    -0.126 OA
ATOM     22  N   UNL     1      29.221 -23.035 -15.304  0.00  0.00    +0.058 N 
ENDBRANCH  19  22
ENDBRANCH  13  14
ENDBRANCH   6  13
BRANCH   5  23
ATOM     23  C   UNL     1      37.252 -23.015 -11.613  0.00  0.00    +0.169 C 
BRANCH  23  24
ATOM     24  O   UNL     1      38.664 -23.092 -11.653  0.00  0.00    -0.379 OA
ATOM     25  H   UNL     1      38.980 -22.802 -12.523  0.00  0.00    +0.211 HD
ENDBRANCH  23  24
ENDBRANCH   5  23
TORSDOF 8
ENDMDL
MODEL 2
REMARK VINA RESULT:      -8.5      3.436      4.797
REMARK  Name = 656902
REMARK  8 active torsions:
REMARK  status: ('A' for Active; 'I' for Inactive)
REMARK    1  A    between atoms: C_2  and  O_7
REMARK    2  A    between atoms: C_3  and  O_9
REMARK    3  A    between atoms: C_4  and  O_11
REMARK    4  A    between atoms: C_5  and  C_23
REMARK    5  A    between atoms: C_6  and  S_13
REMARK    6  A    between atoms: S_13  and  C_14
REMARK    7  A    between atoms: C_19  and  N_22
REMARK    8  A    between atoms: C_23  and  O_24
REMARK                            x       y       z     vdW  Elec       q    Type
REMARK                         _______ _______ _______ _____ _____    ______ ____
ROOT
ATOM      1  O   UNL     1      35.883 -25.231 -14.713  0.00  0.00    -0.340 OA
ATOM      2  C   UNL     1      35.876 -24.702 -11.891  0.00  0.00    +0.170 C 
ATOM      3  C   UNL     1      36.817 -25.724 -12.529  0.00  0.00    +0.169 C 
ATOM      4  C   UNL     1      34.645 -24.451 -12.769  0.00  0.00    +0.178 C 
ATOM      5  C   UNL     1      37.106 -25.356 -13.986  0.00  0.00    +0.175 C 
ATOM      6  C   UNL     1      35.054 -24.178 -14.220  0.00  0.00    +0.196 C 
ENDROOT
BRANCH   2   7
ATOM      7  O   UNL     1      35.422 -25.194 -10.629  0.00  0.00    -0.379 OA
ATOM      8  H   UNL     1      35.575 -26.152 -10.582  0.00  0.00    +0.211 HD
ENDBRANCH   2   7
BRANCH   3   9
ATOM      9  O   UNL     1      38.045 -25.757 -11.807  0.00  0.00    -0.379 OA
ATOM     10  H   UNL     1      38.786 -25.658 -12.426  0.00  0.00    +0.211 HD
ENDBRANCH   3   9
BRANCH   4  11
ATOM     11  O   UNL     1      33.943 -23.322 -12.249  0.00  0.00    -0.379 OA
ATOM     12  H   UNL     1      34.578 -22.690 -11.879  0.00  0.00    +0.211 HD
ENDBRANCH   4  11
BRANCH   6  13
ATOM     13  S   UNL     1      33.569 -24.017 -15.276  0.00  0.00    -0.083 S 
BRANCH  13  14
ATOM     14  C   UNL     1      34.245 -23.149 -16.683  0.00  0.00    +0.028 C 
ATOM     15  C   UNL     1      35.535 -22.627 -16.620  0.00  0.00    +0.008 C 
ATOM     16  C   UNL     1      33.480 -22.996 -17.837  0.00  0.00    +0.008 C 
ATOM     17  C   UNL     1      36.063 -21.948 -17.718  0.00  0.00    +0.025 C 
ATOM     18  C   UNL     1      34.009 -22.318 -18.935  0.00  0.00    +0.025 C 
ATOM     19  C   UNL     1      35.300 -21.793 -18.876  0.00  0.00    +0.143 C 
BRANCH  19  22
ATOM     20  O   UNL     1      35.070 -20.417 -20.713  0.00  0.00    -0.126 OA
ATOM     21  O   UNL     1      37.067 -21.192 -20.230  0.00  0.00    -0.126 OA
ATOM     22  N   UNL     1      35.838 -21.101 -19.994  0.00  0.00    +0.058 N 
ENDBRANCH  19  22
ENDBRANCH  13  14
ENDBRANCH   6  13
BRANCH   5  23
ATOM     23  C   UNL     1      37.946 -26.422 -14.683  0.00  0.00    +0.169 C 
BRANCH  23  24
ATOM     24  O   UNL     1      37.308 -26.777 -15.896  0.00  0.00    -0.379 OA
ATOM     25  H   UNL     1      37.869 -26.519 -16.644  0.00  0.00    +0.211 HD
ENDBRANCH  23  24
ENDBRANCH   5  23
TORSDOF 8
ENDMDL
MODEL 3
REMARK VINA RESULT:      -8.5      8.594     11.188
REMARK  Name = 656902
REMARK  8 active torsions:
REMARK  status: ('A' for Active; 'I' for Inactive)
REMARK    1  A    between atoms: C_2  and  O_7
REMARK    2  A    between atoms: C_3  and  O_9
REMARK    3  A    between atoms: C_4  and  O_11
REMARK    4  A    between atoms: C_5  and  C_23
REMARK    5  A    between atoms: C_6  and  S_13
REMARK    6  A    between atoms: S_13  and  C_14
REMARK    7  A    between atoms: C_19  and  N_22
REMARK    8  A    between atoms: C_23  and  O_24
REMARK                            x       y       z     vdW  Elec       q    Type
REMARK                         _______ _______ _______ _____ _____    ______ ____
ROOT
ATOM      1  O   UNL     1      35.046 -17.019 -23.796  0.00  0.00    -0.340 OA
ATOM      2  C   UNL     1      33.976 -15.016 -22.039  0.00  0.00    +0.170 C 
ATOM      3  C   UNL     1      33.992 -14.846 -23.558  0.00  0.00    +0.169 C 
ATOM      4  C   UNL     1      35.037 -16.022 -21.577  0.00  0.00    +0.178 C 
ATOM      5  C   UNL     1      33.962 -16.210 -24.254  0.00  0.00    +0.175 C 
ATOM      6  C   UNL     1      34.964 -17.311 -22.401  0.00  0.00    +0.196 C 
ENDROOT
BRANCH   2   7
ATOM      7  O   UNL     1      34.258 -13.762 -21.416  0.00  0.00    -0.379 OA
ATOM      8  H   UNL     1      33.555 -13.551 -20.781  0.00  0.00    +0.211 HD
ENDBRANCH   2   7
BRANCH   3   9
ATOM      9  O   UNL     1      32.854 -14.092 -23.966  0.00  0.00    -0.379 OA
ATOM     10  H   UNL     1      32.057 -14.639 -23.881  0.00  0.00    +0.211 HD
ENDBRANCH   3   9
BRANCH   4  11
ATOM     11  O   UNL     1      34.806 -16.320 -20.200  0.00  0.00    -0.379 OA
ATOM     12  H   UNL     1      35.068 -15.561 -19.657  0.00  0.00    +0.211 HD
ENDBRANCH   4  11
BRANCH   6  13
ATOM     13  S   UNL     1      36.322 -18.441 -21.928  0.00  0.00    -0.083 S 
BRANCH  13  14
ATOM     14  C   UNL     1      35.431 -19.671 -20.989  0.00  0.00    +0.028 C 
ATOM     15  C   UNL     1      36.132 -20.618 -20.246  0.00  0.00    +0.008 C 
ATOM     16  C   UNL     1      34.038 -19.679 -21.002  0.00  0.00    +0.008 C 
ATOM     17  C   UNL     1      35.436 -21.579 -19.513  0.00  0.00    +0.025 C 
ATOM     18  C   UNL     1      33.342 -20.640 -20.269  0.00  0.00    +0.025 C 
ATOM     19  C   UNL     1      34.041 -21.590 -19.525  0.00  0.00    +0.143 C 
BRANCH  19  22
ATOM     20  O   UNL     1      32.269 -22.241 -18.199  0.00  0.00    -0.126 OA
ATOM     21  O   UNL     1      33.789 -23.737 -18.721  0.00  0.00    -0.126 OA
ATOM     22  N   UNL     1      33.333 -22.570 -18.779  0.00  0.00    +0.058 N 
ENDBRANCH  19  22
ENDBRANCH  13  14
ENDBRANCH   6  13
BRANCH   5  23
ATOM     23  C   UNL     1      34.098 -16.075 -25.767  0.00  0.00    +0.169 C 
BRANCH  23  24
ATOM     24  O   UNL     1      32.830 -15.752 -26.307  0.00  0.00    -0.379 OA
ATOM     25  H   UNL     1      32.271 -16.545 -26.316  0.00  0.00    +0.211 HD
ENDBRANCH  23  24
ENDBRANCH   5  23
TORSDOF 8
ENDMDL
MODEL 4
REMARK VINA RESULT:      -8.4      4.738      6.333
REMARK  Name = 656902
REMARK  8 active torsions:
REMARK  status: ('A' for Active; 'I' for Inactive)
REMARK    1  A    between atoms: C_2  and  O_7
REMARK    2  A    between atoms: C_3  and  O_9
REMARK    3  A    between atoms: C_4  and  O_11
REMARK    4  A    between atoms: C_5  and  C_23
REMARK    5  A    between atoms: C_6  and  S_13
REMARK    6  A    between atoms: S_13  and  C_14
REMARK    7  A    between atoms: C_19  and  N_22
REMARK    8  A    between atoms: C_23  and  O_24
REMARK                            x       y       z     vdW  Elec       q    Type
REMARK                         _______ _______ _______ _____ _____    ______ ____
ROOT
ATOM      1  O   UNL     1      34.773 -23.806 -16.440  0.00  0.00    -0.340 OA
ATOM      2  C   UNL     1      32.346 -23.166 -15.047  0.00  0.00    +0.170 C 
ATOM      3  C   UNL     1      33.531 -23.839 -14.356  0.00  0.00    +0.169 C 
ATOM      4  C   UNL     1      32.378 -23.393 -16.562  0.00  0.00    +0.178 C 
ATOM      5  C   UNL     1      34.843 -23.470 -15.054  0.00  0.00    +0.175 C 
ATOM      6  C   UNL     1      33.763 -23.073 -17.134  0.00  0.00    +0.196 C 
ENDROOT
BRANCH   2   7
ATOM      7  O   UNL     1      31.127 -23.716 -14.546  0.00  0.00    -0.379 OA
ATOM      8  H   UNL     1      30.549 -22.998 -14.240  0.00  0.00    +0.211 HD
ENDBRANCH   2   7
BRANCH   3   9
ATOM      9  O   UNL     1      33.595 -23.416 -12.997  0.00  0.00    -0.379 OA
ATOM     10  H   UNL     1      32.752 -23.007 -12.746  0.00  0.00    +0.211 HD
ENDBRANCH   3   9
BRANCH   4  11
ATOM     11  O   UNL     1      31.403 -22.543 -17.167  0.00  0.00    -0.379 OA
ATOM     12  H   UNL     1      30.574 -23.033 -17.279  0.00  0.00    +0.211 HD
ENDBRANCH   4  11
BRANCH   6  13
ATOM     13  S   UNL     1      33.821 -23.480 -18.916  0.00  0.00    -0.083 S 
BRANCH  13  14
ATOM     14  C   UNL     1      34.365 -21.924 -19.603  0.00  0.00    +0.028 C 
ATOM     15  C   UNL     1      33.427 -21.018 -20.095  0.00  0.00    +0.008 C 
ATOM     16  C   UNL     1      35.723 -21.621 -19.646  0.00  0.00    +0.008 C 
ATOM     17  C   UNL     1      33.851 -19.803 -20.633  0.00  0.00    +0.025 C 
ATOM     18  C   UNL     1      36.147 -20.405 -20.183  0.00  0.00    +0.025 C 
ATOM     19  C   UNL     1      35.211 -19.497 -20.677  0.00  0.00    +0.143 C 
BRANCH  19  22
ATOM     20  O   UNL     1      35.257 -17.191 -20.691  0.00  0.00    -0.126 OA
ATOM     21  O   UNL     1      36.399 -18.268 -22.225  0.00  0.00    -0.126 OA
ATOM     22  N   UNL     1      35.643 -18.259 -21.225  0.00  0.00    +0.058 N 
ENDBRANCH  19  22
ENDBRANCH  13  14
ENDBRANCH   6  13
BRANCH   5  23
ATOM     23  C   UNL     1      36.030 -24.223 -14.460  0.00  0.00    +0.169 C 
BRANCH  23  24
ATOM     24  O   UNL     1      35.546 -25.372 -13.790  0.00  0.00    -0.379 OA
ATOM     25  H   UNL     1      36.294 -25.931 -13.526  0.00  0.00    +0.211 HD
ENDBRANCH  23  24
ENDBRANCH   5  23
TORSDOF 8
ENDMDL
MODEL 5
REMARK VINA RESULT:      -8.3      4.514      5.555
REMARK  Name = 656902
REMARK  8 active torsions:
REMARK  status: ('A' for Active; 'I' for Inactive)
REMARK    1  A    between atoms: C_2  and  O_7
REMARK    2  A    between atoms: C_3  and  O_9
REMARK    3  A    between atoms: C_4  and  O_11
REMARK    4  A    between atoms: C_5  and  C_23
REMARK    5  A    between atoms: C_6  and  S_13
REMARK    6  A    between atoms: S_13  and  C_14
REMARK    7  A    between atoms: C_19  and  N_22
REMARK    8  A    between atoms: C_23  and  O_24
REMARK                            x       y       z     vdW  Elec       q    Type
REMARK                         _______ _______ _______ _____ _____    ______ ____
ROOT
ATOM      1  O   UNL     1      35.652 -23.441 -16.462  0.00  0.00    -0.340 OA
ATOM      2  C   UNL     1      34.321 -23.633 -13.925  0.00  0.00    +0.170 C 
ATOM      3  C   UNL     1      35.826 -23.852 -14.077  0.00  0.00    +0.169 C 
ATOM      4  C   UNL     1      33.585 -23.864 -15.250  0.00  0.00    +0.178 C 
ATOM      5  C   UNL     1      36.366 -23.075 -15.281  0.00  0.00    +0.175 C 
ATOM      6  C   UNL     1      34.265 -23.106 -16.393  0.00  0.00    +0.196 C 
ENDROOT
BRANCH   2   7
ATOM      7  O   UNL     1      33.799 -24.553 -12.966  0.00  0.00    -0.379 OA
ATOM      8  H   UNL     1      32.986 -24.955 -13.312  0.00  0.00    +0.211 HD
ENDBRANCH   2   7
BRANCH   3   9
ATOM      9  O   UNL     1      36.494 -23.406 -12.900  0.00  0.00    -0.379 OA
ATOM     10  H   UNL     1      37.391 -23.777 -12.878  0.00  0.00    +0.211 HD
ENDBRANCH   3   9
BRANCH   4  11
ATOM     11  O   UNL     1      32.241 -23.406 -15.105  0.00  0.00    -0.379 OA
ATOM     12  H   UNL     1      32.244 -22.483 -14.810  0.00  0.00    +0.211 HD
ENDBRANCH   4  11
BRANCH   6  13
ATOM     13  S   UNL     1      33.456 -23.503 -17.985  0.00  0.00    -0.083 S 
BRANCH  13  14
ATOM     14  C   UNL     1      33.995 -22.130 -18.993  0.00  0.00    +0.028 C 
ATOM     15  C   UNL     1      35.354 -21.934 -19.227  0.00  0.00    +0.008 C 
ATOM     16  C   UNL     1      33.055 -21.261 -19.540  0.00  0.00    +0.008 C 
ATOM     17  C   UNL     1      35.775 -20.862 -20.013  0.00  0.00    +0.025 C 
ATOM     18  C   UNL     1      33.476 -20.189 -20.327  0.00  0.00    +0.025 C 
ATOM     19  C   UNL     1      34.836 -19.989 -20.562  0.00  0.00    +0.143 C 
BRANCH  19  22
ATOM     20  O   UNL     1      35.621 -17.833 -20.800  0.00  0.00    -0.126 OA
ATOM     21  O   UNL     1      35.279 -19.026 -22.610  0.00  0.00    -0.126 OA
ATOM     22  N   UNL     1      35.265 -18.897 -21.363  0.00  0.00    +0.058 N 
ENDBRANCH  19  22
ENDBRANCH  13  14
ENDBRANCH   6  13
BRANCH   5  23
ATOM     23  C   UNL     1      37.842 -23.370 -15.528  0.00  0.00    +0.169 C 
BRANCH  23  24
ATOM     24  O   UNL     1      38.086 -24.731 -15.229  0.00  0.00    -0.379 OA
ATOM     25  H   UNL     1      37.260 -25.153 -14.944  0.00  0.00    +0.211 HD
ENDBRANCH  23  24
ENDBRANCH   5  23
TORSDOF 8
ENDMDL
MODEL 6
REMARK VINA RESULT:      -8.1      3.471      7.483
REMARK  Name = 656902
REMARK  8 active torsions:
REMARK  status: ('A' for Active; 'I' for Inactive)
REMARK    1  A    between atoms: C_2  and  O_7
REMARK    2  A    between atoms: C_3  and  O_9
REMARK    3  A    between atoms: C_4  and  O_11
REMARK    4  A    between atoms: C_5  and  C_23
REMARK    5  A    between atoms: C_6  and  S_13
REMARK    6  A    between atoms: S_13  and  C_14
REMARK    7  A    between atoms: C_19  and  N_22
REMARK    8  A    between atoms: C_23  and  O_24
REMARK                            x       y       z     vdW  Elec       q    Type
REMARK                         _______ _______ _______ _____ _____    ______ ____
ROOT
ATOM      1  O   UNL     1      34.675 -23.435 -15.227  0.00  0.00    -0.340 OA
ATOM      2  C   UNL     1      31.831 -23.808 -15.348  0.00  0.00    +0.170 C 
ATOM      3  C   UNL     1      32.588 -22.957 -16.368  0.00  0.00    +0.169 C 
ATOM      4  C   UNL     1      32.614 -23.938 -14.037  0.00  0.00    +0.178 C 
ATOM      5  C   UNL     1      34.036 -23.438 -16.503  0.00  0.00    +0.175 C 
ATOM      6  C   UNL     1      34.067 -24.339 -14.304  0.00  0.00    +0.196 C 
ENDROOT
BRANCH   2   7
ATOM      7  O   UNL     1      30.576 -23.194 -15.053  0.00  0.00    -0.379 OA
ATOM      8  H   UNL     1      29.919 -23.880 -14.857  0.00  0.00    +0.211 HD
ENDBRANCH   2   7
BRANCH   3   9
ATOM      9  O   UNL     1      31.948 -23.052 -17.638  0.00  0.00    -0.379 OA
ATOM     10  H   UNL     1      31.180 -23.641 -17.569  0.00  0.00    +0.211 HD
ENDBRANCH   3   9
BRANCH   4  11
ATOM     11  O   UNL     1      31.982 -24.933 -13.232  0.00  0.00    -0.379 OA
ATOM     12  H   UNL     1      32.594 -25.222 -12.537  0.00  0.00    +0.211 HD
ENDBRANCH   4  11
BRANCH   6  13
ATOM     13  S   UNL     1      35.017 -24.355 -12.740  0.00  0.00    -0.083 S 
BRANCH  13  14
ATOM     14  C   UNL     1      36.615 -24.903 -13.318  0.00  0.00    +0.028 C 
ATOM     15  C   UNL     1      37.773 -24.438 -12.698  0.00  0.00    +0.008 C 
ATOM     16  C   UNL     1      36.700 -25.792 -14.387  0.00  0.00    +0.008 C 
ATOM     17  C   UNL     1      39.021 -24.865 -13.149  0.00  0.00    +0.025 C 
ATOM     18  C   UNL     1      37.949 -26.219 -14.838  0.00  0.00    +0.025 C 
ATOM     19  C   UNL     1      39.109 -25.755 -14.220  0.00  0.00    +0.143 C 
BRANCH  19  22
ATOM     20  O   UNL     1      41.182 -26.702 -13.860  0.00  0.00    -0.126 OA
ATOM     21  O   UNL     1      40.669 -26.050 -15.893  0.00  0.00    -0.126 OA
ATOM     22  N   UNL     1      40.381 -26.190 -14.680  0.00  0.00    +0.058 N 
ENDBRANCH  19  22
ENDBRANCH  13  14
ENDBRANCH   6  13
BRANCH   5  23
ATOM     23  C   UNL     1      34.848 -22.533 -17.425  0.00  0.00    +0.169 C 
BRANCH  23  24
ATOM     24  O   UNL     1      34.613 -22.926 -18.764  0.00  0.00    -0.379 OA
ATOM     25  H   UNL     1      34.368 -23.864 -18.787  0.00  0.00    +0.211 HD
ENDBRANCH  23  24
ENDBRANCH   5  23
TORSDOF 8
ENDMDL
MODEL 7
REMARK VINA RESULT:      -8.0      2.743      4.407
REMARK  Name = 656902
REMARK  8 active torsions:
REMARK  status: ('A' for Active; 'I' for Inactive)
REMARK    1  A    between atoms: C_2  and  O_7
REMARK    2  A    between atoms: C_3  and  O_9
REMARK    3  A    between atoms: C_4  and  O_11
REMARK    4  A    between atoms: C_5  and  C_23
REMARK    5  A    between atoms: C_6  and  S_13
REMARK    6  A    between atoms: S_13  and  C_14
REMARK    7  A    between atoms: C_19  and  N_22
REMARK    8  A    between atoms: C_23  and  O_24
REMARK                            x       y       z     vdW  Elec       q    Type
REMARK                         _______ _______ _______ _____ _____    ______ ____
ROOT
ATOM      1  O   UNL     1      32.645 -23.759 -15.942  0.00  0.00    -0.340 OA
ATOM      2  C   UNL     1      35.251 -23.978 -14.756  0.00  0.00    +0.170 C 
ATOM      3  C   UNL     1      35.052 -23.702 -16.247  0.00  0.00    +0.169 C 
ATOM      4  C   UNL     1      34.018 -24.651 -14.142  0.00  0.00    +0.178 C 
ATOM      5  C   UNL     1      33.718 -22.992 -16.490  0.00  0.00    +0.175 C 
ATOM      6  C   UNL     1      32.738 -23.901 -14.524  0.00  0.00    +0.196 C 
ENDROOT
BRANCH   2   7
ATOM      7  O   UNL     1      36.365 -24.854 -14.579  0.00  0.00    -0.379 OA
ATOM      8  H   UNL     1      36.561 -25.302 -15.417  0.00  0.00    +0.211 HD
ENDBRANCH   2   7
BRANCH   3   9
ATOM      9  O   UNL     1      36.110 -22.877 -16.725  0.00  0.00    -0.379 OA
ATOM     10  H   UNL     1      35.971 -21.965 -16.422  0.00  0.00    +0.211 HD
ENDBRANCH   3   9
BRANCH   4  11
ATOM     11  O   UNL     1      34.166 -24.652 -12.722  0.00  0.00    -0.379 OA
ATOM     12  H   UNL     1      34.656 -25.444 -12.450  0.00  0.00    +0.211 HD
ENDBRANCH   4  11
BRANCH   6  13
ATOM     13  S   UNL     1      31.271 -24.795 -13.897  0.00  0.00    -0.083 S 
BRANCH  13  14
ATOM     14  C   UNL     1      29.977 -24.064 -14.888  0.00  0.00    +0.028 C 
ATOM     15  C   UNL     1      29.624 -22.731 -14.692  0.00  0.00    +0.008 C 
ATOM     16  C   UNL     1      29.326 -24.828 -15.853  0.00  0.00    +0.008 C 
ATOM     17  C   UNL     1      28.614 -22.159 -15.465  0.00  0.00    +0.025 C 
ATOM     18  C   UNL     1      28.316 -24.256 -16.626  0.00  0.00    +0.025 C 
ATOM     19  C   UNL     1      27.959 -22.922 -16.432  0.00  0.00    +0.143 C 
BRANCH  19  22
ATOM     20  O   UNL     1      27.040 -22.352 -18.469  0.00  0.00    -0.126 OA
ATOM     21  O   UNL     1      25.939 -21.831 -16.643  0.00  0.00    -0.126 OA
ATOM     22  N   UNL     1      26.930 -22.340 -17.219  0.00  0.00    +0.058 N 
ENDBRANCH  19  22
ENDBRANCH  13  14
ENDBRANCH   6  13
BRANCH   5  23
ATOM     23  C   UNL     1      33.437 -22.811 -17.979  0.00  0.00    +0.169 C 
BRANCH  23  24
ATOM     24  O   UNL     1      33.830 -23.989 -18.658  0.00  0.00    -0.379 OA
ATOM     25  H   UNL     1      33.284 -24.733 -18.358  0.00  0.00    +0.211 HD
ENDBRANCH  23  24
ENDBRANCH   5  23
TORSDOF 8
ENDMDL
MODEL 8
REMARK VINA RESULT:      -7.9      2.453      3.967
REMARK  Name = 656902
REMARK  8 active torsions:
REMARK  status: ('A' for Active; 'I' for Inactive)
REMARK    1  A    between atoms: C_2  and  O_7
REMARK    2  A    between atoms: C_3  and  O_9
REMARK    3  A    between atoms: C_4  and  O_11
REMARK    4  A    between atoms: C_5  and  C_23
REMARK    5  A    between atoms: C_6  and  S_13
REMARK    6  A    between atoms: S_13  and  C_14
REMARK    7  A    between atoms: C_19  and  N_22
REMARK    8  A    between atoms: C_23  and  O_24
REMARK                            x       y       z     vdW  Elec       q    Type
REMARK                         _______ _______ _______ _____ _____    ______ ____
ROOT
ATOM      1  O   UNL     1      33.402 -23.928 -15.583  0.00  0.00    -0.340 OA
ATOM      2  C   UNL     1      35.805 -23.531 -14.064  0.00  0.00    +0.170 C 
ATOM      3  C   UNL     1      35.794 -23.524 -15.593  0.00  0.00    +0.169 C 
ATOM      4  C   UNL     1      34.602 -24.295 -13.499  0.00  0.00    +0.178 C 
ATOM      5  C   UNL     1      34.424 -23.088 -16.120  0.00  0.00    +0.175 C 
ATOM      6  C   UNL     1      33.301 -23.834 -14.162  0.00  0.00    +0.196 C 
ENDROOT
BRANCH   2   7
ATOM      7  O   UNL     1      36.992 -24.175 -13.599  0.00  0.00    -0.379 OA
ATOM      8  H   UNL     1      37.762 -23.624 -13.810  0.00  0.00    +0.211 HD
ENDBRANCH   2   7
BRANCH   3   9
ATOM      9  O   UNL     1      36.784 -22.619 -16.072  0.00  0.00    -0.379 OA
ATOM     10  H   UNL     1      37.583 -23.113 -16.316  0.00  0.00    +0.211 HD
ENDBRANCH   3   9
BRANCH   4  11
ATOM     11  O   UNL     1      34.534 -24.054 -12.094  0.00  0.00    -0.379 OA
ATOM     12  H   UNL     1      33.606 -23.966 -11.826  0.00  0.00    +0.211 HD
ENDBRANCH   4  11
BRANCH   6  13
ATOM     13  S   UNL     1      31.897 -24.849 -13.576  0.00  0.00    -0.083 S 
BRANCH  13  14
ATOM     14  C   UNL     1      30.564 -24.192 -14.566  0.00  0.00    +0.028 C 
ATOM     15  C   UNL     1      29.767 -25.055 -15.315  0.00  0.00    +0.008 C 
ATOM     16  C   UNL     1      30.326 -22.820 -14.587  0.00  0.00    +0.008 C 
ATOM     17  C   UNL     1      28.726 -24.543 -16.089  0.00  0.00    +0.025 C 
ATOM     18  C   UNL     1      29.285 -22.308 -15.361  0.00  0.00    +0.025 C 
ATOM     19  C   UNL     1      28.485 -23.169 -16.113  0.00  0.00    +0.143 C 
BRANCH  19  22
ATOM     20  O   UNL     1      26.567 -21.912 -16.357  0.00  0.00    -0.126 OA
ATOM     21  O   UNL     1      27.378 -22.935 -18.122  0.00  0.00    -0.126 OA
ATOM     22  N   UNL     1      27.425 -22.647 -16.901  0.00  0.00    +0.058 N 
ENDBRANCH  19  22
ENDBRANCH  13  14
ENDBRANCH   6  13
BRANCH   5  23
ATOM     23  C   UNL     1      34.347 -23.187 -17.640  0.00  0.00    +0.169 C 
BRANCH  23  24
ATOM     24  O   UNL     1      35.197 -22.203 -18.200  0.00  0.00    -0.379 OA
ATOM     25  H   UNL     1      36.096 -22.319 -17.856  0.00  0.00    +0.211 HD
ENDBRANCH  23  24
ENDBRANCH   5  23
TORSDOF 8
ENDMDL
MODEL 9
REMARK VINA RESULT:      -7.6     12.296     14.965
REMARK  Name = 656902
REMARK  8 active torsions:
REMARK  status: ('A' for Active; 'I' for Inactive)
REMARK    1  A    between atoms: C_2  and  O_7
REMARK    2  A    between atoms: C_3  and  O_9
REMARK    3  A    between atoms: C_4  and  O_11
REMARK    4  A    between atoms: C_5  and  C_23
REMARK    5  A    between atoms: C_6  and  S_13
REMARK    6  A    between atoms: S_13  and  C_14
REMARK    7  A    between atoms: C_19  and  N_22
REMARK    8  A    between atoms: C_23  and  O_24
REMARK                            x       y       z     vdW  Elec       q    Type
REMARK                         _______ _______ _______ _____ _____    ______ ____
ROOT
ATOM      1  O   UNL     1      32.069 -12.203 -23.016  0.00  0.00    -0.340 OA
ATOM      2  C   UNL     1      33.550  -9.760 -23.293  0.00  0.00    +0.170 C 
ATOM      3  C   UNL     1      32.242  -9.837 -22.507  0.00  0.00    +0.169 C 
ATOM      4  C   UNL     1      33.657 -10.897 -24.315  0.00  0.00    +0.178 C 
ATOM      5  C   UNL     1      32.027 -11.249 -21.955  0.00  0.00    +0.175 C 
ATOM      6  C   UNL     1      33.338 -12.248 -23.667  0.00  0.00    +0.196 C 
ENDROOT
BRANCH   2   7
ATOM      7  O   UNL     1      33.607  -8.523 -24.004  0.00  0.00    -0.379 OA
ATOM      8  H   UNL     1      34.534  -8.277 -24.152  0.00  0.00    +0.211 HD
ENDBRANCH   2   7
BRANCH   3   9
ATOM      9  O   UNL     1      32.282  -8.916 -21.421  0.00  0.00    -0.379 OA
ATOM     10  H   UNL     1      31.558  -8.277 -21.512  0.00  0.00    +0.211 HD
ENDBRANCH   3   9
BRANCH   4  11
ATOM     11  O   UNL     1      34.988 -10.916 -24.832  0.00  0.00    -0.379 OA
ATOM     12  H   UNL     1      35.220 -10.033 -25.159  0.00  0.00    +0.211 HD
ENDBRANCH   4  11
BRANCH   6  13
ATOM     13  S   UNL     1      33.337 -13.571 -24.930  0.00  0.00    -0.083 S 
BRANCH  13  14
ATOM     14  C   UNL     1      33.928 -14.957 -23.971  0.00  0.00    +0.028 C 
ATOM     15  C   UNL     1      34.190 -16.172 -24.600  0.00  0.00    +0.008 C 
ATOM     16  C   UNL     1      34.124 -14.819 -22.600  0.00  0.00    +0.008 C 
ATOM     17  C   UNL     1      34.651 -17.255 -23.852  0.00  0.00    +0.025 C 
ATOM     18  C   UNL     1      34.586 -15.902 -21.852  0.00  0.00    +0.025 C 
ATOM     19  C   UNL     1      34.849 -17.120 -22.477  0.00  0.00    +0.143 C 
BRANCH  19  22
ATOM     20  O   UNL     1      35.802 -18.015 -20.576  0.00  0.00    -0.126 OA
ATOM     21  O   UNL     1      35.234 -19.377 -22.202  0.00  0.00    -0.126 OA
ATOM     22  N   UNL     1      35.318 -18.224 -21.716  0.00  0.00    +0.058 N 
ENDBRANCH  19  22
ENDBRANCH  13  14
ENDBRANCH   6  13
BRANCH   5  23
ATOM     23  C   UNL     1      30.672 -11.387 -21.267  0.00  0.00    +0.169 C 
BRANCH  23  24
ATOM     24  O   UNL     1      30.770 -10.845 -19.964  0.00  0.00    -0.379 OA
ATOM     25  H   UNL     1      30.744  -9.876 -20.013  0.00  0.00    +0.211 HD
ENDBRANCH  23  24
ENDBRANCH   5  23
TORSDOF 8
ENDMDL
