MODEL 1
REMARK VINA RESULT:     -10.0      0.000      0.000
REMARK  Name = 10172821
REMARK  12 active torsions:
REMARK  status: ('A' for Active; 'I' for Inactive)
REMARK    1  A    between atoms: C_1  and  C_2
REMARK    2  A    between atoms: C_1  and  C_17
REMARK    3  A    between atoms: C_1  and  C_20
REMARK    4  A    between atoms: C_5  and  N_8
REMARK    5  A    between atoms: N_8  and  C_11
REMARK    6  A    between atoms: C_17  and  O_18
REMARK    7  A    between atoms: C_20  and  P_21
REMARK    8  A    between atoms: P_21  and  O_23
REMARK    9  A    between atoms: P_21  and  C_25
REMARK   10  A    between atoms: C_25  and  C_26
REMARK   11  A    between atoms: C_26  and  C_27
REMARK   12  A    between atoms: C_27  and  C_28
REMARK                            x       y       z     vdW  Elec       q    Type
REMARK                         _______ _______ _______ _____ _____    ______ ____
ROOT
ATOM      1  C   UNL     1      34.479 -18.414 -21.802  0.00  0.00    +0.131 C 
ENDROOT
BRANCH   1   2
ATOM      2  C   UNL     1      34.317 -19.612 -20.880  0.00  0.00    -0.010 C 
ATOM      3  C   UNL     1      35.442 -20.218 -20.318  0.00  0.00    +0.015 C 
ATOM      4  C   UNL     1      33.044 -20.106 -20.595  0.00  0.00    -0.004 C 
ATOM      5  C   UNL     1      35.293 -21.316 -19.471  0.00  0.00    +0.084 C 
ATOM      6  C   UNL     1      32.895 -21.205 -19.748  0.00  0.00    +0.001 C 
ATOM      7  C   UNL     1      34.019 -21.810 -19.187  0.00  0.00    +0.019 C 
BRANCH   5   8
ATOM      8  N   UNL     1      36.419 -21.923 -18.907  0.00  0.00    -0.214 NA
BRANCH   8  11
ATOM      9  N   UNL     1      36.333 -22.599 -16.595  0.00  0.00    -0.370 N 
ATOM     10  N   UNL     1      37.308 -20.622 -17.183  0.00  0.00    -0.370 N 
ATOM     11  C   UNL     1      36.661 -21.749 -17.630  0.00  0.00    +0.193 C 
ATOM     12  H   UNL     1      35.865 -23.445 -16.782  0.00  0.00    +0.159 HD
ATOM     13  H   UNL     1      36.568 -22.361 -15.670  0.00  0.00    +0.159 HD
ATOM     14  H   UNL     1      37.596 -19.932 -17.825  0.00  0.00    +0.159 HD
ATOM     15  H   UNL     1      37.484 -20.503 -16.222  0.00  0.00    +0.159 HD
ENDBRANCH   8  11
ENDBRANCH   5   8
ENDBRANCH   1   2
BRANCH   1  17
ATOM     16  O   UNL     1      34.654 -19.488 -23.992  0.00  0.00    -0.250 OA
ATOM     17  C   UNL     1      35.154 -18.799 -23.111  0.00  0.00    +0.318 C 
BRANCH  17  18
ATOM     18  O   UNL     1      36.409 -18.284 -23.211  0.00  0.00    -0.480 OA
ATOM     19  H   UNL     1      36.776 -17.803 -22.496  0.00  0.00    +0.295 HD
ENDBRANCH  17  18
ENDBRANCH   1  17
BRANCH   1  20
ATOM     20  C   UNL     1      35.236 -17.252 -21.149  0.00  0.00    +0.102 C 
BRANCH  20  21
ATOM     21  P   UNL     1      34.334 -15.729 -21.181  0.00  0.00    +0.220 P 
ATOM     22  O   UNL     1      34.847 -14.670 -20.270  0.00  0.00    -0.290 OA
BRANCH  21  23
ATOM     23  O   UNL     1      32.810 -16.179 -20.912  0.00  0.00    -0.343 OA
ATOM     24  H   UNL     1      32.214 -15.440 -21.112  0.00  0.00    +0.218 HD
ENDBRANCH  21  23
BRANCH  21  25
ATOM     25  C   UNL     1      34.286 -15.219 -22.913  0.00  0.00    +0.087 C 
BRANCH  25  26
ATOM     26  C   UNL     1      33.937 -13.747 -23.110  0.00  0.00    +0.015 C 
BRANCH  26  27
ATOM     27  C   UNL     1      32.440 -13.437 -23.000  0.00  0.00    +0.027 C 
BRANCH  27  28
ATOM     28  C   UNL     1      32.116 -12.326 -22.033  0.00  0.00    -0.022 C 
ATOM     29  C   UNL     1      31.909 -12.614 -20.684  0.00  0.00    -0.004 C 
ATOM     30  C   UNL     1      32.025 -11.010 -22.489  0.00  0.00    -0.004 C 
ATOM     31  C   UNL     1      31.609 -11.587 -19.790  0.00  0.00    -0.000 C 
ATOM     32  C   UNL     1      31.725  -9.983 -21.594  0.00  0.00    -0.000 C 
ATOM     33  C   UNL     1      31.517 -10.271 -20.244  0.00  0.00    -0.000 C 
ENDBRANCH  27  28
ENDBRANCH  26  27
ENDBRANCH  25  26
ENDBRANCH  21  25
ENDBRANCH  20  21
ENDBRANCH   1  20
TORSDOF 12
ENDMDL
MODEL 2
REMARK VINA RESULT:      -9.6      6.699      9.405
REMARK  Name = 10172821
REMARK  12 active torsions:
REMARK  status: ('A' for Active; 'I' for Inactive)
REMARK    1  A    between atoms: C_1  and  C_2
REMARK    2  A    between atoms: C_1  and  C_17
REMARK    3  A    between atoms: C_1  and  C_20
REMARK    4  A    between atoms: C_5  and  N_8
REMARK    5  A    between atoms: N_8  and  C_11
REMARK    6  A    between atoms: C_17  and  O_18
REMARK    7  A    between atoms: C_20  and  P_21
REMARK    8  A    between atoms: P_21  and  O_23
REMARK    9  A    between atoms: P_21  and  C_25
REMARK   10  A    between atoms: C_25  and  C_26
REMARK   11  A    between atoms: C_26  and  C_27
REMARK   12  A    between atoms: C_27  and  C_28
REMARK                            x       y       z     vdW  Elec       q    Type
REMARK                         _______ _______ _______ _____ _____    ______ ____
ROOT
ATOM      1  C   UNL     1      34.418 -24.330 -14.310  0.00  0.00    +0.131 C 
ENDROOT
BRANCH   1   2
ATOM      2  C   UNL     1      32.903 -24.319 -14.441  0.00  0.00    -0.010 C 
ATOM      3  C   UNL     1      32.294 -23.544 -15.430  0.00  0.00    +0.015 C 
ATOM      4  C   UNL     1      32.122 -25.082 -13.575  0.00  0.00    -0.004 C 
ATOM      5  C   UNL     1      30.904 -23.535 -15.551  0.00  0.00    +0.084 C 
ATOM      6  C   UNL     1      30.732 -25.073 -13.696  0.00  0.00    +0.001 C 
ATOM      7  C   UNL     1      30.123 -24.298 -14.684  0.00  0.00    +0.019 C 
BRANCH   5   8
ATOM      8  N   UNL     1      30.294 -22.759 -16.541  0.00  0.00    -0.214 NA
BRANCH   8  11
ATOM      9  N   UNL     1      28.207 -22.037 -15.575  0.00  0.00    -0.370 N 
ATOM     10  N   UNL     1      28.232 -23.142 -17.571  0.00  0.00    -0.370 N 
ATOM     11  C   UNL     1      28.988 -22.639 -16.538  0.00  0.00    +0.193 C 
ATOM     12  H   UNL     1      28.628 -21.635 -14.780  0.00  0.00    +0.159 HD
ATOM     13  H   UNL     1      27.230 -22.007 -15.681  0.00  0.00    +0.159 HD
ATOM     14  H   UNL     1      28.671 -23.599 -18.325  0.00  0.00    +0.159 HD
ATOM     15  H   UNL     1      27.253 -23.046 -17.557  0.00  0.00    +0.159 HD
ENDBRANCH   8  11
ENDBRANCH   5   8
ENDBRANCH   1   2
BRANCH   1  17
ATOM     16  O   UNL     1      34.514 -23.641 -11.966  0.00  0.00    -0.250 OA
ATOM     17  C   UNL     1      34.856 -24.411 -12.854  0.00  0.00    +0.318 C 
BRANCH  17  18
ATOM     18  O   UNL     1      35.693 -25.460 -12.630  0.00  0.00    -0.480 OA
ATOM     19  H   UNL     1      36.526 -25.316 -12.226  0.00  0.00    +0.295 HD
ENDBRANCH  17  18
ENDBRANCH   1  17
BRANCH   1  20
ATOM     20  C   UNL     1      35.088 -23.131 -14.989  0.00  0.00    +0.102 C 
BRANCH  20  21
ATOM     21  P   UNL     1      36.818 -23.373 -15.278  0.00  0.00    +0.220 P 
ATOM     22  O   UNL     1      37.238 -24.791 -15.455  0.00  0.00    -0.290 OA
BRANCH  21  23
ATOM     23  O   UNL     1      37.524 -22.603 -14.051  0.00  0.00    -0.343 OA
ATOM     24  H   UNL     1      38.403 -22.984 -13.893  0.00  0.00    +0.218 HD
ENDBRANCH  21  23
BRANCH  21  25
ATOM     25  C   UNL     1      37.238 -22.324 -16.687  0.00  0.00    +0.087 C 
BRANCH  25  26
ATOM     26  C   UNL     1      36.054 -22.018 -17.599  0.00  0.00    +0.015 C 
BRANCH  26  27
ATOM     27  C   UNL     1      36.448 -21.583 -19.015  0.00  0.00    +0.027 C 
BRANCH  27  28
ATOM     28  C   UNL     1      35.336 -20.910 -19.779  0.00  0.00    -0.022 C 
ATOM     29  C   UNL     1      34.010 -21.274 -19.544  0.00  0.00    -0.004 C 
ATOM     30  C   UNL     1      35.634 -19.924 -20.719  0.00  0.00    -0.004 C 
ATOM     31  C   UNL     1      32.981 -20.652 -20.251  0.00  0.00    -0.000 C 
ATOM     32  C   UNL     1      34.605 -19.301 -21.425  0.00  0.00    -0.000 C 
ATOM     33  C   UNL     1      33.278 -19.665 -21.192  0.00  0.00    -0.000 C 
ENDBRANCH  27  28
ENDBRANCH  26  27
ENDBRANCH  25  26
ENDBRANCH  21  25
ENDBRANCH  20  21
ENDBRANCH   1  20
TORSDOF 12
ENDMDL
MODEL 3
REMARK VINA RESULT:      -9.4      4.865      9.245
REMARK  Name = 10172821
REMARK  12 active torsions:
REMARK  status: ('A' for Active; 'I' for Inactive)
REMARK    1  A    between atoms: C_1  and  C_2
REMARK    2  A    between atoms: C_1  and  C_17
REMARK    3  A    between atoms: C_1  and  C_20
REMARK    4  A    between atoms: C_5  and  N_8
REMARK    5  A    between atoms: N_8  and  C_11
REMARK    6  A    between atoms: C_17  and  O_18
REMARK    7  A    between atoms: C_20  and  P_21
REMARK    8  A    between atoms: P_21  and  O_23
REMARK    9  A    between atoms: P_21  and  C_25
REMARK   10  A    between atoms: C_25  and  C_26
REMARK   11  A    between atoms: C_26  and  C_27
REMARK   12  A    between atoms: C_27  and  C_28
REMARK                            x       y       z     vdW  Elec       q    Type
REMARK                         _______ _______ _______ _____ _____    ______ ____
ROOT
ATOM      1  C   UNL     1      33.675 -13.223 -24.509  0.00  0.00    +0.131 C 
ENDROOT
BRANCH   1   2
ATOM      2  C   UNL     1      33.666 -11.754 -24.117  0.00  0.00    -0.010 C 
ATOM      3  C   UNL     1      32.698 -11.273 -23.234  0.00  0.00    +0.015 C 
ATOM      4  C   UNL     1      34.626 -10.888 -24.639  0.00  0.00    -0.004 C 
ATOM      5  C   UNL     1      32.691  -9.926 -22.874  0.00  0.00    +0.084 C 
ATOM      6  C   UNL     1      34.619  -9.540 -24.278  0.00  0.00    +0.001 C 
ATOM      7  C   UNL     1      33.651  -9.059 -23.396  0.00  0.00    +0.019 C 
BRANCH   5   8
ATOM      8  N   UNL     1      31.722  -9.443 -21.989  0.00  0.00    -0.214 NA
BRANCH   8  11
ATOM      9  N   UNL     1      32.656  -8.555 -19.952  0.00  0.00    -0.370 N 
ATOM     10  N   UNL     1      31.512 -10.530 -19.932  0.00  0.00    -0.370 N 
ATOM     11  C   UNL     1      31.964  -9.483 -20.701  0.00  0.00    +0.193 C 
ATOM     12  H   UNL     1      33.032  -7.755 -20.385  0.00  0.00    +0.159 HD
ATOM     13  H   UNL     1      32.774  -8.692 -18.985  0.00  0.00    +0.159 HD
ATOM     14  H   UNL     1      31.002 -11.262 -20.349  0.00  0.00    +0.159 HD
ATOM     15  H   UNL     1      31.700 -10.548 -18.966  0.00  0.00    +0.159 HD
ENDBRANCH   8  11
ENDBRANCH   5   8
ENDBRANCH   1   2
BRANCH   1  17
ATOM     16  O   UNL     1      33.503 -12.722 -26.897  0.00  0.00    -0.250 OA
ATOM     17  C   UNL     1      33.200 -13.426 -25.941  0.00  0.00    +0.318 C 
BRANCH  17  18
ATOM     18  O   UNL     1      32.378 -14.504 -26.060  0.00  0.00    -0.480 OA
ATOM     19  H   UNL     1      32.164 -14.838 -26.909  0.00  0.00    +0.295 HD
ENDBRANCH  17  18
ENDBRANCH   1  17
BRANCH   1  20
ATOM     20  C   UNL     1      32.854 -14.103 -23.559  0.00  0.00    +0.102 C 
BRANCH  20  21
ATOM     21  P   UNL     1      33.857 -15.102 -22.496  0.00  0.00    +0.220 P 
ATOM     22  O   UNL     1      33.118 -15.831 -21.429  0.00  0.00    -0.290 OA
BRANCH  21  23
ATOM     23  O   UNL     1      34.989 -14.085 -21.967  0.00  0.00    -0.343 OA
ATOM     24  H   UNL     1      35.747 -14.101 -22.572  0.00  0.00    +0.218 HD
ENDBRANCH  21  23
BRANCH  21  25
ATOM     25  C   UNL     1      34.797 -16.194 -23.586  0.00  0.00    +0.087 C 
BRANCH  25  26
ATOM     26  C   UNL     1      34.692 -17.670 -23.215  0.00  0.00    +0.015 C 
BRANCH  26  27
ATOM     27  C   UNL     1      35.583 -18.088 -22.040  0.00  0.00    +0.027 C 
BRANCH  27  28
ATOM     28  C   UNL     1      35.009 -19.204 -21.205  0.00  0.00    -0.022 C 
ATOM     29  C   UNL     1      33.626 -19.344 -21.084  0.00  0.00    -0.004 C 
ATOM     30  C   UNL     1      35.861 -20.097 -20.554  0.00  0.00    -0.004 C 
ATOM     31  C   UNL     1      33.095 -20.376 -20.311  0.00  0.00    -0.000 C 
ATOM     32  C   UNL     1      35.329 -21.129 -19.781  0.00  0.00    -0.000 C 
ATOM     33  C   UNL     1      33.946 -21.269 -19.659  0.00  0.00    -0.000 C 
ENDBRANCH  27  28
ENDBRANCH  26  27
ENDBRANCH  25  26
ENDBRANCH  21  25
ENDBRANCH  20  21
ENDBRANCH   1  20
TORSDOF 12
ENDMDL
MODEL 4
REMARK VINA RESULT:      -9.2      6.499      9.354
REMARK  Name = 10172821
REMARK  12 active torsions:
REMARK  status: ('A' for Active; 'I' for Inactive)
REMARK    1  A    between atoms: C_1  and  C_2
REMARK    2  A    between atoms: C_1  and  C_17
REMARK    3  A    between atoms: C_1  and  C_20
REMARK    4  A    between atoms: C_5  and  N_8
REMARK    5  A    between atoms: N_8  and  C_11
REMARK    6  A    between atoms: C_17  and  O_18
REMARK    7  A    between atoms: C_20  and  P_21
REMARK    8  A    between atoms: P_21  and  O_23
REMARK    9  A    between atoms: P_21  and  C_25
REMARK   10  A    between atoms: C_25  and  C_26
REMARK   11  A    between atoms: C_26  and  C_27
REMARK   12  A    between atoms: C_27  and  C_28
REMARK                            x       y       z     vdW  Elec       q    Type
REMARK                         _______ _______ _______ _____ _____    ______ ____
ROOT
ATOM      1  C   UNL     1      32.797 -24.190 -14.718  0.00  0.00    +0.131 C 
ENDROOT
BRANCH   1   2
ATOM      2  C   UNL     1      31.312 -24.238 -15.042  0.00  0.00    -0.010 C 
ATOM      3  C   UNL     1      30.729 -23.221 -15.800  0.00  0.00    +0.015 C 
ATOM      4  C   UNL     1      30.532 -25.300 -14.584  0.00  0.00    -0.004 C 
ATOM      5  C   UNL     1      29.367 -23.266 -16.098  0.00  0.00    +0.084 C 
ATOM      6  C   UNL     1      29.170 -25.345 -14.882  0.00  0.00    +0.001 C 
ATOM      7  C   UNL     1      28.588 -24.328 -15.638  0.00  0.00    +0.019 C 
BRANCH   5   8
ATOM      8  N   UNL     1      28.783 -22.247 -16.856  0.00  0.00    -0.214 NA
BRANCH   8  11
ATOM      9  N   UNL     1      26.654 -22.027 -15.746  0.00  0.00    -0.370 N 
ATOM     10  N   UNL     1      26.769 -22.064 -18.025  0.00  0.00    -0.370 N 
ATOM     11  C   UNL     1      27.477 -22.120 -16.847  0.00  0.00    +0.193 C 
ATOM     12  H   UNL     1      27.039 -22.054 -14.840  0.00  0.00    +0.159 HD
ATOM     13  H   UNL     1      25.682 -21.932 -15.864  0.00  0.00    +0.159 HD
ATOM     14  H   UNL     1      27.242 -22.120 -18.887  0.00  0.00    +0.159 HD
ATOM     15  H   UNL     1      25.790 -21.967 -18.005  0.00  0.00    +0.159 HD
ENDBRANCH   8  11
ENDBRANCH   5   8
ENDBRANCH   1   2
BRANCH   1  17
ATOM     16  O   UNL     1      33.847 -24.417 -12.522  0.00  0.00    -0.250 OA
ATOM     17  C   UNL     1      33.043 -23.854 -13.254  0.00  0.00    +0.318 C 
BRANCH  17  18
ATOM     18  O   UNL     1      32.255 -22.832 -12.824  0.00  0.00    -0.480 OA
ATOM     19  H   UNL     1      31.615 -22.460 -13.399  0.00  0.00    +0.295 HD
ENDBRANCH  17  18
ENDBRANCH   1  17
BRANCH   1  20
ATOM     20  C   UNL     1      33.575 -23.218 -15.613  0.00  0.00    +0.102 C 
BRANCH  20  21
ATOM     21  P   UNL     1      35.327 -23.465 -15.547  0.00  0.00    +0.220 P 
ATOM     22  O   UNL     1      35.772 -24.881 -15.666  0.00  0.00    -0.290 OA
BRANCH  21  23
ATOM     23  O   UNL     1      35.769 -22.725 -14.186  0.00  0.00    -0.343 OA
ATOM     24  H   UNL     1      36.006 -21.804 -14.381  0.00  0.00    +0.218 HD
ENDBRANCH  21  23
BRANCH  21  25
ATOM     25  C   UNL     1      36.026 -22.389 -16.818  0.00  0.00    +0.087 C 
BRANCH  25  26
ATOM     26  C   UNL     1      35.091 -22.141 -17.997  0.00  0.00    +0.015 C 
BRANCH  26  27
ATOM     27  C   UNL     1      35.809 -21.861 -19.321  0.00  0.00    +0.027 C 
BRANCH  27  28
ATOM     28  C   UNL     1      35.239 -20.695 -20.091  0.00  0.00    -0.022 C 
ATOM     29  C   UNL     1      33.859 -20.575 -20.254  0.00  0.00    -0.004 C 
ATOM     30  C   UNL     1      36.094 -19.738 -20.638  0.00  0.00    -0.004 C 
ATOM     31  C   UNL     1      33.333 -19.498 -20.965  0.00  0.00    -0.000 C 
ATOM     32  C   UNL     1      35.566 -18.659 -21.349  0.00  0.00    -0.000 C 
ATOM     33  C   UNL     1      34.186 -18.539 -21.513  0.00  0.00    -0.000 C 
ENDBRANCH  27  28
ENDBRANCH  26  27
ENDBRANCH  25  26
ENDBRANCH  21  25
ENDBRANCH  20  21
ENDBRANCH   1  20
TORSDOF 12
ENDMDL
MODEL 5
REMARK VINA RESULT:      -9.2      1.531      2.305
REMARK  Name = 10172821
REMARK  12 active torsions:
REMARK  status: ('A' for Active; 'I' for Inactive)
REMARK    1  A    between atoms: C_1  and  C_2
REMARK    2  A    between atoms: C_1  and  C_17
REMARK    3  A    between atoms: C_1  and  C_20
REMARK    4  A    between atoms: C_5  and  N_8
REMARK    5  A    between atoms: N_8  and  C_11
REMARK    6  A    between atoms: C_17  and  O_18
REMARK    7  A    between atoms: C_20  and  P_21
REMARK    8  A    between atoms: P_21  and  O_23
REMARK    9  A    between atoms: P_21  and  C_25
REMARK   10  A    between atoms: C_25  and  C_26
REMARK   11  A    between atoms: C_26  and  C_27
REMARK   12  A    between atoms: C_27  and  C_28
REMARK                            x       y       z     vdW  Elec       q    Type
REMARK                         _______ _______ _______ _____ _____    ______ ____
ROOT
ATOM      1  C   UNL     1      34.567 -17.966 -22.634  0.00  0.00    +0.131 C 
ENDROOT
BRANCH   1   2
ATOM      2  C   UNL     1      34.933 -19.010 -21.591  0.00  0.00    -0.010 C 
ATOM      3  C   UNL     1      33.940 -19.821 -21.038  0.00  0.00    +0.015 C 
ATOM      4  C   UNL     1      36.260 -19.159 -21.188  0.00  0.00    -0.004 C 
ATOM      5  C   UNL     1      34.276 -20.780 -20.082  0.00  0.00    +0.084 C 
ATOM      6  C   UNL     1      36.595 -20.118 -20.232  0.00  0.00    +0.001 C 
ATOM      7  C   UNL     1      35.603 -20.928 -19.679  0.00  0.00    +0.019 C 
BRANCH   5   8
ATOM      8  N   UNL     1      33.283 -21.592 -19.527  0.00  0.00    -0.214 NA
BRANCH   8  11
ATOM      9  N   UNL     1      33.833 -22.845 -17.542  0.00  0.00    -0.370 N 
ATOM     10  N   UNL     1      33.859 -23.855 -19.588  0.00  0.00    -0.370 N 
ATOM     11  C   UNL     1      33.637 -22.687 -18.897  0.00  0.00    +0.193 C 
ATOM     12  H   UNL     1      33.705 -22.081 -16.934  0.00  0.00    +0.159 HD
ATOM     13  H   UNL     1      34.099 -23.721 -17.182  0.00  0.00    +0.159 HD
ATOM     14  H   UNL     1      33.754 -23.875 -20.568  0.00  0.00    +0.159 HD
ATOM     15  H   UNL     1      34.125 -24.670 -19.105  0.00  0.00    +0.159 HD
ENDBRANCH   8  11
ENDBRANCH   5   8
ENDBRANCH   1   2
BRANCH   1  17
ATOM     16  O   UNL     1      34.830 -19.595 -24.439  0.00  0.00    -0.250 OA
ATOM     17  C   UNL     1      34.897 -18.437 -24.043  0.00  0.00    +0.318 C 
BRANCH  17  18
ATOM     18  O   UNL     1      35.287 -17.412 -24.848  0.00  0.00    -0.480 OA
ATOM     19  H   UNL     1      35.976 -16.839 -24.575  0.00  0.00    +0.295 HD
ENDBRANCH  17  18
ENDBRANCH   1  17
BRANCH   1  20
ATOM     20  C   UNL     1      35.222 -16.604 -22.374  0.00  0.00    +0.102 C 
BRANCH  20  21
ATOM     21  P   UNL     1      34.289 -15.585 -21.266  0.00  0.00    +0.220 P 
ATOM     22  O   UNL     1      35.014 -15.156 -20.039  0.00  0.00    -0.290 OA
BRANCH  21  23
ATOM     23  O   UNL     1      32.946 -16.434 -21.001  0.00  0.00    -0.343 OA
ATOM     24  H   UNL     1      32.318 -15.896 -20.493  0.00  0.00    +0.218 HD
ENDBRANCH  21  23
BRANCH  21  25
ATOM     25  C   UNL     1      33.684 -14.201 -22.257  0.00  0.00    +0.087 C 
BRANCH  25  26
ATOM     26  C   UNL     1      32.297 -13.715 -21.850  0.00  0.00    +0.015 C 
BRANCH  26  27
ATOM     27  C   UNL     1      31.910 -12.354 -22.440  0.00  0.00    +0.027 C 
BRANCH  27  28
ATOM     28  C   UNL     1      31.839 -11.245 -21.421  0.00  0.00    -0.022 C 
ATOM     29  C   UNL     1      32.089  -9.928 -21.806  0.00  0.00    -0.004 C 
ATOM     30  C   UNL     1      31.522 -11.537 -20.094  0.00  0.00    -0.004 C 
ATOM     31  C   UNL     1      32.024  -8.902 -20.864  0.00  0.00    -0.000 C 
ATOM     32  C   UNL     1      31.456 -10.510 -19.152  0.00  0.00    -0.000 C 
ATOM     33  C   UNL     1      31.707  -9.192 -19.536  0.00  0.00    -0.000 C 
ENDBRANCH  27  28
ENDBRANCH  26  27
ENDBRANCH  25  26
ENDBRANCH  21  25
ENDBRANCH  20  21
ENDBRANCH   1  20
TORSDOF 12
ENDMDL
MODEL 6
REMARK VINA RESULT:      -9.2      5.166      7.677
REMARK  Name = 10172821
REMARK  12 active torsions:
REMARK  status: ('A' for Active; 'I' for Inactive)
REMARK    1  A    between atoms: C_1  and  C_2
REMARK    2  A    between atoms: C_1  and  C_17
REMARK    3  A    between atoms: C_1  and  C_20
REMARK    4  A    between atoms: C_5  and  N_8
REMARK    5  A    between atoms: N_8  and  C_11
REMARK    6  A    between atoms: C_17  and  O_18
REMARK    7  A    between atoms: C_20  and  P_21
REMARK    8  A    between atoms: P_21  and  O_23
REMARK    9  A    between atoms: P_21  and  C_25
REMARK   10  A    between atoms: C_25  and  C_26
REMARK   11  A    between atoms: C_26  and  C_27
REMARK   12  A    between atoms: C_27  and  C_28
REMARK                            x       y       z     vdW  Elec       q    Type
REMARK                         _______ _______ _______ _____ _____    ______ ____
ROOT
ATOM      1  C   UNL     1      34.301 -23.512 -16.621  0.00  0.00    +0.131 C 
ENDROOT
BRANCH   1   2
ATOM      2  C   UNL     1      32.941 -23.276 -15.981  0.00  0.00    -0.010 C 
ATOM      3  C   UNL     1      31.838 -22.970 -16.780  0.00  0.00    +0.015 C 
ATOM      4  C   UNL     1      32.796 -23.367 -14.597  0.00  0.00    -0.004 C 
ATOM      5  C   UNL     1      30.591 -22.755 -16.193  0.00  0.00    +0.084 C 
ATOM      6  C   UNL     1      31.549 -23.152 -14.010  0.00  0.00    +0.001 C 
ATOM      7  C   UNL     1      30.447 -22.845 -14.808  0.00  0.00    +0.019 C 
BRANCH   5   8
ATOM      8  N   UNL     1      29.486 -22.448 -16.992  0.00  0.00    -0.214 NA
BRANCH   8  11
ATOM      9  N   UNL     1      27.204 -22.392 -16.216  0.00  0.00    -0.370 N 
ATOM     10  N   UNL     1      28.133 -24.352 -16.925  0.00  0.00    -0.370 N 
ATOM     11  C   UNL     1      28.331 -23.007 -16.718  0.00  0.00    +0.193 C 
ATOM     12  H   UNL     1      27.214 -21.426 -16.023  0.00  0.00    +0.159 HD
ATOM     13  H   UNL     1      26.389 -22.918 -16.050  0.00  0.00    +0.159 HD
ATOM     14  H   UNL     1      28.864 -24.907 -17.282  0.00  0.00    +0.159 HD
ATOM     15  H   UNL     1      27.262 -24.759 -16.716  0.00  0.00    +0.159 HD
ENDBRANCH   8  11
ENDBRANCH   5   8
ENDBRANCH   1   2
BRANCH   1  17
ATOM     16  O   UNL     1      35.928 -23.170 -14.828  0.00  0.00    -0.250 OA
ATOM     17  C   UNL     1      35.342 -23.928 -15.591  0.00  0.00    +0.318 C 
BRANCH  17  18
ATOM     18  O   UNL     1      35.565 -25.269 -15.603  0.00  0.00    -0.480 OA
ATOM     19  H   UNL     1      34.916 -25.849 -15.949  0.00  0.00    +0.295 HD
ENDBRANCH  17  18
ENDBRANCH   1  17
BRANCH   1  20
ATOM     20  C   UNL     1      34.808 -22.303 -17.415  0.00  0.00    +0.102 C 
BRANCH  20  21
ATOM     21  P   UNL     1      34.454 -22.412 -19.147  0.00  0.00    +0.220 P 
ATOM     22  O   UNL     1      33.883 -23.711 -19.596  0.00  0.00    -0.290 OA
BRANCH  21  23
ATOM     23  O   UNL     1      35.844 -22.000 -19.850  0.00  0.00    -0.343 OA
ATOM     24  H   UNL     1      35.783 -21.090 -20.179  0.00  0.00    +0.218 HD
ENDBRANCH  21  23
BRANCH  21  25
ATOM     25  C   UNL     1      33.395 -20.999 -19.526  0.00  0.00    +0.087 C 
BRANCH  25  26
ATOM     26  C   UNL     1      33.648 -20.393 -20.902  0.00  0.00    +0.015 C 
BRANCH  26  27
ATOM     27  C   UNL     1      34.569 -19.168 -20.890  0.00  0.00    +0.027 C 
BRANCH  27  28
ATOM     28  C   UNL     1      34.658 -18.457 -22.217  0.00  0.00    -0.022 C 
ATOM     29  C   UNL     1      34.792 -17.069 -22.256  0.00  0.00    -0.004 C 
ATOM     30  C   UNL     1      34.608 -19.188 -23.404  0.00  0.00    -0.004 C 
ATOM     31  C   UNL     1      34.874 -16.411 -23.483  0.00  0.00    -0.000 C 
ATOM     32  C   UNL     1      34.690 -18.529 -24.631  0.00  0.00    -0.000 C 
ATOM     33  C   UNL     1      34.823 -17.141 -24.671  0.00  0.00    -0.000 C 
ENDBRANCH  27  28
ENDBRANCH  26  27
ENDBRANCH  25  26
ENDBRANCH  21  25
ENDBRANCH  20  21
ENDBRANCH   1  20
TORSDOF 12
ENDMDL
MODEL 7
REMARK VINA RESULT:      -9.0      6.600     10.156
REMARK  Name = 10172821
REMARK  12 active torsions:
REMARK  status: ('A' for Active; 'I' for Inactive)
REMARK    1  A    between atoms: C_1  and  C_2
REMARK    2  A    between atoms: C_1  and  C_17
REMARK    3  A    between atoms: C_1  and  C_20
REMARK    4  A    between atoms: C_5  and  N_8
REMARK    5  A    between atoms: N_8  and  C_11
REMARK    6  A    between atoms: C_17  and  O_18
REMARK    7  A    between atoms: C_20  and  P_21
REMARK    8  A    between atoms: P_21  and  O_23
REMARK    9  A    between atoms: P_21  and  C_25
REMARK   10  A    between atoms: C_25  and  C_26
REMARK   11  A    between atoms: C_26  and  C_27
REMARK   12  A    between atoms: C_27  and  C_28
REMARK                            x       y       z     vdW  Elec       q    Type
REMARK                         _______ _______ _______ _____ _____    ______ ____
ROOT
ATOM      1  C   UNL     1      36.203 -22.955 -15.692  0.00  0.00    +0.131 C 
ENDROOT
BRANCH   1   2
ATOM      2  C   UNL     1      35.333 -22.723 -16.917  0.00  0.00    -0.010 C 
ATOM      3  C   UNL     1      35.875 -22.120 -18.054  0.00  0.00    +0.015 C 
ATOM      4  C   UNL     1      33.994 -23.112 -16.906  0.00  0.00    -0.004 C 
ATOM      5  C   UNL     1      35.077 -21.908 -19.178  0.00  0.00    +0.084 C 
ATOM      6  C   UNL     1      33.196 -22.900 -18.031  0.00  0.00    +0.001 C 
ATOM      7  C   UNL     1      33.737 -22.298 -19.166  0.00  0.00    +0.019 C 
BRANCH   5   8
ATOM      8  N   UNL     1      35.619 -21.305 -20.317  0.00  0.00    -0.214 NA
BRANCH   8  11
ATOM      9  N   UNL     1      34.070 -19.603 -21.035  0.00  0.00    -0.370 N 
ATOM     10  N   UNL     1      36.207 -19.049 -20.458  0.00  0.00    -0.370 N 
ATOM     11  C   UNL     1      35.291 -20.065 -20.594  0.00  0.00    +0.193 C 
ATOM     12  H   UNL     1      33.326 -20.232 -21.174  0.00  0.00    +0.159 HD
ATOM     13  H   UNL     1      33.941 -18.643 -21.211  0.00  0.00    +0.159 HD
ATOM     14  H   UNL     1      37.121 -19.247 -20.150  0.00  0.00    +0.159 HD
ATOM     15  H   UNL     1      35.949 -18.122 -20.670  0.00  0.00    +0.159 HD
ENDBRANCH   8  11
ENDBRANCH   5   8
ENDBRANCH   1   2
BRANCH   1  17
ATOM     16  O   UNL     1      37.996 -21.342 -16.099  0.00  0.00    -0.250 OA
ATOM     17  C   UNL     1      37.637 -22.500 -15.925  0.00  0.00    +0.318 C 
BRANCH  17  18
ATOM     18  O   UNL     1      38.511 -23.542 -15.921  0.00  0.00    -0.480 OA
ATOM     19  H   UNL     1      39.208 -23.566 -15.295  0.00  0.00    +0.295 HD
ENDBRANCH  17  18
ENDBRANCH   1  17
BRANCH   1  20
ATOM     20  C   UNL     1      36.190 -24.411 -15.214  0.00  0.00    +0.102 C 
BRANCH  20  21
ATOM     21  P   UNL     1      36.387 -24.569 -13.461  0.00  0.00    +0.220 P 
ATOM     22  O   UNL     1      37.569 -23.866 -12.892  0.00  0.00    -0.290 OA
BRANCH  21  23
ATOM     23  O   UNL     1      36.358 -26.161 -13.213  0.00  0.00    -0.343 OA
ATOM     24  H   UNL     1      36.028 -26.606 -14.009  0.00  0.00    +0.218 HD
ENDBRANCH  21  23
BRANCH  21  25
ATOM     25  C   UNL     1      34.822 -24.034 -12.736  0.00  0.00    +0.087 C 
BRANCH  25  26
ATOM     26  C   UNL     1      33.600 -24.410 -13.567  0.00  0.00    +0.015 C 
BRANCH  26  27
ATOM     27  C   UNL     1      32.517 -23.326 -13.618  0.00  0.00    +0.027 C 
BRANCH  27  28
ATOM     28  C   UNL     1      31.276 -23.736 -14.372  0.00  0.00    -0.022 C 
ATOM     29  C   UNL     1      30.748 -25.016 -14.200  0.00  0.00    -0.004 C 
ATOM     30  C   UNL     1      30.659 -22.835 -15.239  0.00  0.00    -0.004 C 
ATOM     31  C   UNL     1      29.601 -25.395 -14.897  0.00  0.00    -0.000 C 
ATOM     32  C   UNL     1      29.511 -23.215 -15.936  0.00  0.00    -0.000 C 
ATOM     33  C   UNL     1      28.982 -24.495 -15.766  0.00  0.00    -0.000 C 
ENDBRANCH  27  28
ENDBRANCH  26  27
ENDBRANCH  25  26
ENDBRANCH  21  25
ENDBRANCH  20  21
ENDBRANCH   1  20
TORSDOF 12
ENDMDL
MODEL 8
REMARK VINA RESULT:      -8.9      6.193      8.726
REMARK  Name = 10172821
REMARK  12 active torsions:
REMARK  status: ('A' for Active; 'I' for Inactive)
REMARK    1  A    between atoms: C_1  and  C_2
REMARK    2  A    between atoms: C_1  and  C_17
REMARK    3  A    between atoms: C_1  and  C_20
REMARK    4  A    between atoms: C_5  and  N_8
REMARK    5  A    between atoms: N_8  and  C_11
REMARK    6  A    between atoms: C_17  and  O_18
REMARK    7  A    between atoms: C_20  and  P_21
REMARK    8  A    between atoms: P_21  and  O_23
REMARK    9  A    between atoms: P_21  and  C_25
REMARK   10  A    between atoms: C_25  and  C_26
REMARK   11  A    between atoms: C_26  and  C_27
REMARK   12  A    between atoms: C_27  and  C_28
REMARK                            x       y       z     vdW  Elec       q    Type
REMARK                         _______ _______ _______ _____ _____    ______ ____
ROOT
ATOM      1  C   UNL     1      33.500 -23.299 -16.322  0.00  0.00    +0.131 C 
ENDROOT
BRANCH   1   2
ATOM      2  C   UNL     1      32.362 -23.886 -15.502  0.00  0.00    -0.010 C 
ATOM      3  C   UNL     1      31.061 -23.874 -16.005  0.00  0.00    +0.015 C 
ATOM      4  C   UNL     1      32.620 -24.437 -14.247  0.00  0.00    -0.004 C 
ATOM      5  C   UNL     1      30.017 -24.414 -15.253  0.00  0.00    +0.084 C 
ATOM      6  C   UNL     1      31.576 -24.977 -13.494  0.00  0.00    +0.001 C 
ATOM      7  C   UNL     1      30.275 -24.965 -13.997  0.00  0.00    +0.019 C 
BRANCH   5   8
ATOM      8  N   UNL     1      28.713 -24.403 -15.756  0.00  0.00    -0.214 NA
BRANCH   8  11
ATOM      9  N   UNL     1      27.832 -22.174 -15.498  0.00  0.00    -0.370 N 
ATOM     10  N   UNL     1      28.046 -23.097 -17.574  0.00  0.00    -0.370 N 
ATOM     11  C   UNL     1      28.223 -23.279 -16.223  0.00  0.00    +0.193 C 
ATOM     12  H   UNL     1      27.909 -22.176 -14.516  0.00  0.00    +0.159 HD
ATOM     13  H   UNL     1      27.478 -21.382 -15.961  0.00  0.00    +0.159 HD
ATOM     14  H   UNL     1      28.286 -23.815 -18.204  0.00  0.00    +0.159 HD
ATOM     15  H   UNL     1      27.677 -22.249 -17.912  0.00  0.00    +0.159 HD
ENDBRANCH   8  11
ENDBRANCH   5   8
ENDBRANCH   1   2
BRANCH   1  17
ATOM     16  O   UNL     1      32.299 -22.285 -18.195  0.00  0.00    -0.250 OA
ATOM     17  C   UNL     1      33.103 -23.109 -17.780  0.00  0.00    +0.318 C 
BRANCH  17  18
ATOM     18  O   UNL     1      33.754 -23.974 -18.603  0.00  0.00    -0.480 OA
ATOM     19  H   UNL     1      34.552 -23.714 -19.020  0.00  0.00    +0.295 HD
ENDBRANCH  17  18
ENDBRANCH   1  17
BRANCH   1  20
ATOM     20  C   UNL     1      34.789 -24.123 -16.236  0.00  0.00    +0.102 C 
BRANCH  20  21
ATOM     21  P   UNL     1      36.085 -23.297 -15.355  0.00  0.00    +0.220 P 
ATOM     22  O   UNL     1      36.894 -24.167 -14.457  0.00  0.00    -0.290 OA
BRANCH  21  23
ATOM     23  O   UNL     1      35.333 -22.076 -14.621  0.00  0.00    -0.343 OA
ATOM     24  H   UNL     1      35.953 -21.624 -14.028  0.00  0.00    +0.218 HD
ENDBRANCH  21  23
BRANCH  21  25
ATOM     25  C   UNL     1      37.073 -22.449 -16.606  0.00  0.00    +0.087 C 
BRANCH  25  26
ATOM     26  C   UNL     1      36.251 -21.579 -17.552  0.00  0.00    +0.015 C 
BRANCH  26  27
ATOM     27  C   UNL     1      36.712 -21.629 -19.013  0.00  0.00    +0.027 C 
BRANCH  27  28
ATOM     28  C   UNL     1      36.006 -20.644 -19.910  0.00  0.00    -0.022 C 
ATOM     29  C   UNL     1      36.733 -19.640 -20.551  0.00  0.00    -0.004 C 
ATOM     30  C   UNL     1      34.627 -20.738 -20.100  0.00  0.00    -0.004 C 
ATOM     31  C   UNL     1      36.080 -18.729 -21.381  0.00  0.00    -0.000 C 
ATOM     32  C   UNL     1      33.975 -19.827 -20.930  0.00  0.00    -0.000 C 
ATOM     33  C   UNL     1      34.701 -18.822 -21.571  0.00  0.00    -0.000 C 
ENDBRANCH  27  28
ENDBRANCH  26  27
ENDBRANCH  25  26
ENDBRANCH  21  25
ENDBRANCH  20  21
ENDBRANCH   1  20
TORSDOF 12
ENDMDL
MODEL 9
REMARK VINA RESULT:      -8.9      5.306      9.389
REMARK  Name = 10172821
REMARK  12 active torsions:
REMARK  status: ('A' for Active; 'I' for Inactive)
REMARK    1  A    between atoms: C_1  and  C_2
REMARK    2  A    between atoms: C_1  and  C_17
REMARK    3  A    between atoms: C_1  and  C_20
REMARK    4  A    between atoms: C_5  and  N_8
REMARK    5  A    between atoms: N_8  and  C_11
REMARK    6  A    between atoms: C_17  and  O_18
REMARK    7  A    between atoms: C_20  and  P_21
REMARK    8  A    between atoms: P_21  and  O_23
REMARK    9  A    between atoms: P_21  and  C_25
REMARK   10  A    between atoms: C_25  and  C_26
REMARK   11  A    between atoms: C_26  and  C_27
REMARK   12  A    between atoms: C_27  and  C_28
REMARK                            x       y       z     vdW  Elec       q    Type
REMARK                         _______ _______ _______ _____ _____    ______ ____
ROOT
ATOM      1  C   UNL     1      33.124 -12.544 -24.182  0.00  0.00    +0.131 C 
ENDROOT
BRANCH   1   2
ATOM      2  C   UNL     1      33.349 -11.089 -23.801  0.00  0.00    -0.010 C 
ATOM      3  C   UNL     1      32.534 -10.485 -22.841  0.00  0.00    +0.015 C 
ATOM      4  C   UNL     1      34.369 -10.358 -24.409  0.00  0.00    -0.004 C 
ATOM      5  C   UNL     1      32.742  -9.151 -22.491  0.00  0.00    +0.084 C 
ATOM      6  C   UNL     1      34.577  -9.024 -24.058  0.00  0.00    +0.001 C 
ATOM      7  C   UNL     1      33.762  -8.420 -23.100  0.00  0.00    +0.019 C 
BRANCH   5   8
ATOM      8  N   UNL     1      31.927  -8.545 -21.530  0.00  0.00    -0.214 NA
BRANCH   8  11
ATOM      9  N   UNL     1      32.148  -9.531 -19.341  0.00  0.00    -0.370 N 
ATOM     10  N   UNL     1      32.989  -7.451 -19.761  0.00  0.00    -0.370 N 
ATOM     11  C   UNL     1      32.321  -8.536 -20.279  0.00  0.00    +0.193 C 
ATOM     12  H   UNL     1      31.683 -10.363 -19.586  0.00  0.00    +0.159 HD
ATOM     13  H   UNL     1      32.491  -9.410 -18.426  0.00  0.00    +0.159 HD
ATOM     14  H   UNL     1      33.176  -6.670 -20.330  0.00  0.00    +0.159 HD
ATOM     15  H   UNL     1      33.280  -7.456 -18.820  0.00  0.00    +0.159 HD
ENDBRANCH   8  11
ENDBRANCH   5   8
ENDBRANCH   1   2
BRANCH   1  17
ATOM     16  O   UNL     1      32.228 -13.935 -22.381  0.00  0.00    -0.250 OA
ATOM     17  C   UNL     1      33.193 -13.461 -22.969  0.00  0.00    +0.318 C 
BRANCH  17  18
ATOM     18  O   UNL     1      34.474 -13.711 -22.589  0.00  0.00    -0.480 OA
ATOM     19  H   UNL     1      34.935 -14.443 -22.950  0.00  0.00    +0.295 HD
ENDBRANCH  17  18
ENDBRANCH   1  17
BRANCH   1  20
ATOM     20  C   UNL     1      34.092 -13.037 -25.263  0.00  0.00    +0.102 C 
BRANCH  20  21
ATOM     21  P   UNL     1      33.290 -13.957 -26.547  0.00  0.00    +0.220 P 
ATOM     22  O   UNL     1      33.885 -13.801 -27.903  0.00  0.00    -0.290 OA
BRANCH  21  23
ATOM     23  O   UNL     1      31.745 -13.517 -26.427  0.00  0.00    -0.343 OA
ATOM     24  H   UNL     1      31.673 -12.741 -25.849  0.00  0.00    +0.218 HD
ENDBRANCH  21  23
BRANCH  21  25
ATOM     25  C   UNL     1      33.250 -15.670 -25.978  0.00  0.00    +0.087 C 
BRANCH  25  26
ATOM     26  C   UNL     1      34.545 -16.127 -25.313  0.00  0.00    +0.015 C 
BRANCH  26  27
ATOM     27  C   UNL     1      34.631 -17.639 -25.078  0.00  0.00    +0.027 C 
BRANCH  27  28
ATOM     28  C   UNL     1      34.820 -18.023 -23.632  0.00  0.00    -0.022 C 
ATOM     29  C   UNL     1      35.039 -17.035 -22.672  0.00  0.00    -0.004 C 
ATOM     30  C   UNL     1      34.774 -19.365 -23.255  0.00  0.00    -0.004 C 
ATOM     31  C   UNL     1      35.213 -17.389 -21.334  0.00  0.00    -0.000 C 
ATOM     32  C   UNL     1      34.949 -19.719 -21.917  0.00  0.00    -0.000 C 
ATOM     33  C   UNL     1      35.169 -18.732 -20.956  0.00  0.00    -0.000 C 
ENDBRANCH  27  28
ENDBRANCH  26  27
ENDBRANCH  25  26
ENDBRANCH  21  25
ENDBRANCH  20  21
ENDBRANCH   1  20
TORSDOF 12
ENDMDL
