MODEL 1
REMARK VINA RESULT:     -12.4      0.000      0.000
REMARK  Name = 24752833
REMARK  4 active torsions:
REMARK  status: ('A' for Active; 'I' for Inactive)
REMARK    1  A    between atoms: C_1  and  N_8
REMARK    2  A    between atoms: C_2  and  N_23
REMARK    3  A    between atoms: C_9  and  C_14
REMARK    4  A    between atoms: C_24  and  C_28
REMARK                            x       y       z     vdW  Elec       q    Type
REMARK                         _______ _______ _______ _____ _____    ______ ____
ROOT
ATOM      1  C   UNL     1      31.503 -23.207 -15.217  0.00  0.00    +0.090 C 
ATOM      2  C   UNL     1      31.047 -23.312 -16.684  0.00  0.00    +0.090 C 
ATOM      3  C   UNL     1      30.604 -24.034 -14.293  0.00  0.00    +0.021 C 
ATOM      4  C   UNL     1      29.561 -22.974 -16.837  0.00  0.00    +0.021 C 
ATOM      5  C   UNL     1      29.130 -23.679 -14.458  0.00  0.00    +0.002 C 
ATOM      6  C   UNL     1      28.686 -23.812 -15.911  0.00  0.00    +0.002 C 
ENDROOT
BRANCH   1   8
ATOM      7  O   UNL     1      32.928 -23.573 -12.751  0.00  0.00    -0.267 OA
ATOM      8  N   UNL     1      32.879 -23.628 -15.068  0.00  0.00    -0.298 N 
ATOM      9  C   UNL     1      33.480 -23.777 -13.828  0.00  0.00    +0.282 C 
ATOM     10  H   UNL     1      33.408 -23.817 -15.877  0.00  0.00    +0.150 HD
BRANCH   9  14
ATOM     11  S   UNL     1      35.541 -25.075 -15.181  0.00  0.00    -0.074 S 
ATOM     12  N   UNL     1      39.294 -25.905 -13.873  0.00  0.00    +0.387 N 
ATOM     13  N   UNL     1      35.746 -23.917 -12.868  0.00  0.00    -0.399 NA
ATOM     14  C   UNL     1      34.906 -24.192 -13.845  0.00  0.00    +0.210 C 
ATOM     15  C   UNL     1      36.978 -24.437 -13.196  0.00  0.00    +0.093 C 
ATOM     16  C   UNL     1      37.049 -25.100 -14.401  0.00  0.00    +0.082 C 
ATOM     17  C   UNL     1      38.158 -24.324 -12.298  0.00  0.00    +0.032 C 
ATOM     18  C   UNL     1      38.293 -25.716 -14.951  0.00  0.00    -0.059 C 
ATOM     19  C   UNL     1      39.458 -24.682 -13.055  0.00  0.00    -0.070 C 
ATOM     20  C   UNL     1      40.575 -26.324 -14.439  0.00  0.00    -0.101 C 
ATOM     21  H   UNL     1      38.950 -26.640 -13.253  0.00  0.00    -0.080 HD
ENDBRANCH   9  14
ENDBRANCH   1   8
BRANCH   2  23
ATOM     22  O   UNL     1      33.442 -24.024 -18.097  0.00  0.00    -0.269 OA
ATOM     23  N   UNL     1      31.836 -22.450 -17.536  0.00  0.00    -0.300 N 
ATOM     24  C   UNL     1      32.982 -22.888 -18.177  0.00  0.00    +0.259 C 
ATOM     25  H   UNL     1      31.547 -21.518 -17.665  0.00  0.00    +0.150 HD
BRANCH  24  28
ATOM     26 CL   UNL     1      35.691 -17.272 -22.735  0.00  0.00    -0.082 Cl
ATOM     27  N   UNL     1      35.057 -21.762 -19.052  0.00  0.00    -0.309 N 
ATOM     28  C   UNL     1      33.694 -21.874 -18.997  0.00  0.00    +0.102 C 
ATOM     29  C   UNL     1      33.156 -20.904 -19.810  0.00  0.00    +0.020 C 
ATOM     30  C   UNL     1      35.415 -20.732 -19.892  0.00  0.00    +0.048 C 
ATOM     31  C   UNL     1      34.233 -20.173 -20.384  0.00  0.00    +0.016 C 
ATOM     32  C   UNL     1      36.682 -20.256 -20.249  0.00  0.00    +0.015 C 
ATOM     33  C   UNL     1      34.318 -19.086 -21.277  0.00  0.00    +0.013 C 
ATOM     34  C   UNL     1      35.578 -18.600 -21.644  0.00  0.00    +0.058 C 
ATOM     35  C   UNL     1      36.741 -19.177 -21.137  0.00  0.00    +0.013 C 
ATOM     36  H   UNL     1      35.689 -22.336 -18.563  0.00  0.00    +0.152 HD
ENDBRANCH  24  28
ENDBRANCH   2  23
TORSDOF 4
ENDMDL
MODEL 2
REMARK VINA RESULT:     -11.6      2.905      7.513
REMARK  Name = 24752833
REMARK  4 active torsions:
REMARK  status: ('A' for Active; 'I' for Inactive)
REMARK    1  A    between atoms: C_1  and  N_8
REMARK    2  A    between atoms: C_2  and  N_23
REMARK    3  A    between atoms: C_9  and  C_14
REMARK    4  A    between atoms: C_24  and  C_28
REMARK                            x       y       z     vdW  Elec       q    Type
REMARK                         _______ _______ _______ _____ _____    ______ ____
ROOT
ATOM      1  C   UNL     1      31.232 -23.825 -16.180  0.00  0.00    +0.090 C 
ATOM      2  C   UNL     1      31.854 -23.694 -14.778  0.00  0.00    +0.090 C 
ATOM      3  C   UNL     1      29.725 -23.550 -16.150  0.00  0.00    +0.021 C 
ATOM      4  C   UNL     1      31.111 -24.551 -13.748  0.00  0.00    +0.021 C 
ATOM      5  C   UNL     1      29.004 -24.417 -15.122  0.00  0.00    +0.002 C 
ATOM      6  C   UNL     1      29.614 -24.256 -13.734  0.00  0.00    +0.002 C 
ENDROOT
BRANCH   1   8
ATOM      7  O   UNL     1      33.687 -24.301 -17.590  0.00  0.00    -0.267 OA
ATOM      8  N   UNL     1      31.874 -22.934 -17.121  0.00  0.00    -0.298 N 
ATOM      9  C   UNL     1      33.064 -23.256 -17.754  0.00  0.00    +0.282 C 
ATOM     10  H   UNL     1      31.450 -22.068 -17.320  0.00  0.00    +0.150 HD
BRANCH   9  14
ATOM     11  S   UNL     1      35.309 -22.045 -18.875  0.00  0.00    -0.074 S 
ATOM     12  N   UNL     1      35.488 -18.755 -21.248  0.00  0.00    +0.387 N 
ATOM     13  N   UNL     1      32.843 -21.405 -19.368  0.00  0.00    -0.399 NA
ATOM     14  C   UNL     1      33.608 -22.223 -18.673  0.00  0.00    +0.210 C 
ATOM     15  C   UNL     1      33.655 -20.582 -20.114  0.00  0.00    +0.093 C 
ATOM     16  C   UNL     1      35.011 -20.780 -19.968  0.00  0.00    +0.082 C 
ATOM     17  C   UNL     1      33.115 -19.519 -21.003  0.00  0.00    +0.032 C 
ATOM     18  C   UNL     1      36.058 -20.011 -20.702  0.00  0.00    -0.059 C 
ATOM     19  C   UNL     1      34.213 -18.996 -21.960  0.00  0.00    -0.070 C 
ATOM     20  C   UNL     1      36.455 -18.099 -22.127  0.00  0.00    -0.101 C 
ATOM     21  H   UNL     1      35.284 -18.137 -20.462  0.00  0.00    -0.080 HD
ENDBRANCH   9  14
ENDBRANCH   1   8
BRANCH   2  23
ATOM     22  O   UNL     1      33.680 -23.588 -12.565  0.00  0.00    -0.269 OA
ATOM     23  N   UNL     1      33.255 -24.052 -14.796  0.00  0.00    -0.300 N 
ATOM     24  C   UNL     1      34.057 -23.967 -13.671  0.00  0.00    +0.259 C 
ATOM     25  H   UNL     1      33.652 -24.370 -15.639  0.00  0.00    +0.150 HD
BRANCH  24  28
ATOM     26 CL   UNL     1      41.302 -26.640 -13.829  0.00  0.00    -0.082 Cl
ATOM     27  N   UNL     1      36.291 -23.804 -14.821  0.00  0.00    -0.309 N 
ATOM     28  C   UNL     1      35.481 -24.348 -13.861  0.00  0.00    +0.102 C 
ATOM     29  C   UNL     1      36.219 -25.268 -13.153  0.00  0.00    +0.020 C 
ATOM     30  C   UNL     1      37.550 -24.358 -14.748  0.00  0.00    +0.048 C 
ATOM     31  C   UNL     1      37.532 -25.285 -13.704  0.00  0.00    +0.016 C 
ATOM     32  C   UNL     1      38.691 -24.112 -15.520  0.00  0.00    +0.015 C 
ATOM     33  C   UNL     1      38.709 -26.003 -13.414  0.00  0.00    +0.013 C 
ATOM     34  C   UNL     1      39.858 -25.767 -14.177  0.00  0.00    +0.058 C 
ATOM     35  C   UNL     1      39.847 -24.836 -15.214  0.00  0.00    +0.013 C 
ATOM     36  H   UNL     1      36.015 -23.117 -15.468  0.00  0.00    +0.152 HD
ENDBRANCH  24  28
ENDBRANCH   2  23
TORSDOF 4
ENDMDL
MODEL 3
REMARK VINA RESULT:     -11.5      2.709      7.465
REMARK  Name = 24752833
REMARK  4 active torsions:
REMARK  status: ('A' for Active; 'I' for Inactive)
REMARK    1  A    between atoms: C_1  and  N_8
REMARK    2  A    between atoms: C_2  and  N_23
REMARK    3  A    between atoms: C_9  and  C_14
REMARK    4  A    between atoms: C_24  and  C_28
REMARK                            x       y       z     vdW  Elec       q    Type
REMARK                         _______ _______ _______ _____ _____    ______ ____
ROOT
ATOM      1  C   UNL     1      30.928 -23.281 -16.755  0.00  0.00    +0.090 C 
ATOM      2  C   UNL     1      31.382 -23.152 -15.290  0.00  0.00    +0.090 C 
ATOM      3  C   UNL     1      29.446 -22.925 -16.912  0.00  0.00    +0.021 C 
ATOM      4  C   UNL     1      30.474 -23.946 -14.345  0.00  0.00    +0.021 C 
ATOM      5  C   UNL     1      28.559 -23.729 -15.967  0.00  0.00    +0.002 C 
ATOM      6  C   UNL     1      29.005 -23.571 -14.518  0.00  0.00    +0.002 C 
ENDROOT
BRANCH   1   8
ATOM      7  O   UNL     1      33.502 -23.922 -17.855  0.00  0.00    -0.267 OA
ATOM      8  N   UNL     1      31.728 -22.446 -17.624  0.00  0.00    -0.298 N 
ATOM      9  C   UNL     1      32.964 -22.847 -18.106  0.00  0.00    +0.282 C 
ATOM     10  H   UNL     1      31.382 -21.561 -17.883  0.00  0.00    +0.150 HD
BRANCH   9  14
ATOM     11  S   UNL     1      32.782 -20.746 -19.926  0.00  0.00    -0.074 S 
ATOM     12  N   UNL     1      35.760 -18.956 -22.028  0.00  0.00    +0.387 N 
ATOM     13  N   UNL     1      34.986 -21.794 -19.045  0.00  0.00    -0.399 NA
ATOM     14  C   UNL     1      33.673 -21.864 -18.967  0.00  0.00    +0.210 C 
ATOM     15  C   UNL     1      35.314 -20.785 -19.922  0.00  0.00    +0.093 C 
ATOM     16  C   UNL     1      34.254 -20.118 -20.496  0.00  0.00    +0.082 C 
ATOM     17  C   UNL     1      36.722 -20.446 -20.260  0.00  0.00    +0.032 C 
ATOM     18  C   UNL     1      34.393 -18.981 -21.453  0.00  0.00    -0.059 C 
ATOM     19  C   UNL     1      36.799 -19.079 -20.981  0.00  0.00    -0.070 C 
ATOM     20  C   UNL     1      35.958 -17.738 -22.811  0.00  0.00    -0.101 C 
ATOM     21  H   UNL     1      35.854 -19.764 -22.645  0.00  0.00    -0.080 HD
ENDBRANCH   9  14
ENDBRANCH   1   8
BRANCH   2  23
ATOM     22  O   UNL     1      32.782 -23.545 -12.814  0.00  0.00    -0.269 OA
ATOM     23  N   UNL     1      32.753 -23.586 -15.131  0.00  0.00    -0.300 N 
ATOM     24  C   UNL     1      33.342 -23.747 -13.888  0.00  0.00    +0.259 C 
ATOM     25  H   UNL     1      33.286 -23.776 -15.937  0.00  0.00    +0.150 HD
BRANCH  24  28
ATOM     26 CL   UNL     1      40.777 -25.555 -14.939  0.00  0.00    -0.082 Cl
ATOM     27  N   UNL     1      35.378 -24.794 -12.841  0.00  0.00    -0.309 N 
ATOM     28  C   UNL     1      34.765 -24.174 -13.896  0.00  0.00    +0.102 C 
ATOM     29  C   UNL     1      35.691 -24.037 -14.904  0.00  0.00    +0.020 C 
ATOM     30  C   UNL     1      36.692 -25.064 -13.148  0.00  0.00    +0.048 C 
ATOM     31  C   UNL     1      36.916 -24.597 -14.445  0.00  0.00    +0.016 C 
ATOM     32  C   UNL     1      37.691 -25.679 -12.384  0.00  0.00    +0.015 C 
ATOM     33  C   UNL     1      38.198 -24.749 -15.009  0.00  0.00    +0.013 C 
ATOM     34  C   UNL     1      39.207 -25.364 -14.257  0.00  0.00    +0.058 C 
ATOM     35  C   UNL     1      38.955 -25.821 -12.965  0.00  0.00    +0.013 C 
ATOM     36  H   UNL     1      34.942 -25.016 -11.987  0.00  0.00    +0.152 HD
ENDBRANCH  24  28
ENDBRANCH   2  23
TORSDOF 4
ENDMDL
MODEL 4
REMARK VINA RESULT:      -9.6      3.059      8.183
REMARK  Name = 24752833
REMARK  4 active torsions:
REMARK  status: ('A' for Active; 'I' for Inactive)
REMARK    1  A    between atoms: C_1  and  N_8
REMARK    2  A    between atoms: C_2  and  N_23
REMARK    3  A    between atoms: C_9  and  C_14
REMARK    4  A    between atoms: C_24  and  C_28
REMARK                            x       y       z     vdW  Elec       q    Type
REMARK                         _______ _______ _______ _____ _____    ______ ____
ROOT
ATOM      1  C   UNL     1      37.515 -23.885 -15.286  0.00  0.00    +0.090 C 
ATOM      2  C   UNL     1      36.727 -25.208 -15.279  0.00  0.00    +0.090 C 
ATOM      3  C   UNL     1      39.019 -24.132 -15.131  0.00  0.00    +0.021 C 
ATOM      4  C   UNL     1      37.069 -26.061 -14.054  0.00  0.00    +0.021 C 
ATOM      5  C   UNL     1      39.338 -24.979 -13.904  0.00  0.00    +0.002 C 
ATOM      6  C   UNL     1      38.570 -26.296 -13.924  0.00  0.00    +0.002 C 
ENDROOT
BRANCH   1   8
ATOM      7  O   UNL     1      35.412 -21.978 -15.716  0.00  0.00    -0.267 OA
ATOM      8  N   UNL     1      37.263 -23.135 -16.497  0.00  0.00    -0.298 N 
ATOM      9  C   UNL     1      36.217 -22.233 -16.607  0.00  0.00    +0.282 C 
ATOM     10  H   UNL     1      37.857 -23.270 -17.271  0.00  0.00    +0.150 HD
BRANCH   9  14
ATOM     11  S   UNL     1      34.668 -21.808 -18.884  0.00  0.00    -0.074 S 
ATOM     12  N   UNL     1      35.658 -19.813 -22.279  0.00  0.00    +0.387 N 
ATOM     13  N   UNL     1      36.997 -20.760 -18.424  0.00  0.00    -0.399 NA
ATOM     14  C   UNL     1      36.077 -21.561 -17.925  0.00  0.00    +0.210 C 
ATOM     15  C   UNL     1      36.559 -20.307 -19.648  0.00  0.00    +0.093 C 
ATOM     16  C   UNL     1      35.330 -20.774 -20.058  0.00  0.00    +0.082 C 
ATOM     17  C   UNL     1      37.368 -19.393 -20.498  0.00  0.00    +0.032 C 
ATOM     18  C   UNL     1      34.667 -20.388 -21.338  0.00  0.00    -0.059 C 
ATOM     19  C   UNL     1      36.502 -18.786 -21.627  0.00  0.00    -0.070 C 
ATOM     20  C   UNL     1      34.982 -19.258 -23.451  0.00  0.00    -0.101 C 
ATOM     21  H   UNL     1      36.277 -20.567 -22.580  0.00  0.00    -0.080 HD
ENDBRANCH   9  14
ENDBRANCH   1   8
BRANCH   2  23
ATOM     22  O   UNL     1      35.084 -24.236 -13.134  0.00  0.00    -0.269 OA
ATOM     23  N   UNL     1      35.302 -24.963 -15.324  0.00  0.00    -0.300 N 
ATOM     24  C   UNL     1      34.595 -24.491 -14.231  0.00  0.00    +0.259 C 
ATOM     25  H   UNL     1      34.817 -25.137 -16.163  0.00  0.00    +0.150 HD
BRANCH  24  28
ATOM     26 CL   UNL     1      27.239 -22.567 -15.586  0.00  0.00    -0.082 Cl
ATOM     27  N   UNL     1      32.212 -25.304 -14.206  0.00  0.00    -0.309 N 
ATOM     28  C   UNL     1      33.133 -24.317 -14.432  0.00  0.00    +0.102 C 
ATOM     29  C   UNL     1      32.458 -23.197 -14.859  0.00  0.00    +0.020 C 
ATOM     30  C   UNL     1      30.945 -24.843 -14.481  0.00  0.00    +0.048 C 
ATOM     31  C   UNL     1      31.072 -23.514 -14.896  0.00  0.00    +0.016 C 
ATOM     32  C   UNL     1      29.708 -25.492 -14.397  0.00  0.00    +0.015 C 
ATOM     33  C   UNL     1      29.909 -22.798 -15.243  0.00  0.00    +0.013 C 
ATOM     34  C   UNL     1      28.665 -23.435 -15.163  0.00  0.00    +0.058 C 
ATOM     35  C   UNL     1      28.568 -24.761 -14.746  0.00  0.00    +0.013 C 
ATOM     36  H   UNL     1      32.425 -26.212 -13.893  0.00  0.00    +0.152 HD
ENDBRANCH  24  28
ENDBRANCH   2  23
TORSDOF 4
ENDMDL
