MODEL 1
REMARK VINA RESULT:      -9.4      0.000      0.000
REMARK  Name = 25126798
REMARK  5 active torsions:
REMARK  status: ('A' for Active; 'I' for Inactive)
REMARK    1  A    between atoms: N_1  and  C_16
REMARK    2  A    between atoms: C_4  and  C_9
REMARK    3  A    between atoms: C_16  and  C_17
REMARK    4  A    between atoms: C_16  and  C_22
REMARK    5  A    between atoms: C_22  and  C_24
REMARK                            x       y       z     vdW  Elec       q    Type
REMARK                         _______ _______ _______ _____ _____    ______ ____
ROOT
ATOM      1  N   UNL     1      33.634  -9.202 -23.260  0.00  0.00    -0.211 N 
ATOM      2  N   UNL     1      34.818  -8.944 -23.841  0.00  0.00    -0.176 NA
ATOM      3  C   UNL     1      33.080 -10.389 -23.641  0.00  0.00    +0.087 C 
ATOM      4  C   UNL     1      33.963 -10.945 -24.534  0.00  0.00    +0.051 C 
ATOM      5  C   UNL     1      35.013 -10.011 -24.619  0.00  0.00    +0.120 C 
ENDROOT
BRANCH   4   9
ATOM      6  N   UNL     1      33.552 -12.225 -26.519  0.00  0.00    -0.248 NA
ATOM      7  N   UNL     1      33.632 -15.625 -24.339  0.00  0.00    -0.300 N 
ATOM      8  N   UNL     1      33.363 -14.652 -26.529  0.00  0.00    -0.233 NA
ATOM      9  C   UNL     1      33.764 -12.204 -25.183  0.00  0.00    +0.069 C 
ATOM     10  C   UNL     1      33.783 -13.403 -24.471  0.00  0.00    +0.117 C 
ATOM     11  C   UNL     1      33.578 -14.566 -25.205  0.00  0.00    +0.115 C 
ATOM     12  C   UNL     1      33.967 -13.793 -23.120  0.00  0.00    +0.003 C 
ATOM     13  C   UNL     1      33.869 -15.167 -23.069  0.00  0.00    +0.059 C 
ATOM     14  C   UNL     1      33.367 -13.431 -27.101  0.00  0.00    +0.251 C 
ATOM     15  H   UNL     1      33.519 -16.571 -24.591  0.00  0.00    +0.153 HD
ENDBRANCH   4   9
BRANCH   1  16
ATOM     16  C   UNL     1      33.040  -8.202 -22.271  0.00  0.00    +0.111 C 
BRANCH  16  17
ATOM     17  C   UNL     1      32.713  -6.886 -22.951  0.00  0.00    +0.021 C 
ATOM     18  C   UNL     1      31.693  -7.027 -24.077  0.00  0.00    +0.002 C 
ATOM     19  C   UNL     1      32.037  -5.880 -22.025  0.00  0.00    +0.002 C 
ATOM     20  C   UNL     1      31.181  -5.607 -24.294  0.00  0.00    +0.000 C 
ATOM     21  C   UNL     1      31.408  -4.867 -22.975  0.00  0.00    +0.000 C 
ENDBRANCH  16  17
BRANCH  16  22
ATOM     22  C   UNL     1      31.800  -8.773 -21.543  0.00  0.00    +0.127 C 
BRANCH  22  24
ATOM     23  N   UNL     1      32.342  -9.559 -19.090  0.00  0.00    -0.196 NA
ATOM     24  C   UNL     1      32.103  -9.211 -20.171  0.00  0.00    +0.075 C 
ENDBRANCH  22  24
ENDBRANCH  16  22
ENDBRANCH   1  16
TORSDOF 5
ENDMDL
MODEL 2
REMARK VINA RESULT:      -9.3      1.686      2.292
REMARK  Name = 25126798
REMARK  5 active torsions:
REMARK  status: ('A' for Active; 'I' for Inactive)
REMARK    1  A    between atoms: N_1  and  C_16
REMARK    2  A    between atoms: C_4  and  C_9
REMARK    3  A    between atoms: C_16  and  C_17
REMARK    4  A    between atoms: C_16  and  C_22
REMARK    5  A    between atoms: C_22  and  C_24
REMARK                            x       y       z     vdW  Elec       q    Type
REMARK                         _______ _______ _______ _____ _____    ______ ____
ROOT
ATOM      1  N   UNL     1      32.795 -10.636 -22.667  0.00  0.00    -0.211 N 
ATOM      2  N   UNL     1      31.890 -11.312 -21.938  0.00  0.00    -0.176 NA
ATOM      3  C   UNL     1      33.401 -11.390 -23.630  0.00  0.00    +0.087 C 
ATOM      4  C   UNL     1      32.854 -12.645 -23.523  0.00  0.00    +0.051 C 
ATOM      5  C   UNL     1      31.931 -12.539 -22.465  0.00  0.00    +0.120 C 
ENDROOT
BRANCH   4   9
ATOM      6  N   UNL     1      32.816 -13.755 -25.647  0.00  0.00    -0.248 NA
ATOM      7  N   UNL     1      34.986 -16.790 -24.097  0.00  0.00    -0.300 N 
ATOM      8  N   UNL     1      33.888 -15.903 -26.052  0.00  0.00    -0.233 NA
ATOM      9  C   UNL     1      33.214 -13.752 -24.354  0.00  0.00    +0.069 C 
ATOM     10  C   UNL     1      33.961 -14.821 -23.862  0.00  0.00    +0.117 C 
ATOM     11  C   UNL     1      34.253 -15.842 -24.760  0.00  0.00    +0.115 C 
ATOM     12  C   UNL     1      34.546 -15.182 -22.621  0.00  0.00    +0.003 C 
ATOM     13  C   UNL     1      35.171 -16.399 -22.796  0.00  0.00    +0.059 C 
ATOM     14  C   UNL     1      33.173 -14.816 -26.406  0.00  0.00    +0.251 C 
ATOM     15  H   UNL     1      35.327 -17.624 -24.494  0.00  0.00    +0.153 HD
ENDBRANCH   4   9
BRANCH   1  16
ATOM     16  C   UNL     1      33.055  -9.160 -22.376  0.00  0.00    +0.111 C 
BRANCH  16  17
ATOM     17  C   UNL     1      33.302  -8.385 -23.657  0.00  0.00    +0.021 C 
ATOM     18  C   UNL     1      32.392  -7.169 -23.809  0.00  0.00    +0.002 C 
ATOM     19  C   UNL     1      34.692  -7.760 -23.724  0.00  0.00    +0.002 C 
ATOM     20  C   UNL     1      33.089  -6.314 -24.863  0.00  0.00    +0.000 C 
ATOM     21  C   UNL     1      34.569  -6.699 -24.812  0.00  0.00    +0.000 C 
ENDBRANCH  16  17
BRANCH  16  22
ATOM     22  C   UNL     1      31.911  -8.522 -21.553  0.00  0.00    +0.127 C 
BRANCH  22  24
ATOM     23  N   UNL     1      32.798  -7.142 -19.493  0.00  0.00    -0.196 NA
ATOM     24  C   UNL     1      32.407  -7.750 -20.402  0.00  0.00    +0.075 C 
ENDBRANCH  22  24
ENDBRANCH  16  22
ENDBRANCH   1  16
TORSDOF 5
ENDMDL
MODEL 3
REMARK VINA RESULT:      -9.2      1.968      3.762
REMARK  Name = 25126798
REMARK  5 active torsions:
REMARK  status: ('A' for Active; 'I' for Inactive)
REMARK    1  A    between atoms: N_1  and  C_16
REMARK    2  A    between atoms: C_4  and  C_9
REMARK    3  A    between atoms: C_16  and  C_17
REMARK    4  A    between atoms: C_16  and  C_22
REMARK    5  A    between atoms: C_22  and  C_24
REMARK                            x       y       z     vdW  Elec       q    Type
REMARK                         _______ _______ _______ _____ _____    ______ ____
ROOT
ATOM      1  N   UNL     1      33.161 -11.480 -23.608  0.00  0.00    -0.211 N 
ATOM      2  N   UNL     1      32.281 -11.816 -22.650  0.00  0.00    -0.176 NA
ATOM      3  C   UNL     1      33.829 -12.545 -24.141  0.00  0.00    +0.087 C 
ATOM      4  C   UNL     1      33.352 -13.653 -23.485  0.00  0.00    +0.051 C 
ATOM      5  C   UNL     1      32.403 -13.144 -22.578  0.00  0.00    +0.120 C 
ENDROOT
BRANCH   4   9
ATOM      6  N   UNL     1      33.719 -15.471 -25.003  0.00  0.00    -0.248 NA
ATOM      7  N   UNL     1      35.143 -17.718 -21.963  0.00  0.00    -0.300 N 
ATOM      8  N   UNL     1      34.642 -17.618 -24.319  0.00  0.00    -0.233 NA
ATOM      9  C   UNL     1      33.792 -14.989 -23.741  0.00  0.00    +0.069 C 
ATOM     10  C   UNL     1      34.290 -15.801 -22.723  0.00  0.00    +0.117 C 
ATOM     11  C   UNL     1      34.689 -17.082 -23.087  0.00  0.00    +0.115 C 
ATOM     12  C   UNL     1      34.521 -15.677 -21.328  0.00  0.00    +0.003 C 
ATOM     13  C   UNL     1      35.047 -16.873 -20.888  0.00  0.00    +0.059 C 
ATOM     14  C   UNL     1      34.143 -16.738 -25.211  0.00  0.00    +0.251 C 
ATOM     15  H   UNL     1      35.487 -18.641 -21.932  0.00  0.00    +0.153 HD
ENDBRANCH   4   9
BRANCH   1  16
ATOM     16  C   UNL     1      33.330 -10.016 -24.005  0.00  0.00    +0.111 C 
BRANCH  16  17
ATOM     17  C   UNL     1      32.660  -9.095 -23.001  0.00  0.00    +0.021 C 
ATOM     18  C   UNL     1      33.557  -7.950 -22.541  0.00  0.00    +0.002 C 
ATOM     19  C   UNL     1      31.456  -8.354 -23.574  0.00  0.00    +0.002 C 
ATOM     20  C   UNL     1      32.588  -6.938 -21.941  0.00  0.00    +0.000 C 
ATOM     21  C   UNL     1      31.233  -7.202 -22.601  0.00  0.00    +0.000 C 
ENDBRANCH  16  17
BRANCH  16  22
ATOM     22  C   UNL     1      34.818  -9.635 -24.198  0.00  0.00    +0.127 C 
BRANCH  22  24
ATOM     23  N   UNL     1      35.763 -10.407 -26.531  0.00  0.00    -0.196 NA
ATOM     24  C   UNL     1      35.345 -10.068 -25.502  0.00  0.00    +0.075 C 
ENDBRANCH  22  24
ENDBRANCH  16  22
ENDBRANCH   1  16
TORSDOF 5
ENDMDL
MODEL 4
REMARK VINA RESULT:      -9.2      2.344      4.947
REMARK  Name = 25126798
REMARK  5 active torsions:
REMARK  status: ('A' for Active; 'I' for Inactive)
REMARK    1  A    between atoms: N_1  and  C_16
REMARK    2  A    between atoms: C_4  and  C_9
REMARK    3  A    between atoms: C_16  and  C_17
REMARK    4  A    between atoms: C_16  and  C_22
REMARK    5  A    between atoms: C_22  and  C_24
REMARK                            x       y       z     vdW  Elec       q    Type
REMARK                         _______ _______ _______ _____ _____    ______ ____
ROOT
ATOM      1  N   UNL     1      33.247 -12.470 -23.590  0.00  0.00    -0.211 N 
ATOM      2  N   UNL     1      32.224 -12.607 -22.729  0.00  0.00    -0.176 NA
ATOM      3  C   UNL     1      34.105 -13.530 -23.599  0.00  0.00    +0.087 C 
ATOM      4  C   UNL     1      33.609 -14.422 -22.679  0.00  0.00    +0.051 C 
ATOM      5  C   UNL     1      32.451 -13.800 -22.175  0.00  0.00    +0.120 C 
ENDROOT
BRANCH   4   9
ATOM      6  N   UNL     1      34.585 -15.935 -21.097  0.00  0.00    -0.248 NA
ATOM      7  N   UNL     1      35.152 -18.643 -24.042  0.00  0.00    -0.300 N 
ATOM      8  N   UNL     1      35.415 -18.144 -21.697  0.00  0.00    -0.233 NA
ATOM      9  C   UNL     1      34.215 -15.681 -22.373  0.00  0.00    +0.069 C 
ATOM     10  C   UNL     1      34.430 -16.646 -23.357  0.00  0.00    +0.117 C 
ATOM     11  C   UNL     1      35.025 -17.832 -22.945  0.00  0.00    +0.115 C 
ATOM     12  C   UNL     1      34.195 -16.763 -24.751  0.00  0.00    +0.003 C 
ATOM     13  C   UNL     1      34.648 -18.003 -25.145  0.00  0.00    +0.059 C 
ATOM     14  C   UNL     1      35.155 -17.135 -20.842  0.00  0.00    +0.251 C 
ATOM     15  H   UNL     1      35.543 -19.547 -24.037  0.00  0.00    +0.153 HD
ENDBRANCH   4   9
BRANCH   1  16
ATOM     16  C   UNL     1      33.356 -11.210 -24.445  0.00  0.00    +0.111 C 
BRANCH  16  17
ATOM     17  C   UNL     1      33.813 -10.023 -23.616  0.00  0.00    +0.021 C 
ATOM     18  C   UNL     1      34.854  -9.160 -24.323  0.00  0.00    +0.002 C 
ATOM     19  C   UNL     1      32.699  -9.021 -23.333  0.00  0.00    +0.002 C 
ATOM     20  C   UNL     1      34.824  -7.841 -23.559  0.00  0.00    +0.000 C 
ATOM     21  C   UNL     1      33.438  -7.754 -22.916  0.00  0.00    +0.000 C 
ENDBRANCH  16  17
BRANCH  16  22
ATOM     22  C   UNL     1      34.278 -11.418 -25.670  0.00  0.00    +0.127 C 
BRANCH  22  24
ATOM     23  N   UNL     1      33.238 -13.058 -27.448  0.00  0.00    -0.196 NA
ATOM     24  C   UNL     1      33.697 -12.336 -26.663  0.00  0.00    +0.075 C 
ENDBRANCH  22  24
ENDBRANCH  16  22
ENDBRANCH   1  16
TORSDOF 5
ENDMDL
MODEL 5
REMARK VINA RESULT:      -9.1      3.248      8.869
REMARK  Name = 25126798
REMARK  5 active torsions:
REMARK  status: ('A' for Active; 'I' for Inactive)
REMARK    1  A    between atoms: N_1  and  C_16
REMARK    2  A    between atoms: C_4  and  C_9
REMARK    3  A    between atoms: C_16  and  C_17
REMARK    4  A    between atoms: C_16  and  C_22
REMARK    5  A    between atoms: C_22  and  C_24
REMARK                            x       y       z     vdW  Elec       q    Type
REMARK                         _______ _______ _______ _____ _____    ______ ____
ROOT
ATOM      1  N   UNL     1      34.388 -16.355 -22.296  0.00  0.00    -0.211 N 
ATOM      2  N   UNL     1      33.353 -16.418 -21.441  0.00  0.00    -0.176 NA
ATOM      3  C   UNL     1      34.516 -15.146 -22.917  0.00  0.00    +0.087 C 
ATOM      4  C   UNL     1      33.494 -14.367 -22.434  0.00  0.00    +0.051 C 
ATOM      5  C   UNL     1      32.810 -15.201 -21.531  0.00  0.00    +0.120 C 
ENDROOT
BRANCH   4   9
ATOM      6  N   UNL     1      33.888 -12.536 -23.931  0.00  0.00    -0.248 NA
ATOM      7  N   UNL     1      31.390 -10.224 -21.756  0.00  0.00    -0.300 N 
ATOM      8  N   UNL     1      32.849 -10.350 -23.671  0.00  0.00    -0.233 NA
ATOM      9  C   UNL     1      33.261 -13.012 -22.831  0.00  0.00    +0.069 C 
ATOM     10  C   UNL     1      32.407 -12.177 -22.110  0.00  0.00    +0.117 C 
ATOM     11  C   UNL     1      32.256 -10.881 -22.588  0.00  0.00    +0.115 C 
ATOM     12  C   UNL     1      31.596 -12.289 -20.952  0.00  0.00    +0.003 C 
ATOM     13  C   UNL     1      30.981 -11.071 -20.758  0.00  0.00    +0.059 C 
ATOM     14  C   UNL     1      33.646 -11.252 -24.278  0.00  0.00    +0.251 C 
ATOM     15  H   UNL     1      31.104  -9.287 -21.859  0.00  0.00    +0.153 HD
ENDBRANCH   4   9
BRANCH   1  16
ATOM     16  C   UNL     1      35.289 -17.572 -22.489  0.00  0.00    +0.111 C 
BRANCH  16  17
ATOM     17  C   UNL     1      35.309 -18.442 -21.245  0.00  0.00    +0.021 C 
ATOM     18  C   UNL     1      34.347 -19.624 -21.324  0.00  0.00    +0.002 C 
ATOM     19  C   UNL     1      36.650 -19.130 -21.012  0.00  0.00    +0.002 C 
ATOM     20  C   UNL     1      34.842 -20.578 -20.242  0.00  0.00    +0.000 C 
ATOM     21  C   UNL     1      36.323 -20.256 -20.037  0.00  0.00    +0.000 C 
ENDBRANCH  16  17
BRANCH  16  22
ATOM     22  C   UNL     1      34.892 -18.395 -23.736  0.00  0.00    +0.127 C 
BRANCH  22  24
ATOM     23  N   UNL     1      34.578 -16.897 -25.878  0.00  0.00    -0.196 NA
ATOM     24  C   UNL     1      34.716 -17.557 -24.933  0.00  0.00    +0.075 C 
ENDBRANCH  22  24
ENDBRANCH  16  22
ENDBRANCH   1  16
TORSDOF 5
ENDMDL
MODEL 6
REMARK VINA RESULT:      -8.9      3.251      8.948
REMARK  Name = 25126798
REMARK  5 active torsions:
REMARK  status: ('A' for Active; 'I' for Inactive)
REMARK    1  A    between atoms: N_1  and  C_16
REMARK    2  A    between atoms: C_4  and  C_9
REMARK    3  A    between atoms: C_16  and  C_17
REMARK    4  A    between atoms: C_16  and  C_22
REMARK    5  A    between atoms: C_22  and  C_24
REMARK                            x       y       z     vdW  Elec       q    Type
REMARK                         _______ _______ _______ _____ _____    ______ ____
ROOT
ATOM      1  N   UNL     1      34.063 -16.386 -21.929  0.00  0.00    -0.211 N 
ATOM      2  N   UNL     1      33.054 -16.656 -21.083  0.00  0.00    -0.176 NA
ATOM      3  C   UNL     1      34.072 -15.098 -22.382  0.00  0.00    +0.087 C 
ATOM      4  C   UNL     1      32.994 -14.486 -21.792  0.00  0.00    +0.051 C 
ATOM      5  C   UNL     1      32.404 -15.492 -21.004  0.00  0.00    +0.120 C 
ENDROOT
BRANCH   4   9
ATOM      6  N   UNL     1      31.833 -12.508 -21.097  0.00  0.00    -0.248 NA
ATOM      7  N   UNL     1      33.222 -10.554 -24.348  0.00  0.00    -0.300 N 
ATOM      8  N   UNL     1      31.884 -10.419 -22.346  0.00  0.00    -0.233 NA
ATOM      9  C   UNL     1      32.634 -13.117 -22.000  0.00  0.00    +0.069 C 
ATOM     10  C   UNL     1      33.090 -12.403 -23.107  0.00  0.00    +0.117 C 
ATOM     11  C   UNL     1      32.677 -11.080 -23.207  0.00  0.00    +0.115 C 
ATOM     12  C   UNL     1      33.912 -12.667 -24.234  0.00  0.00    +0.003 C 
ATOM     13  C   UNL     1      33.975 -11.509 -24.980  0.00  0.00    +0.059 C 
ATOM     14  C   UNL     1      31.512 -11.214 -21.323  0.00  0.00    +0.251 C 
ATOM     15  H   UNL     1      33.092  -9.630 -24.666  0.00  0.00    +0.153 HD
ENDBRANCH   4   9
BRANCH   1  16
ATOM     16  C   UNL     1      35.065 -17.479 -22.290  0.00  0.00    +0.111 C 
BRANCH  16  17
ATOM     17  C   UNL     1      35.285 -18.428 -21.126  0.00  0.00    +0.021 C 
ATOM     18  C   UNL     1      34.415 -19.680 -21.198  0.00  0.00    +0.002 C 
ATOM     19  C   UNL     1      36.692 -19.013 -21.083  0.00  0.00    +0.002 C 
ATOM     20  C   UNL     1      35.095 -20.660 -20.248  0.00  0.00    +0.000 C 
ATOM     21  C   UNL     1      36.561 -20.227 -20.169  0.00  0.00    +0.000 C 
ENDBRANCH  16  17
BRANCH  16  22
ATOM     22  C   UNL     1      34.646 -18.251 -23.564  0.00  0.00    +0.127 C 
BRANCH  22  24
ATOM     23  N   UNL     1      34.782 -16.767 -25.734  0.00  0.00    -0.196 NA
ATOM     24  C   UNL     1      34.724 -17.422 -24.777  0.00  0.00    +0.075 C 
ENDBRANCH  22  24
ENDBRANCH  16  22
ENDBRANCH   1  16
TORSDOF 5
ENDMDL
MODEL 7
REMARK VINA RESULT:      -8.9      4.237      7.458
REMARK  Name = 25126798
REMARK  5 active torsions:
REMARK  status: ('A' for Active; 'I' for Inactive)
REMARK    1  A    between atoms: N_1  and  C_16
REMARK    2  A    between atoms: C_4  and  C_9
REMARK    3  A    between atoms: C_16  and  C_17
REMARK    4  A    between atoms: C_16  and  C_22
REMARK    5  A    between atoms: C_22  and  C_24
REMARK                            x       y       z     vdW  Elec       q    Type
REMARK                         _______ _______ _______ _____ _____    ______ ____
ROOT
ATOM      1  N   UNL     1      34.514 -15.839 -22.766  0.00  0.00    -0.211 N 
ATOM      2  N   UNL     1      34.929 -16.454 -23.887  0.00  0.00    -0.176 NA
ATOM      3  C   UNL     1      34.653 -16.596 -21.639  0.00  0.00    +0.087 C 
ATOM      4  C   UNL     1      35.196 -17.788 -22.053  0.00  0.00    +0.051 C 
ATOM      5  C   UNL     1      35.344 -17.644 -23.445  0.00  0.00    +0.120 C 
ENDROOT
BRANCH   4   9
ATOM      6  N   UNL     1      36.790 -19.066 -20.800  0.00  0.00    -0.248 NA
ATOM      7  N   UNL     1      33.829 -21.496 -19.517  0.00  0.00    -0.300 N 
ATOM      8  N   UNL     1      36.189 -21.003 -19.453  0.00  0.00    -0.233 NA
ATOM      9  C   UNL     1      35.505 -18.876 -21.178  0.00  0.00    +0.069 C 
ATOM     10  C   UNL     1      34.516 -19.740 -20.710  0.00  0.00    +0.117 C 
ATOM     11  C   UNL     1      34.932 -20.763 -19.865  0.00  0.00    +0.115 C 
ATOM     12  C   UNL     1      33.113 -19.876 -20.865  0.00  0.00    +0.003 C 
ATOM     13  C   UNL     1      32.717 -20.965 -20.118  0.00  0.00    +0.059 C 
ATOM     14  C   UNL     1      37.049 -20.103 -19.972  0.00  0.00    +0.251 C 
ATOM     15  H   UNL     1      33.834 -22.283 -18.925  0.00  0.00    +0.153 HD
ENDBRANCH   4   9
BRANCH   1  16
ATOM     16  C   UNL     1      33.956 -14.420 -22.841  0.00  0.00    +0.111 C 
BRANCH  16  17
ATOM     17  C   UNL     1      34.105 -13.845 -24.237  0.00  0.00    +0.021 C 
ATOM     18  C   UNL     1      32.995 -14.281 -25.189  0.00  0.00    +0.002 C 
ATOM     19  C   UNL     1      33.989 -12.325 -24.278  0.00  0.00    +0.002 C 
ATOM     20  C   UNL     1      33.067 -13.271 -26.330  0.00  0.00    +0.000 C 
ATOM     21  C   UNL     1      33.713 -12.014 -25.745  0.00  0.00    +0.000 C 
ENDBRANCH  16  17
BRANCH  16  22
ATOM     22  C   UNL     1      32.485 -14.350 -22.366  0.00  0.00    +0.127 C 
BRANCH  22  24
ATOM     23  N   UNL     1      32.125 -12.568 -20.462  0.00  0.00    -0.196 NA
ATOM     24  C   UNL     1      32.283 -13.354 -21.302  0.00  0.00    +0.075 C 
ENDBRANCH  22  24
ENDBRANCH  16  22
ENDBRANCH   1  16
TORSDOF 5
ENDMDL
MODEL 8
REMARK VINA RESULT:      -8.8      7.015     11.098
REMARK  Name = 25126798
REMARK  5 active torsions:
REMARK  status: ('A' for Active; 'I' for Inactive)
REMARK    1  A    between atoms: N_1  and  C_16
REMARK    2  A    between atoms: C_4  and  C_9
REMARK    3  A    between atoms: C_16  and  C_17
REMARK    4  A    between atoms: C_16  and  C_22
REMARK    5  A    between atoms: C_22  and  C_24
REMARK                            x       y       z     vdW  Elec       q    Type
REMARK                         _______ _______ _______ _____ _____    ______ ____
ROOT
ATOM      1  N   UNL     1      35.156 -19.292 -21.183  0.00  0.00    -0.211 N 
ATOM      2  N   UNL     1      36.475 -19.545 -21.129  0.00  0.00    -0.176 NA
ATOM      3  C   UNL     1      34.414 -20.056 -20.331  0.00  0.00    +0.087 C 
ATOM      4  C   UNL     1      35.309 -20.864 -19.675  0.00  0.00    +0.051 C 
ATOM      5  C   UNL     1      36.562 -20.507 -20.207  0.00  0.00    +0.120 C 
ENDROOT
BRANCH   4   9
ATOM      6  N   UNL     1      33.769 -22.486 -18.813  0.00  0.00    -0.248 NA
ATOM      7  N   UNL     1      36.251 -23.186 -15.703  0.00  0.00    -0.300 N 
ATOM      8  N   UNL     1      34.160 -23.744 -16.765  0.00  0.00    -0.233 NA
ATOM      9  C   UNL     1      34.944 -21.828 -18.683  0.00  0.00    +0.069 C 
ATOM     10  C   UNL     1      35.769 -22.103 -17.593  0.00  0.00    +0.117 C 
ATOM     11  C   UNL     1      35.314 -23.058 -16.692  0.00  0.00    +0.115 C 
ATOM     12  C   UNL     1      37.026 -21.650 -17.115  0.00  0.00    +0.003 C 
ATOM     13  C   UNL     1      37.297 -22.335 -15.950  0.00  0.00    +0.059 C 
ATOM     14  C   UNL     1      33.454 -23.391 -17.858  0.00  0.00    +0.251 C 
ATOM     15  H   UNL     1      36.184 -23.795 -14.932  0.00  0.00    +0.153 HD
ENDBRANCH   4   9
BRANCH   1  16
ATOM     16  C   UNL     1      34.626 -18.226 -22.138  0.00  0.00    +0.111 C 
BRANCH  16  17
ATOM     17  C   UNL     1      34.528 -16.875 -21.453  0.00  0.00    +0.021 C 
ATOM     18  C   UNL     1      34.809 -15.703 -22.389  0.00  0.00    +0.002 C 
ATOM     19  C   UNL     1      33.124 -16.557 -20.947  0.00  0.00    +0.002 C 
ATOM     20  C   UNL     1      34.224 -14.498 -21.660  0.00  0.00    +0.000 C 
ATOM     21  C   UNL     1      33.143 -15.049 -20.727  0.00  0.00    +0.000 C 
ENDBRANCH  16  17
BRANCH  16  22
ATOM     22  C   UNL     1      35.473 -18.132 -23.430  0.00  0.00    +0.127 C 
BRANCH  22  24
ATOM     23  N   UNL     1      33.993 -17.870 -25.591  0.00  0.00    -0.196 NA
ATOM     24  C   UNL     1      34.645 -17.987 -24.638  0.00  0.00    +0.075 C 
ENDBRANCH  22  24
ENDBRANCH  16  22
ENDBRANCH   1  16
TORSDOF 5
ENDMDL
MODEL 9
REMARK VINA RESULT:      -8.8      1.234      2.244
REMARK  Name = 25126798
REMARK  5 active torsions:
REMARK  status: ('A' for Active; 'I' for Inactive)
REMARK    1  A    between atoms: N_1  and  C_16
REMARK    2  A    between atoms: C_4  and  C_9
REMARK    3  A    between atoms: C_16  and  C_17
REMARK    4  A    between atoms: C_16  and  C_22
REMARK    5  A    between atoms: C_22  and  C_24
REMARK                            x       y       z     vdW  Elec       q    Type
REMARK                         _______ _______ _______ _____ _____    ______ ____
ROOT
ATOM      1  N   UNL     1      33.517  -8.850 -23.503  0.00  0.00    -0.211 N 
ATOM      2  N   UNL     1      34.691  -8.832 -24.158  0.00  0.00    -0.176 NA
ATOM      3  C   UNL     1      32.983 -10.098 -23.363  0.00  0.00    +0.087 C 
ATOM      4  C   UNL     1      33.869 -10.955 -23.969  0.00  0.00    +0.051 C 
ATOM      5  C   UNL     1      34.900 -10.121 -24.440  0.00  0.00    +0.120 C 
ENDROOT
BRANCH   4   9
ATOM      6  N   UNL     1      33.695 -13.097 -22.908  0.00  0.00    -0.248 NA
ATOM      7  N   UNL     1      33.182 -14.840 -26.516  0.00  0.00    -0.300 N 
ATOM      8  N   UNL     1      33.339 -15.171 -24.133  0.00  0.00    -0.233 NA
ATOM      9  C   UNL     1      33.689 -12.372 -24.049  0.00  0.00    +0.069 C 
ATOM     10  C   UNL     1      33.509 -13.016 -25.273  0.00  0.00    +0.117 C 
ATOM     11  C   UNL     1      33.343 -14.396 -25.231  0.00  0.00    +0.115 C 
ATOM     12  C   UNL     1      33.441 -12.632 -26.637  0.00  0.00    +0.003 C 
ATOM     13  C   UNL     1      33.239 -13.776 -27.379  0.00  0.00    +0.059 C 
ATOM     14  C   UNL     1      33.522 -14.434 -23.019  0.00  0.00    +0.251 C 
ATOM     15  H   UNL     1      33.046 -15.779 -26.780  0.00  0.00    +0.153 HD
ENDBRANCH   4   9
BRANCH   1  16
ATOM     16  C   UNL     1      32.912  -7.544 -22.993  0.00  0.00    +0.111 C 
BRANCH  16  17
ATOM     17  C   UNL     1      32.261  -6.765 -24.121  0.00  0.00    +0.021 C 
ATOM     18  C   UNL     1      31.238  -5.743 -23.634  0.00  0.00    +0.002 C 
ATOM     19  C   UNL     1      33.243  -5.896 -24.899  0.00  0.00    +0.002 C 
ATOM     20  C   UNL     1      31.064  -4.798 -24.818  0.00  0.00    +0.000 C 
ATOM     21  C   UNL     1      32.353  -4.901 -25.636  0.00  0.00    +0.000 C 
ENDBRANCH  16  17
BRANCH  16  22
ATOM     22  C   UNL     1      31.916  -7.781 -21.834  0.00  0.00    +0.127 C 
BRANCH  22  24
ATOM     23  N   UNL     1      32.890  -7.054 -19.499  0.00  0.00    -0.196 NA
ATOM     24  C   UNL     1      32.461  -7.374 -20.529  0.00  0.00    +0.075 C 
ENDBRANCH  22  24
ENDBRANCH  16  22
ENDBRANCH   1  16
TORSDOF 5
ENDMDL
