MODEL 1
REMARK VINA RESULT:      -9.9      0.000      0.000
REMARK  Name = 115358
REMARK  11 active torsions:
REMARK  status: ('A' for Active; 'I' for Inactive)
REMARK    1  A    between atoms: C_2  and  N_16
REMARK    2  A    between atoms: C_6  and  O_27
REMARK    3  A    between atoms: C_8  and  O_12
REMARK    4  A    between atoms: C_10  and  O_14
REMARK    5  A    between atoms: N_16  and  C_18
REMARK    6  A    between atoms: C_18  and  C_20
REMARK    7  A    between atoms: C_20  and  C_21
REMARK    8  A    between atoms: C_21  and  C_22
REMARK    9  A    between atoms: C_22  and  N_23
REMARK   10  A    between atoms: O_27  and  C_28
REMARK   11  A    between atoms: C_31  and  C_37
REMARK                            x       y       z     vdW  Elec       q    Type
REMARK                         _______ _______ _______ _____ _____    ______ ____
ROOT
ATOM      1  N   UNL     1      32.364 -13.460 -22.901  0.00  0.00    -0.370 NA
ATOM      2  C   UNL     1      33.198 -14.944 -24.554  0.00  0.00    +0.074 C 
ATOM      3  C   UNL     1      33.110 -14.532 -23.227  0.00  0.00    +0.136 C 
ATOM      4  C   UNL     1      33.821 -15.268 -22.257  0.00  0.00    +0.132 C 
ATOM      5  C   UNL     1      33.963 -16.050 -24.929  0.00  0.00    +0.056 C 
ATOM      6  C   UNL     1      34.592 -16.381 -22.633  0.00  0.00    +0.166 C 
ATOM      7  C   UNL     1      33.734 -14.854 -20.920  0.00  0.00    -0.025 C 
ATOM      8  C   UNL     1      34.661 -16.771 -23.968  0.00  0.00    +0.171 C 
ATOM      9  C   UNL     1      32.966 -13.750 -20.581  0.00  0.00    +0.064 C 
ATOM     10  C   UNL     1      32.306 -13.094 -21.600  0.00  0.00    +0.277 C 
ATOM     11  C   UNL     1      34.430 -15.537 -19.785  0.00  0.00    +0.027 C 
ENDROOT
BRANCH   8  12
ATOM     12  O   UNL     1      35.402 -17.848 -24.346  0.00  0.00    -0.469 OA
ATOM     13  C   UNL     1      34.690 -19.028 -24.717  0.00  0.00    +0.253 C 
ENDBRANCH   8  12
BRANCH  10  14
ATOM     14  O   UNL     1      31.538 -12.000 -21.299  0.00  0.00    -0.448 OA
ATOM     15  C   UNL     1      31.526 -11.580 -19.940  0.00  0.00    +0.255 C 
ENDBRANCH  10  14
BRANCH   2  16
ATOM     16  N   UNL     1      32.518 -14.255 -25.542  0.00  0.00    -0.332 N 
ATOM     17  H   UNL     1      31.613 -14.559 -25.783  0.00  0.00    +0.147 HD
BRANCH  16  18
ATOM     18  C   UNL     1      33.064 -13.109 -26.241  0.00  0.00    +0.069 C 
ATOM     19  C   UNL     1      33.606 -13.575 -27.589  0.00  0.00    +0.021 C 
BRANCH  18  20
ATOM     20  C   UNL     1      34.168 -12.452 -25.403  0.00  0.00    +0.017 C 
BRANCH  20  21
ATOM     21  C   UNL     1      34.033 -10.925 -25.345  0.00  0.00    -0.022 C 
BRANCH  21  22
ATOM     22  C   UNL     1      34.012 -10.429 -23.900  0.00  0.00    -0.086 C 
BRANCH  22  23
ATOM     23  N   UNL     1      32.642 -10.177 -23.470  0.00  0.00    +0.380 N 
ATOM     24  H   UNL     1      32.413  -9.195 -23.620  0.00  0.00    -0.089 HD
ATOM     25  H   UNL     1      32.550 -10.400 -22.479  0.00  0.00    -0.089 HD
ATOM     26  H   UNL     1      32.003 -10.761 -24.010  0.00  0.00    -0.089 HD
ENDBRANCH  22  23
ENDBRANCH  21  22
ENDBRANCH  20  21
ENDBRANCH  18  20
ENDBRANCH  16  18
ENDBRANCH   2  16
BRANCH   6  27
ATOM     27  O   UNL     1      35.296 -17.127 -21.732  0.00  0.00    -0.454 OA
BRANCH  27  28
ATOM     28  C   UNL     1      34.704 -18.282 -21.255  0.00  0.00    +0.145 C 
ATOM     29  C   UNL     1      35.494 -19.308 -20.736  0.00  0.00    +0.041 C 
ATOM     30  C   UNL     1      33.317 -18.421 -21.293  0.00  0.00    +0.037 C 
ATOM     31  C   UNL     1      34.896 -20.472 -20.256  0.00  0.00    +0.074 C 
ATOM     32  C   UNL     1      32.719 -19.585 -20.812  0.00  0.00    +0.003 C 
ATOM     33  C   UNL     1      33.509 -20.611 -20.293  0.00  0.00    +0.004 C 
BRANCH  31  37
ATOM     34  F   UNL     1      35.990 -21.448 -18.364  0.00  0.00    -0.166 F 
ATOM     35  F   UNL     1      35.187 -22.811 -19.848  0.00  0.00    -0.166 F 
ATOM     36  F   UNL     1      36.965 -21.642 -20.298  0.00  0.00    -0.166 F 
ATOM     37  C   UNL     1      35.740 -21.570 -19.701  0.00  0.00    +0.419 C 
ENDBRANCH  31  37
ENDBRANCH  27  28
ENDBRANCH   6  27
TORSDOF 11
ENDMDL
MODEL 2
REMARK VINA RESULT:      -9.7      6.205      9.663
REMARK  Name = 115358
REMARK  11 active torsions:
REMARK  status: ('A' for Active; 'I' for Inactive)
REMARK    1  A    between atoms: C_2  and  N_16
REMARK    2  A    between atoms: C_6  and  O_27
REMARK    3  A    between atoms: C_8  and  O_12
REMARK    4  A    between atoms: C_10  and  O_14
REMARK    5  A    between atoms: N_16  and  C_18
REMARK    6  A    between atoms: C_18  and  C_20
REMARK    7  A    between atoms: C_20  and  C_21
REMARK    8  A    between atoms: C_21  and  C_22
REMARK    9  A    between atoms: C_22  and  N_23
REMARK   10  A    between atoms: O_27  and  C_28
REMARK   11  A    between atoms: C_31  and  C_37
REMARK                            x       y       z     vdW  Elec       q    Type
REMARK                         _______ _______ _______ _____ _____    ______ ____
ROOT
ATOM      1  N   UNL     1      31.490 -22.701 -17.533  0.00  0.00    -0.370 NA
ATOM      2  C   UNL     1      33.710 -22.294 -18.267  0.00  0.00    +0.074 C 
ATOM      3  C   UNL     1      32.815 -22.722 -17.291  0.00  0.00    +0.136 C 
ATOM      4  C   UNL     1      33.340 -23.169 -16.061  0.00  0.00    +0.132 C 
ATOM      5  C   UNL     1      35.089 -22.301 -18.050  0.00  0.00    +0.056 C 
ATOM      6  C   UNL     1      34.727 -23.176 -15.842  0.00  0.00    +0.166 C 
ATOM      7  C   UNL     1      32.439 -23.600 -15.077  0.00  0.00    -0.025 C 
ATOM      8  C   UNL     1      35.600 -22.743 -16.836  0.00  0.00    +0.171 C 
ATOM      9  C   UNL     1      31.074 -23.579 -15.324  0.00  0.00    +0.064 C 
ATOM     10  C   UNL     1      30.655 -23.126 -16.558  0.00  0.00    +0.277 C 
ATOM     11  C   UNL     1      32.850 -24.101 -13.728  0.00  0.00    +0.027 C 
ENDROOT
BRANCH   8  12
ATOM     12  O   UNL     1      36.947 -22.746 -16.638  0.00  0.00    -0.469 OA
ATOM     13  C   UNL     1      37.591 -21.476 -16.542  0.00  0.00    +0.253 C 
ENDBRANCH   8  12
BRANCH  10  14
ATOM     14  O   UNL     1      29.313 -23.092 -16.834  0.00  0.00    -0.448 OA
ATOM     15  C   UNL     1      28.469 -22.519 -15.842  0.00  0.00    +0.255 C 
ENDBRANCH  10  14
BRANCH   2  16
ATOM     16  N   UNL     1      33.243 -21.847 -19.490  0.00  0.00    -0.332 N 
ATOM     17  H   UNL     1      32.714 -22.468 -20.042  0.00  0.00    +0.147 HD
BRANCH  16  18
ATOM     18  C   UNL     1      33.489 -20.515 -20.004  0.00  0.00    +0.069 C 
ATOM     19  C   UNL     1      32.399 -20.175 -21.017  0.00  0.00    +0.021 C 
BRANCH  18  20
ATOM     20  C   UNL     1      34.879 -20.443 -20.650  0.00  0.00    +0.017 C 
BRANCH  20  21
ATOM     21  C   UNL     1      34.900 -19.561 -21.905  0.00  0.00    -0.022 C 
BRANCH  21  22
ATOM     22  C   UNL     1      35.847 -18.375 -21.728  0.00  0.00    -0.086 C 
BRANCH  22  23
ATOM     23  N   UNL     1      35.308 -17.436 -20.753  0.00  0.00    +0.380 N 
ATOM     24  H   UNL     1      34.401 -17.769 -20.424  0.00  0.00    -0.089 HD
ATOM     25  H   UNL     1      35.194 -16.520 -21.189  0.00  0.00    -0.089 HD
ATOM     26  H   UNL     1      35.948 -17.359 -19.963  0.00  0.00    -0.089 HD
ENDBRANCH  22  23
ENDBRANCH  21  22
ENDBRANCH  20  21
ENDBRANCH  18  20
ENDBRANCH  16  18
ENDBRANCH   2  16
BRANCH   6  27
ATOM     27  O   UNL     1      35.285 -23.601 -14.670  0.00  0.00    -0.454 OA
BRANCH  27  28
ATOM     28  C   UNL     1      36.189 -24.646 -14.733  0.00  0.00    +0.145 C 
ATOM     29  C   UNL     1      37.505 -24.456 -14.311  0.00  0.00    +0.041 C 
ATOM     30  C   UNL     1      35.784 -25.889 -15.219  0.00  0.00    +0.037 C 
ATOM     31  C   UNL     1      38.416 -25.509 -14.376  0.00  0.00    +0.074 C 
ATOM     32  C   UNL     1      36.695 -26.943 -15.283  0.00  0.00    +0.003 C 
ATOM     33  C   UNL     1      38.012 -26.753 -14.861  0.00  0.00    +0.004 C 
BRANCH  31  37
ATOM     34  F   UNL     1      40.446 -26.460 -13.538  0.00  0.00    -0.166 F 
ATOM     35  F   UNL     1      40.633 -24.772 -14.887  0.00  0.00    -0.166 F 
ATOM     36  F   UNL     1      39.916 -24.464 -12.857  0.00  0.00    -0.166 F 
ATOM     37  C   UNL     1      39.823 -25.308 -13.926  0.00  0.00    +0.419 C 
ENDBRANCH  31  37
ENDBRANCH  27  28
ENDBRANCH   6  27
TORSDOF 11
ENDMDL
MODEL 3
REMARK VINA RESULT:      -9.3      7.323     11.359
REMARK  Name = 115358
REMARK  11 active torsions:
REMARK  status: ('A' for Active; 'I' for Inactive)
REMARK    1  A    between atoms: C_2  and  N_16
REMARK    2  A    between atoms: C_6  and  O_27
REMARK    3  A    between atoms: C_8  and  O_12
REMARK    4  A    between atoms: C_10  and  O_14
REMARK    5  A    between atoms: N_16  and  C_18
REMARK    6  A    between atoms: C_18  and  C_20
REMARK    7  A    between atoms: C_20  and  C_21
REMARK    8  A    between atoms: C_21  and  C_22
REMARK    9  A    between atoms: C_22  and  N_23
REMARK   10  A    between atoms: O_27  and  C_28
REMARK   11  A    between atoms: C_31  and  C_37
REMARK                            x       y       z     vdW  Elec       q    Type
REMARK                         _______ _______ _______ _____ _____    ______ ____
ROOT
ATOM      1  N   UNL     1      32.447 -22.713 -17.907  0.00  0.00    -0.370 NA
ATOM      2  C   UNL     1      31.960 -23.659 -15.786  0.00  0.00    +0.074 C 
ATOM      3  C   UNL     1      32.868 -23.127 -16.697  0.00  0.00    +0.136 C 
ATOM      4  C   UNL     1      34.222 -23.043 -16.311  0.00  0.00    +0.132 C 
ATOM      5  C   UNL     1      32.361 -24.100 -14.523  0.00  0.00    +0.056 C 
ATOM      6  C   UNL     1      34.626 -23.486 -15.041  0.00  0.00    +0.166 C 
ATOM      7  C   UNL     1      35.137 -22.508 -17.228  0.00  0.00    -0.025 C 
ATOM      8  C   UNL     1      33.696 -24.013 -14.149  0.00  0.00    +0.171 C 
ATOM      9  C   UNL     1      34.706 -22.080 -18.475  0.00  0.00    +0.064 C 
ATOM     10  C   UNL     1      33.362 -22.202 -18.762  0.00  0.00    +0.277 C 
ATOM     11  C   UNL     1      36.601 -22.355 -16.957  0.00  0.00    +0.027 C 
ENDROOT
BRANCH   8  12
ATOM     12  O   UNL     1      34.074 -24.446 -12.914  0.00  0.00    -0.469 OA
ATOM     13  C   UNL     1      34.868 -23.556 -12.130  0.00  0.00    +0.253 C 
ENDBRANCH   8  12
BRANCH  10  14
ATOM     14  O   UNL     1      32.903 -21.789 -19.985  0.00  0.00    -0.448 OA
ATOM     15  C   UNL     1      33.048 -20.407 -20.290  0.00  0.00    +0.255 C 
ENDBRANCH  10  14
BRANCH   2  16
ATOM     16  N   UNL     1      30.621 -23.762 -16.119  0.00  0.00    -0.332 N 
ATOM     17  H   UNL     1      30.388 -23.982 -17.050  0.00  0.00    +0.147 HD
BRANCH  16  18
ATOM     18  C   UNL     1      29.542 -23.564 -15.172  0.00  0.00    +0.069 C 
ATOM     19  C   UNL     1      28.691 -24.829 -15.133  0.00  0.00    +0.021 C 
BRANCH  18  20
ATOM     20  C   UNL     1      28.698 -22.347 -15.576  0.00  0.00    +0.017 C 
BRANCH  20  21
ATOM     21  C   UNL     1      27.824 -22.620 -16.806  0.00  0.00    -0.022 C 
BRANCH  21  22
ATOM     22  C   UNL     1      26.474 -21.913 -16.689  0.00  0.00    -0.086 C 
BRANCH  22  23
ATOM     23  N   UNL     1      26.124 -21.276 -17.953  0.00  0.00    +0.380 N 
ATOM     24  H   UNL     1      26.715 -20.458 -18.097  0.00  0.00    -0.089 HD
ATOM     25  H   UNL     1      25.145 -20.987 -17.928  0.00  0.00    -0.089 HD
ATOM     26  H   UNL     1      26.264 -21.936 -18.717  0.00  0.00    -0.089 HD
ENDBRANCH  22  23
ENDBRANCH  21  22
ENDBRANCH  20  21
ENDBRANCH  18  20
ENDBRANCH  16  18
ENDBRANCH   2  16
BRANCH   6  27
ATOM     27  O   UNL     1      35.924 -23.424 -14.618  0.00  0.00    -0.454 OA
BRANCH  27  28
ATOM     28  C   UNL     1      36.696 -24.564 -14.752  0.00  0.00    +0.145 C 
ATOM     29  C   UNL     1      38.073 -24.502 -14.540  0.00  0.00    +0.041 C 
ATOM     30  C   UNL     1      36.097 -25.774 -15.100  0.00  0.00    +0.037 C 
ATOM     31  C   UNL     1      38.851 -25.651 -14.676  0.00  0.00    +0.074 C 
ATOM     32  C   UNL     1      36.875 -26.924 -15.236  0.00  0.00    +0.003 C 
ATOM     33  C   UNL     1      38.252 -26.863 -15.023  0.00  0.00    +0.004 C 
BRANCH  31  37
ATOM     34  F   UNL     1      40.676 -24.903 -13.320  0.00  0.00    -0.166 F 
ATOM     35  F   UNL     1      40.910 -26.814 -14.320  0.00  0.00    -0.166 F 
ATOM     36  F   UNL     1      40.985 -24.970 -15.471  0.00  0.00    -0.166 F 
ATOM     37  C   UNL     1      40.323 -25.587 -14.449  0.00  0.00    +0.419 C 
ENDBRANCH  31  37
ENDBRANCH  27  28
ENDBRANCH   6  27
TORSDOF 11
ENDMDL
MODEL 4
REMARK VINA RESULT:      -8.8      5.105      9.041
REMARK  Name = 115358
REMARK  11 active torsions:
REMARK  status: ('A' for Active; 'I' for Inactive)
REMARK    1  A    between atoms: C_2  and  N_16
REMARK    2  A    between atoms: C_6  and  O_27
REMARK    3  A    between atoms: C_8  and  O_12
REMARK    4  A    between atoms: C_10  and  O_14
REMARK    5  A    between atoms: N_16  and  C_18
REMARK    6  A    between atoms: C_18  and  C_20
REMARK    7  A    between atoms: C_20  and  C_21
REMARK    8  A    between atoms: C_21  and  C_22
REMARK    9  A    between atoms: C_22  and  N_23
REMARK   10  A    between atoms: O_27  and  C_28
REMARK   11  A    between atoms: C_31  and  C_37
REMARK                            x       y       z     vdW  Elec       q    Type
REMARK                         _______ _______ _______ _____ _____    ______ ____
ROOT
ATOM      1  N   UNL     1      34.407 -16.826 -23.766  0.00  0.00    -0.370 NA
ATOM      2  C   UNL     1      34.116 -15.632 -21.736  0.00  0.00    +0.074 C 
ATOM      3  C   UNL     1      33.985 -15.723 -23.119  0.00  0.00    +0.136 C 
ATOM      4  C   UNL     1      33.403 -14.635 -23.802  0.00  0.00    +0.132 C 
ATOM      5  C   UNL     1      33.690 -14.504 -21.032  0.00  0.00    +0.056 C 
ATOM      6  C   UNL     1      32.975 -13.500 -23.095  0.00  0.00    +0.166 C 
ATOM      7  C   UNL     1      33.271 -14.726 -25.195  0.00  0.00    -0.025 C 
ATOM      8  C   UNL     1      33.118 -13.436 -21.712  0.00  0.00    +0.171 C 
ATOM      9  C   UNL     1      33.705 -15.861 -25.864  0.00  0.00    +0.064 C 
ATOM     10  C   UNL     1      34.261 -16.874 -25.110  0.00  0.00    +0.277 C 
ATOM     11  C   UNL     1      32.673 -13.654 -26.051  0.00  0.00    +0.027 C 
ENDROOT
BRANCH   8  12
ATOM     12  O   UNL     1      32.706 -12.342 -21.014  0.00  0.00    -0.469 OA
ATOM     13  C   UNL     1      31.337 -12.307 -20.611  0.00  0.00    +0.253 C 
ENDBRANCH   8  12
BRANCH  10  14
ATOM     14  O   UNL     1      34.700 -18.009 -25.740  0.00  0.00    -0.448 OA
ATOM     15  C   UNL     1      34.550 -19.233 -25.031  0.00  0.00    +0.255 C 
ENDBRANCH  10  14
BRANCH   2  16
ATOM     16  N   UNL     1      34.680 -16.674 -21.021  0.00  0.00    -0.332 N 
ATOM     17  H   UNL     1      35.171 -16.460 -20.195  0.00  0.00    +0.147 HD
BRANCH  16  18
ATOM     18  C   UNL     1      34.587 -18.063 -21.422  0.00  0.00    +0.069 C 
ATOM     19  C   UNL     1      33.325 -18.663 -20.807  0.00  0.00    +0.021 C 
BRANCH  18  20
ATOM     20  C   UNL     1      35.836 -18.831 -20.969  0.00  0.00    +0.017 C 
BRANCH  20  21
ATOM     21  C   UNL     1      35.519 -20.270 -20.541  0.00  0.00    -0.022 C 
BRANCH  21  22
ATOM     22  C   UNL     1      36.727 -20.924 -19.873  0.00  0.00    -0.086 C 
BRANCH  22  23
ATOM     23  N   UNL     1      36.411 -21.287 -18.497  0.00  0.00    +0.380 N 
ATOM     24  H   UNL     1      36.938 -20.691 -17.858  0.00  0.00    -0.089 HD
ATOM     25  H   UNL     1      36.663 -22.263 -18.337  0.00  0.00    -0.089 HD
ATOM     26  H   UNL     1      35.413 -21.162 -18.333  0.00  0.00    -0.089 HD
ENDBRANCH  22  23
ENDBRANCH  21  22
ENDBRANCH  20  21
ENDBRANCH  18  20
ENDBRANCH  16  18
ENDBRANCH   2  16
BRANCH   6  27
ATOM     27  O   UNL     1      32.404 -12.422 -23.710  0.00  0.00    -0.454 OA
BRANCH  27  28
ATOM     28  C   UNL     1      33.168 -11.276 -23.830  0.00  0.00    +0.145 C 
ATOM     29  C   UNL     1      32.752 -10.093 -23.219  0.00  0.00    +0.041 C 
ATOM     30  C   UNL     1      34.355 -11.302 -24.563  0.00  0.00    +0.037 C 
ATOM     31  C   UNL     1      33.522  -8.937 -23.342  0.00  0.00    +0.074 C 
ATOM     32  C   UNL     1      35.126 -10.146 -24.685  0.00  0.00    +0.003 C 
ATOM     33  C   UNL     1      34.709  -8.963 -24.074  0.00  0.00    +0.004 C 
BRANCH  31  37
ATOM     34  F   UNL     1      31.721  -7.558 -22.578  0.00  0.00    -0.166 F 
ATOM     35  F   UNL     1      33.553  -7.517 -21.418  0.00  0.00    -0.166 F 
ATOM     36  F   UNL     1      33.483  -6.560 -23.370  0.00  0.00    -0.166 F 
ATOM     37  C   UNL     1      33.078  -7.672 -22.689  0.00  0.00    +0.419 C 
ENDBRANCH  31  37
ENDBRANCH  27  28
ENDBRANCH   6  27
TORSDOF 11
ENDMDL
MODEL 5
REMARK VINA RESULT:      -8.8      3.514      5.704
REMARK  Name = 115358
REMARK  11 active torsions:
REMARK  status: ('A' for Active; 'I' for Inactive)
REMARK    1  A    between atoms: C_2  and  N_16
REMARK    2  A    between atoms: C_6  and  O_27
REMARK    3  A    between atoms: C_8  and  O_12
REMARK    4  A    between atoms: C_10  and  O_14
REMARK    5  A    between atoms: N_16  and  C_18
REMARK    6  A    between atoms: C_18  and  C_20
REMARK    7  A    between atoms: C_20  and  C_21
REMARK    8  A    between atoms: C_21  and  C_22
REMARK    9  A    between atoms: C_22  and  N_23
REMARK   10  A    between atoms: O_27  and  C_28
REMARK   11  A    between atoms: C_31  and  C_37
REMARK                            x       y       z     vdW  Elec       q    Type
REMARK                         _______ _______ _______ _____ _____    ______ ____
ROOT
ATOM      1  N   UNL     1      32.825  -8.561 -21.539  0.00  0.00    -0.370 NA
ATOM      2  C   UNL     1      33.746  -9.332 -23.585  0.00  0.00    +0.074 C 
ATOM      3  C   UNL     1      33.011  -9.558 -22.425  0.00  0.00    +0.136 C 
ATOM      4  C   UNL     1      32.480 -10.848 -22.218  0.00  0.00    +0.132 C 
ATOM      5  C   UNL     1      33.960 -10.343 -24.525  0.00  0.00    +0.056 C 
ATOM      6  C   UNL     1      32.694 -11.865 -23.163  0.00  0.00    +0.166 C 
ATOM      7  C   UNL     1      31.739 -11.076 -21.049  0.00  0.00    -0.025 C 
ATOM      8  C   UNL     1      33.433 -11.611 -24.315  0.00  0.00    +0.171 C 
ATOM      9  C   UNL     1      31.546 -10.051 -20.134  0.00  0.00    +0.064 C 
ATOM     10  C   UNL     1      32.104  -8.823 -20.424  0.00  0.00    +0.277 C 
ATOM     11  C   UNL     1      31.115 -12.390 -20.697  0.00  0.00    +0.027 C 
ENDROOT
BRANCH   8  12
ATOM     12  O   UNL     1      33.648 -12.587 -25.240  0.00  0.00    -0.469 OA
ATOM     13  C   UNL     1      33.770 -12.175 -26.601  0.00  0.00    +0.253 C 
ENDBRANCH   8  12
BRANCH  10  14
ATOM     14  O   UNL     1      31.933  -7.789 -19.542  0.00  0.00    -0.448 OA
ATOM     15  C   UNL     1      32.651  -6.591 -19.812  0.00  0.00    +0.255 C 
ENDBRANCH  10  14
BRANCH   2  16
ATOM     16  N   UNL     1      34.287  -8.084 -23.833  0.00  0.00    -0.332 N 
ATOM     17  H   UNL     1      35.185  -7.886 -23.480  0.00  0.00    +0.147 HD
BRANCH  16  18
ATOM     18  C   UNL     1      33.605  -7.050 -24.585  0.00  0.00    +0.069 C 
ATOM     19  C   UNL     1      34.639  -6.281 -25.402  0.00  0.00    +0.021 C 
BRANCH  18  20
ATOM     20  C   UNL     1      32.850  -6.112 -23.633  0.00  0.00    +0.017 C 
BRANCH  20  21
ATOM     21  C   UNL     1      31.332  -6.150 -23.851  0.00  0.00    -0.022 C 
BRANCH  21  22
ATOM     22  C   UNL     1      30.582  -5.879 -22.548  0.00  0.00    -0.086 C 
BRANCH  22  23
ATOM     23  N   UNL     1      30.517  -4.446 -22.289  0.00  0.00    +0.380 N 
ATOM     24  H   UNL     1      31.159  -4.206 -21.534  0.00  0.00    -0.089 HD
ATOM     25  H   UNL     1      29.566  -4.192 -22.019  0.00  0.00    -0.089 HD
ATOM     26  H   UNL     1      30.778  -3.936 -23.132  0.00  0.00    -0.089 HD
ENDBRANCH  22  23
ENDBRANCH  21  22
ENDBRANCH  20  21
ENDBRANCH  18  20
ENDBRANCH  16  18
ENDBRANCH   2  16
BRANCH   6  27
ATOM     27  O   UNL     1      32.199 -13.128 -23.009  0.00  0.00    -0.454 OA
BRANCH  27  28
ATOM     28  C   UNL     1      33.100 -14.138 -22.726  0.00  0.00    +0.145 C 
ATOM     29  C   UNL     1      33.455 -15.055 -23.716  0.00  0.00    +0.041 C 
ATOM     30  C   UNL     1      33.655 -14.240 -21.450  0.00  0.00    +0.037 C 
ATOM     31  C   UNL     1      34.363 -16.074 -23.429  0.00  0.00    +0.074 C 
ATOM     32  C   UNL     1      34.564 -15.258 -21.164  0.00  0.00    +0.003 C 
ATOM     33  C   UNL     1      34.918 -16.176 -22.154  0.00  0.00    +0.004 C 
BRANCH  31  37
ATOM     34  F   UNL     1      33.690 -17.790 -24.955  0.00  0.00    -0.166 F 
ATOM     35  F   UNL     1      35.294 -16.478 -25.594  0.00  0.00    -0.166 F 
ATOM     36  F   UNL     1      35.659 -17.967 -24.051  0.00  0.00    -0.166 F 
ATOM     37  C   UNL     1      34.741 -17.055 -24.486  0.00  0.00    +0.419 C 
ENDBRANCH  31  37
ENDBRANCH  27  28
ENDBRANCH   6  27
TORSDOF 11
ENDMDL
MODEL 6
REMARK VINA RESULT:      -8.3      1.622      3.966
REMARK  Name = 115358
REMARK  11 active torsions:
REMARK  status: ('A' for Active; 'I' for Inactive)
REMARK    1  A    between atoms: C_2  and  N_16
REMARK    2  A    between atoms: C_6  and  O_27
REMARK    3  A    between atoms: C_8  and  O_12
REMARK    4  A    between atoms: C_10  and  O_14
REMARK    5  A    between atoms: N_16  and  C_18
REMARK    6  A    between atoms: C_18  and  C_20
REMARK    7  A    between atoms: C_20  and  C_21
REMARK    8  A    between atoms: C_21  and  C_22
REMARK    9  A    between atoms: C_22  and  N_23
REMARK   10  A    between atoms: O_27  and  C_28
REMARK   11  A    between atoms: C_31  and  C_37
REMARK                            x       y       z     vdW  Elec       q    Type
REMARK                         _______ _______ _______ _____ _____    ______ ____
ROOT
ATOM      1  N   UNL     1      32.911 -13.976 -24.875  0.00  0.00    -0.370 NA
ATOM      2  C   UNL     1      33.488 -13.868 -22.576  0.00  0.00    +0.074 C 
ATOM      3  C   UNL     1      33.470 -14.546 -23.791  0.00  0.00    +0.136 C 
ATOM      4  C   UNL     1      34.049 -15.832 -23.841  0.00  0.00    +0.132 C 
ATOM      5  C   UNL     1      34.058 -14.429 -21.431  0.00  0.00    +0.056 C 
ATOM      6  C   UNL     1      34.622 -16.397 -22.690  0.00  0.00    +0.166 C 
ATOM      7  C   UNL     1      34.031 -16.516 -25.065  0.00  0.00    -0.025 C 
ATOM      8  C   UNL     1      34.627 -15.696 -21.488  0.00  0.00    +0.171 C 
ATOM      9  C   UNL     1      33.456 -15.930 -26.183  0.00  0.00    +0.064 C 
ATOM     10  C   UNL     1      32.915 -14.669 -26.037  0.00  0.00    +0.277 C 
ATOM     11  C   UNL     1      34.607 -17.882 -25.268  0.00  0.00    +0.027 C 
ENDROOT
BRANCH   8  12
ATOM     12  O   UNL     1      35.180 -16.231 -20.365  0.00  0.00    -0.469 OA
ATOM     13  C   UNL     1      34.817 -15.640 -19.118  0.00  0.00    +0.253 C 
ENDBRANCH   8  12
BRANCH  10  14
ATOM     14  O   UNL     1      32.339 -14.062 -27.121  0.00  0.00    -0.448 OA
ATOM     15  C   UNL     1      32.856 -12.789 -27.492  0.00  0.00    +0.255 C 
ENDBRANCH  10  14
BRANCH   2  16
ATOM     16  N   UNL     1      32.933 -12.604 -22.477  0.00  0.00    -0.332 N 
ATOM     17  H   UNL     1      33.419 -11.849 -22.881  0.00  0.00    +0.147 HD
BRANCH  16  18
ATOM     18  C   UNL     1      31.675 -12.331 -21.812  0.00  0.00    +0.069 C 
ATOM     19  C   UNL     1      31.077 -11.059 -22.406  0.00  0.00    +0.021 C 
BRANCH  18  20
ATOM     20  C   UNL     1      31.895 -12.180 -20.301  0.00  0.00    +0.017 C 
BRANCH  20  21
ATOM     21  C   UNL     1      31.095 -11.015 -19.703  0.00  0.00    -0.022 C 
BRANCH  21  22
ATOM     22  C   UNL     1      31.981 -10.134 -18.823  0.00  0.00    -0.086 C 
BRANCH  22  23
ATOM     23  N   UNL     1      32.538  -9.036 -19.602  0.00  0.00    +0.380 N 
ATOM     24  H   UNL     1      33.487  -9.272 -19.893  0.00  0.00    -0.089 HD
ATOM     25  H   UNL     1      32.560  -8.190 -19.031  0.00  0.00    -0.089 HD
ATOM     26  H   UNL     1      31.960  -8.875 -20.426  0.00  0.00    -0.089 HD
ENDBRANCH  22  23
ENDBRANCH  21  22
ENDBRANCH  20  21
ENDBRANCH  18  20
ENDBRANCH  16  18
ENDBRANCH   2  16
BRANCH   6  27
ATOM     27  O   UNL     1      35.196 -17.637 -22.687  0.00  0.00    -0.454 OA
BRANCH  27  28
ATOM     28  C   UNL     1      34.656 -18.590 -21.844  0.00  0.00    +0.145 C 
ATOM     29  C   UNL     1      35.490 -19.500 -21.194  0.00  0.00    +0.041 C 
ATOM     30  C   UNL     1      33.276 -18.642 -21.644  0.00  0.00    +0.037 C 
ATOM     31  C   UNL     1      34.944 -20.462 -20.345  0.00  0.00    +0.074 C 
ATOM     32  C   UNL     1      32.730 -19.604 -20.794  0.00  0.00    +0.003 C 
ATOM     33  C   UNL     1      33.564 -20.514 -20.144  0.00  0.00    +0.004 C 
BRANCH  31  37
ATOM     34  F   UNL     1      37.073 -21.546 -20.215  0.00  0.00    -0.166 F 
ATOM     35  F   UNL     1      36.067 -21.125 -18.341  0.00  0.00    -0.166 F 
ATOM     36  F   UNL     1      35.323 -22.701 -19.642  0.00  0.00    -0.166 F 
ATOM     37  C   UNL     1      35.835 -21.435 -19.650  0.00  0.00    +0.419 C 
ENDBRANCH  31  37
ENDBRANCH  27  28
ENDBRANCH   6  27
TORSDOF 11
ENDMDL
MODEL 7
REMARK VINA RESULT:      -8.3      6.572     10.512
REMARK  Name = 115358
REMARK  11 active torsions:
REMARK  status: ('A' for Active; 'I' for Inactive)
REMARK    1  A    between atoms: C_2  and  N_16
REMARK    2  A    between atoms: C_6  and  O_27
REMARK    3  A    between atoms: C_8  and  O_12
REMARK    4  A    between atoms: C_10  and  O_14
REMARK    5  A    between atoms: N_16  and  C_18
REMARK    6  A    between atoms: C_18  and  C_20
REMARK    7  A    between atoms: C_20  and  C_21
REMARK    8  A    between atoms: C_21  and  C_22
REMARK    9  A    between atoms: C_22  and  N_23
REMARK   10  A    between atoms: O_27  and  C_28
REMARK   11  A    between atoms: C_31  and  C_37
REMARK                            x       y       z     vdW  Elec       q    Type
REMARK                         _______ _______ _______ _____ _____    ______ ____
ROOT
ATOM      1  N   UNL     1      33.639 -11.581 -24.617  0.00  0.00    -0.370 NA
ATOM      2  C   UNL     1      32.254 -11.675 -22.693  0.00  0.00    +0.074 C 
ATOM      3  C   UNL     1      33.148 -10.990 -23.511  0.00  0.00    +0.136 C 
ATOM      4  C   UNL     1      33.513  -9.679 -23.142  0.00  0.00    +0.132 C 
ATOM      5  C   UNL     1      31.726 -11.094 -21.537  0.00  0.00    +0.056 C 
ATOM      6  C   UNL     1      32.983  -9.094 -21.980  0.00  0.00    +0.166 C 
ATOM      7  C   UNL     1      34.414  -8.989 -23.966  0.00  0.00    -0.025 C 
ATOM      8  C   UNL     1      32.090  -9.801 -21.180  0.00  0.00    +0.171 C 
ATOM      9  C   UNL     1      34.921  -9.595 -25.106  0.00  0.00    +0.064 C 
ATOM     10  C   UNL     1      34.505 -10.880 -25.385  0.00  0.00    +0.277 C 
ATOM     11  C   UNL     1      34.889  -7.595 -23.702  0.00  0.00    +0.027 C 
ENDROOT
BRANCH   8  12
ATOM     12  O   UNL     1      31.566  -9.247 -20.052  0.00  0.00    -0.469 OA
ATOM     13  C   UNL     1      31.200 -10.139 -19.000  0.00  0.00    +0.253 C 
ENDBRANCH   8  12
BRANCH  10  14
ATOM     14  O   UNL     1      34.987 -11.508 -26.503  0.00  0.00    -0.448 OA
ATOM     15  C   UNL     1      34.143 -12.483 -27.104  0.00  0.00    +0.255 C 
ENDBRANCH  10  14
BRANCH   2  16
ATOM     16  N   UNL     1      31.865 -12.963 -23.013  0.00  0.00    -0.332 N 
ATOM     17  H   UNL     1      31.152 -13.082 -23.681  0.00  0.00    +0.147 HD
BRANCH  16  18
ATOM     18  C   UNL     1      32.450 -14.148 -22.419  0.00  0.00    +0.069 C 
ATOM     19  C   UNL     1      32.684 -13.883 -20.935  0.00  0.00    +0.021 C 
BRANCH  18  20
ATOM     20  C   UNL     1      33.764 -14.503 -23.127  0.00  0.00    +0.017 C 
BRANCH  20  21
ATOM     21  C   UNL     1      33.537 -15.181 -24.484  0.00  0.00    -0.022 C 
BRANCH  21  22
ATOM     22  C   UNL     1      34.513 -16.339 -24.691  0.00  0.00    -0.086 C 
BRANCH  22  23
ATOM     23  N   UNL     1      35.430 -16.437 -23.561  0.00  0.00    +0.380 N 
ATOM     24  H   UNL     1      34.965 -16.106 -22.716  0.00  0.00    -0.089 HD
ATOM     25  H   UNL     1      36.255 -15.864 -23.742  0.00  0.00    -0.089 HD
ATOM     26  H   UNL     1      35.712 -17.409 -23.436  0.00  0.00    -0.089 HD
ENDBRANCH  22  23
ENDBRANCH  21  22
ENDBRANCH  20  21
ENDBRANCH  18  20
ENDBRANCH  16  18
ENDBRANCH   2  16
BRANCH   6  27
ATOM     27  O   UNL     1      33.303  -7.828 -21.581  0.00  0.00    -0.454 OA
BRANCH  27  28
ATOM     28  C   UNL     1      32.412  -6.816 -21.888  0.00  0.00    +0.145 C 
ATOM     29  C   UNL     1      32.423  -6.237 -23.158  0.00  0.00    +0.041 C 
ATOM     30  C   UNL     1      31.502  -6.373 -20.928  0.00  0.00    +0.037 C 
ATOM     31  C   UNL     1      31.525  -5.217 -23.466  0.00  0.00    +0.074 C 
ATOM     32  C   UNL     1      30.604  -5.352 -21.236  0.00  0.00    +0.003 C 
ATOM     33  C   UNL     1      30.614  -4.774 -22.506  0.00  0.00    +0.004 C 
BRANCH  31  37
ATOM     34  F   UNL     1      32.161  -5.359 -25.768  0.00  0.00    -0.166 F 
ATOM     35  F   UNL     1      30.288  -4.360 -25.325  0.00  0.00    -0.166 F 
ATOM     36  F   UNL     1      32.175  -3.392 -24.843  0.00  0.00    -0.166 F 
ATOM     37  C   UNL     1      31.536  -4.597 -24.822  0.00  0.00    +0.419 C 
ENDBRANCH  31  37
ENDBRANCH  27  28
ENDBRANCH   6  27
TORSDOF 11
ENDMDL
MODEL 8
REMARK VINA RESULT:      -8.2      6.476     10.065
REMARK  Name = 115358
REMARK  11 active torsions:
REMARK  status: ('A' for Active; 'I' for Inactive)
REMARK    1  A    between atoms: C_2  and  N_16
REMARK    2  A    between atoms: C_6  and  O_27
REMARK    3  A    between atoms: C_8  and  O_12
REMARK    4  A    between atoms: C_10  and  O_14
REMARK    5  A    between atoms: N_16  and  C_18
REMARK    6  A    between atoms: C_18  and  C_20
REMARK    7  A    between atoms: C_20  and  C_21
REMARK    8  A    between atoms: C_21  and  C_22
REMARK    9  A    between atoms: C_22  and  N_23
REMARK   10  A    between atoms: O_27  and  C_28
REMARK   11  A    between atoms: C_31  and  C_37
REMARK                            x       y       z     vdW  Elec       q    Type
REMARK                         _______ _______ _______ _____ _____    ______ ____
ROOT
ATOM      1  N   UNL     1      31.878 -11.351 -22.125  0.00  0.00    -0.370 NA
ATOM      2  C   UNL     1      33.227 -11.687 -24.048  0.00  0.00    +0.074 C 
ATOM      3  C   UNL     1      32.791 -10.884 -22.998  0.00  0.00    +0.136 C 
ATOM      4  C   UNL     1      33.331  -9.586 -22.887  0.00  0.00    +0.132 C 
ATOM      5  C   UNL     1      34.171 -11.236 -24.973  0.00  0.00    +0.056 C 
ATOM      6  C   UNL     1      34.281  -9.131 -23.817  0.00  0.00    +0.166 C 
ATOM      7  C   UNL     1      32.892  -8.777 -21.830  0.00  0.00    -0.025 C 
ATOM      8  C   UNL     1      34.700  -9.956 -24.857  0.00  0.00    +0.171 C 
ATOM      9  C   UNL     1      31.952  -9.256 -20.929  0.00  0.00    +0.064 C 
ATOM     10  C   UNL     1      31.481 -10.539 -21.119  0.00  0.00    +0.277 C 
ATOM     11  C   UNL     1      33.378  -7.383 -21.586  0.00  0.00    +0.027 C 
ENDROOT
BRANCH   8  12
ATOM     12  O   UNL     1      35.621  -9.528 -25.765  0.00  0.00    -0.469 OA
ATOM     13  C   UNL     1      35.947 -10.422 -26.828  0.00  0.00    +0.253 C 
ENDBRANCH   8  12
BRANCH  10  14
ATOM     14  O   UNL     1      30.552 -11.042 -20.247  0.00  0.00    -0.448 OA
ATOM     15  C   UNL     1      30.738 -10.741 -18.869  0.00  0.00    +0.255 C 
ENDBRANCH  10  14
BRANCH   2  16
ATOM     16  N   UNL     1      32.726 -12.968 -24.198  0.00  0.00    -0.332 N 
ATOM     17  H   UNL     1      31.755 -13.103 -24.106  0.00  0.00    +0.147 HD
BRANCH  16  18
ATOM     18  C   UNL     1      33.553 -14.124 -24.483  0.00  0.00    +0.069 C 
ATOM     19  C   UNL     1      33.014 -14.810 -25.735  0.00  0.00    +0.021 C 
BRANCH  18  20
ATOM     20  C   UNL     1      33.553 -15.085 -23.287  0.00  0.00    +0.017 C 
BRANCH  20  21
ATOM     21  C   UNL     1      34.463 -14.608 -22.149  0.00  0.00    -0.022 C 
BRANCH  21  22
ATOM     22  C   UNL     1      33.792 -14.802 -20.789  0.00  0.00    -0.086 C 
BRANCH  22  23
ATOM     23  N   UNL     1      32.623 -13.939 -20.673  0.00  0.00    +0.380 N 
ATOM     24  H   UNL     1      32.036 -14.048 -21.500  0.00  0.00    -0.089 HD
ATOM     25  H   UNL     1      32.924 -12.967 -20.596  0.00  0.00    -0.089 HD
ATOM     26  H   UNL     1      32.091 -14.198 -19.843  0.00  0.00    -0.089 HD
ENDBRANCH  22  23
ENDBRANCH  21  22
ENDBRANCH  20  21
ENDBRANCH  18  20
ENDBRANCH  16  18
ENDBRANCH   2  16
BRANCH   6  27
ATOM     27  O   UNL     1      34.835  -7.885 -23.752  0.00  0.00    -0.454 OA
BRANCH  27  28
ATOM     28  C   UNL     1      34.299  -6.903 -24.564  0.00  0.00    +0.145 C 
ATOM     29  C   UNL     1      33.038  -6.376 -24.281  0.00  0.00    +0.041 C 
ATOM     30  C   UNL     1      35.017  -6.439 -25.666  0.00  0.00    +0.037 C 
ATOM     31  C   UNL     1      32.497  -5.386 -25.101  0.00  0.00    +0.074 C 
ATOM     32  C   UNL     1      34.476  -5.449 -26.486  0.00  0.00    +0.003 C 
ATOM     33  C   UNL     1      33.215  -4.922 -26.203  0.00  0.00    +0.004 C 
BRANCH  31  37
ATOM     34  F   UNL     1      30.794  -3.786 -25.614  0.00  0.00    -0.166 F 
ATOM     35  F   UNL     1      30.138  -5.732 -24.919  0.00  0.00    -0.166 F 
ATOM     36  F   UNL     1      31.057  -4.336 -23.528  0.00  0.00    -0.166 F 
ATOM     37  C   UNL     1      31.149  -4.823 -24.800  0.00  0.00    +0.419 C 
ENDBRANCH  31  37
ENDBRANCH  27  28
ENDBRANCH   6  27
TORSDOF 11
ENDMDL
MODEL 9
REMARK VINA RESULT:      -8.2      6.541     10.765
REMARK  Name = 115358
REMARK  11 active torsions:
REMARK  status: ('A' for Active; 'I' for Inactive)
REMARK    1  A    between atoms: C_2  and  N_16
REMARK    2  A    between atoms: C_6  and  O_27
REMARK    3  A    between atoms: C_8  and  O_12
REMARK    4  A    between atoms: C_10  and  O_14
REMARK    5  A    between atoms: N_16  and  C_18
REMARK    6  A    between atoms: C_18  and  C_20
REMARK    7  A    between atoms: C_20  and  C_21
REMARK    8  A    between atoms: C_21  and  C_22
REMARK    9  A    between atoms: C_22  and  N_23
REMARK   10  A    between atoms: O_27  and  C_28
REMARK   11  A    between atoms: C_31  and  C_37
REMARK                            x       y       z     vdW  Elec       q    Type
REMARK                         _______ _______ _______ _____ _____    ______ ____
ROOT
ATOM      1  N   UNL     1      32.688 -12.278 -23.836  0.00  0.00    -0.370 NA
ATOM      2  C   UNL     1      32.022 -10.630 -22.263  0.00  0.00    +0.074 C 
ATOM      3  C   UNL     1      32.814 -11.035 -23.335  0.00  0.00    +0.136 C 
ATOM      4  C   UNL     1      33.737 -10.109 -23.863  0.00  0.00    +0.132 C 
ATOM      5  C   UNL     1      32.127  -9.349 -21.717  0.00  0.00    +0.056 C 
ATOM      6  C   UNL     1      33.843  -8.820 -23.315  0.00  0.00    +0.166 C 
ATOM      7  C   UNL     1      34.535 -10.515 -24.942  0.00  0.00    -0.025 C 
ATOM      8  C   UNL     1      33.038  -8.441 -22.244  0.00  0.00    +0.171 C 
ATOM      9  C   UNL     1      34.407 -11.796 -25.461  0.00  0.00    +0.064 C 
ATOM     10  C   UNL     1      33.476 -12.631 -24.877  0.00  0.00    +0.277 C 
ATOM     11  C   UNL     1      35.553  -9.642 -25.606  0.00  0.00    +0.027 C 
ENDROOT
BRANCH   8  12
ATOM     12  O   UNL     1      33.129  -7.195 -21.703  0.00  0.00    -0.469 OA
ATOM     13  C   UNL     1      32.257  -6.895 -20.614  0.00  0.00    +0.253 C 
ENDBRANCH   8  12
BRANCH  10  14
ATOM     14  O   UNL     1      33.325 -13.902 -25.365  0.00  0.00    -0.448 OA
ATOM     15  C   UNL     1      33.106 -14.028 -26.765  0.00  0.00    +0.255 C 
ENDBRANCH  10  14
BRANCH   2  16
ATOM     16  N   UNL     1      31.102 -11.503 -21.711  0.00  0.00    -0.332 N 
ATOM     17  H   UNL     1      30.249 -11.640 -22.182  0.00  0.00    +0.147 HD
BRANCH  16  18
ATOM     18  C   UNL     1      31.326 -12.227 -20.476  0.00  0.00    +0.069 C 
ATOM     19  C   UNL     1      31.436 -11.220 -19.335  0.00  0.00    +0.021 C 
BRANCH  18  20
ATOM     20  C   UNL     1      32.598 -13.078 -20.582  0.00  0.00    +0.017 C 
BRANCH  20  21
ATOM     21  C   UNL     1      32.318 -14.495 -21.100  0.00  0.00    -0.022 C 
BRANCH  21  22
ATOM     22  C   UNL     1      33.618 -15.255 -21.353  0.00  0.00    -0.086 C 
BRANCH  22  23
ATOM     23  N   UNL     1      34.416 -14.573 -22.365  0.00  0.00    +0.380 N 
ATOM     24  H   UNL     1      33.948 -13.710 -22.642  0.00  0.00    -0.089 HD
ATOM     25  H   UNL     1      34.523 -15.178 -23.179  0.00  0.00    -0.089 HD
ATOM     26  H   UNL     1      35.335 -14.353 -21.982  0.00  0.00    -0.089 HD
ENDBRANCH  22  23
ENDBRANCH  21  22
ENDBRANCH  20  21
ENDBRANCH  18  20
ENDBRANCH  16  18
ENDBRANCH   2  16
BRANCH   6  27
ATOM     27  O   UNL     1      34.719  -7.886 -23.792  0.00  0.00    -0.454 OA
BRANCH  27  28
ATOM     28  C   UNL     1      34.206  -6.871 -24.579  0.00  0.00    +0.145 C 
ATOM     29  C   UNL     1      32.959  -6.321 -24.281  0.00  0.00    +0.041 C 
ATOM     30  C   UNL     1      34.935  -6.398 -25.669  0.00  0.00    +0.037 C 
ATOM     31  C   UNL     1      32.442  -5.298 -25.075  0.00  0.00    +0.074 C 
ATOM     32  C   UNL     1      34.419  -5.374 -26.463  0.00  0.00    +0.003 C 
ATOM     33  C   UNL     1      33.171  -4.823 -26.166  0.00  0.00    +0.004 C 
BRANCH  31  37
ATOM     34  F   UNL     1      31.016  -4.209 -23.491  0.00  0.00    -0.166 F 
ATOM     35  F   UNL     1      30.761  -3.672 -25.577  0.00  0.00    -0.166 F 
ATOM     36  F   UNL     1      30.095  -5.617 -24.868  0.00  0.00    -0.166 F 
ATOM     37  C   UNL     1      31.108  -4.709 -24.759  0.00  0.00    +0.419 C 
ENDBRANCH  31  37
ENDBRANCH  27  28
ENDBRANCH   6  27
TORSDOF 11
ENDMDL
