MODEL 1
REMARK VINA RESULT:      -9.2      0.000      0.000
REMARK  Name = 44139752
REMARK  2 active torsions:
REMARK  status: ('A' for Active; 'I' for Inactive)
REMARK    1  A    between atoms: C_2  and  C_10
REMARK    2  A    between atoms: C_7  and  C_17
REMARK                            x       y       z     vdW  Elec       q    Type
REMARK                         _______ _______ _______ _____ _____    ______ ____
ROOT
ATOM      1  F   UNL     1      37.301 -20.086 -20.406  0.00  0.00    -0.204 F 
ATOM      2  C   UNL     1      35.150 -19.328 -21.066  0.00  0.00    +0.024 C 
ATOM      3  C   UNL     1      35.967 -20.204 -20.351  0.00  0.00    +0.138 C 
ATOM      4  C   UNL     1      33.762 -19.459 -21.001  0.00  0.00    +0.000 C 
ATOM      5  C   UNL     1      35.396 -21.209 -19.571  0.00  0.00    +0.040 C 
ATOM      6  C   UNL     1      33.193 -20.465 -20.221  0.00  0.00    +0.010 C 
ATOM      7  C   UNL     1      34.010 -21.341 -19.506  0.00  0.00    +0.071 C 
ENDROOT
BRANCH   2  10
ATOM      8  N   UNL     1      35.003 -17.001 -21.792  0.00  0.00    -0.270 N 
ATOM      9  N   UNL     1      34.030 -15.103 -21.311  0.00  0.00    -0.225 NA
ATOM     10  C   UNL     1      35.763 -18.239 -21.913  0.00  0.00    +0.103 C 
ATOM     11  C   UNL     1      35.743 -18.464 -23.452  0.00  0.00    +0.031 C 
ATOM     12  C   UNL     1      34.588 -17.591 -24.024  0.00  0.00    +0.045 C 
ATOM     13  C   UNL     1      34.372 -16.624 -22.937  0.00  0.00    +0.050 C 
ATOM     14  C   UNL     1      34.802 -16.069 -20.843  0.00  0.00    +0.168 C 
ATOM     15  C   UNL     1      33.758 -15.443 -22.627  0.00  0.00    +0.111 C 
ENDBRANCH   2  10
BRANCH   7  17
ATOM     16  N   UNL     1      32.953 -23.208 -18.057  0.00  0.00    -0.191 NA
ATOM     17  C   UNL     1      33.426 -22.372 -18.706  0.00  0.00    +0.100 C 
ENDBRANCH   7  17
TORSDOF 2
ENDMDL
MODEL 2
REMARK VINA RESULT:      -8.1      5.147      9.188
REMARK  Name = 44139752
REMARK  2 active torsions:
REMARK  status: ('A' for Active; 'I' for Inactive)
REMARK    1  A    between atoms: C_2  and  C_10
REMARK    2  A    between atoms: C_7  and  C_17
REMARK                            x       y       z     vdW  Elec       q    Type
REMARK                         _______ _______ _______ _____ _____    ______ ____
ROOT
ATOM      1  F   UNL     1      37.841 -21.904 -16.521  0.00  0.00    -0.204 F 
ATOM      2  C   UNL     1      36.055 -23.102 -15.514  0.00  0.00    +0.024 C 
ATOM      3  C   UNL     1      36.579 -22.356 -16.569  0.00  0.00    +0.138 C 
ATOM      4  C   UNL     1      34.741 -23.568 -15.575  0.00  0.00    +0.000 C 
ATOM      5  C   UNL     1      35.790 -22.076 -17.685  0.00  0.00    +0.040 C 
ATOM      6  C   UNL     1      33.952 -23.287 -16.690  0.00  0.00    +0.010 C 
ATOM      7  C   UNL     1      34.476 -22.540 -17.745  0.00  0.00    +0.071 C 
ENDROOT
BRANCH   2  10
ATOM      8  N   UNL     1      37.318 -24.805 -14.302  0.00  0.00    -0.270 N 
ATOM      9  N   UNL     1      38.176 -26.803 -14.529  0.00  0.00    -0.225 NA
ATOM     10  C   UNL     1      36.905 -23.407 -14.305  0.00  0.00    +0.103 C 
ATOM     11  C   UNL     1      36.207 -23.290 -12.919  0.00  0.00    +0.031 C 
ATOM     12  C   UNL     1      35.878 -24.738 -12.453  0.00  0.00    +0.045 C 
ATOM     13  C   UNL     1      36.783 -25.540 -13.290  0.00  0.00    +0.050 C 
ATOM     14  C   UNL     1      38.161 -25.574 -15.016  0.00  0.00    +0.168 C 
ATOM     15  C   UNL     1      37.314 -26.789 -13.443  0.00  0.00    +0.111 C 
ENDBRANCH   2  10
BRANCH   7  17
ATOM     16  N   UNL     1      33.013 -22.019 -19.816  0.00  0.00    -0.191 NA
ATOM     17  C   UNL     1      33.669 -22.252 -18.888  0.00  0.00    +0.100 C 
ENDBRANCH   7  17
TORSDOF 2
ENDMDL
MODEL 3
REMARK VINA RESULT:      -7.9      3.566      5.682
REMARK  Name = 44139752
REMARK  2 active torsions:
REMARK  status: ('A' for Active; 'I' for Inactive)
REMARK    1  A    between atoms: C_2  and  C_10
REMARK    2  A    between atoms: C_7  and  C_17
REMARK                            x       y       z     vdW  Elec       q    Type
REMARK                         _______ _______ _______ _____ _____    ______ ____
ROOT
ATOM      1  F   UNL     1      32.091 -14.697 -21.139  0.00  0.00    -0.204 F 
ATOM      2  C   UNL     1      33.436 -14.924 -23.082  0.00  0.00    +0.024 C 
ATOM      3  C   UNL     1      33.096 -15.305 -21.784  0.00  0.00    +0.138 C 
ATOM      4  C   UNL     1      34.484 -15.564 -23.745  0.00  0.00    +0.000 C 
ATOM      5  C   UNL     1      33.804 -16.326 -21.150  0.00  0.00    +0.040 C 
ATOM      6  C   UNL     1      35.191 -16.583 -23.110  0.00  0.00    +0.010 C 
ATOM      7  C   UNL     1      34.852 -16.965 -21.812  0.00  0.00    +0.071 C 
ENDROOT
BRANCH   2  10
ATOM      8  N   UNL     1      33.024 -13.753 -25.186  0.00  0.00    -0.270 N 
ATOM      9  N   UNL     1      33.336 -13.924 -27.343  0.00  0.00    -0.225 NA
ATOM     10  C   UNL     1      32.674 -13.819 -23.772  0.00  0.00    +0.103 C 
ATOM     11  C   UNL     1      32.987 -12.367 -23.310  0.00  0.00    +0.031 C 
ATOM     12  C   UNL     1      33.919 -11.739 -24.386  0.00  0.00    +0.045 C 
ATOM     13  C   UNL     1      33.687 -12.619 -25.541  0.00  0.00    +0.050 C 
ATOM     14  C   UNL     1      32.809 -14.507 -26.280  0.00  0.00    +0.168 C 
ATOM     15  C   UNL     1      33.888 -12.736 -26.887  0.00  0.00    +0.111 C 
ENDBRANCH   2  10
BRANCH   7  17
ATOM     16  N   UNL     1      36.165 -18.859 -20.632  0.00  0.00    -0.191 NA
ATOM     17  C   UNL     1      35.576 -18.011 -21.161  0.00  0.00    +0.100 C 
ENDBRANCH   7  17
TORSDOF 2
ENDMDL
MODEL 4
REMARK VINA RESULT:      -7.8      3.461      6.188
REMARK  Name = 44139752
REMARK  2 active torsions:
REMARK  status: ('A' for Active; 'I' for Inactive)
REMARK    1  A    between atoms: C_2  and  C_10
REMARK    2  A    between atoms: C_7  and  C_17
REMARK                            x       y       z     vdW  Elec       q    Type
REMARK                         _______ _______ _______ _____ _____    ______ ____
ROOT
ATOM      1  F   UNL     1      34.891 -14.297 -24.002  0.00  0.00    -0.204 F 
ATOM      2  C   UNL     1      34.291 -15.444 -22.011  0.00  0.00    +0.024 C 
ATOM      3  C   UNL     1      34.154 -14.364 -22.884  0.00  0.00    +0.138 C 
ATOM      4  C   UNL     1      33.518 -15.505 -20.851  0.00  0.00    +0.000 C 
ATOM      5  C   UNL     1      33.245 -13.346 -22.596  0.00  0.00    +0.040 C 
ATOM      6  C   UNL     1      32.610 -14.487 -20.563  0.00  0.00    +0.010 C 
ATOM      7  C   UNL     1      32.473 -13.407 -21.436  0.00  0.00    +0.071 C 
ENDROOT
BRANCH   2  10
ATOM      8  N   UNL     1      34.876 -17.276 -23.517  0.00  0.00    -0.270 N 
ATOM      9  N   UNL     1      34.415 -18.103 -25.488  0.00  0.00    -0.225 NA
ATOM     10  C   UNL     1      35.274 -16.548 -22.318  0.00  0.00    +0.103 C 
ATOM     11  C   UNL     1      35.371 -17.699 -21.276  0.00  0.00    +0.031 C 
ATOM     12  C   UNL     1      34.576 -18.904 -21.855  0.00  0.00    +0.045 C 
ATOM     13  C   UNL     1      34.510 -18.566 -23.285  0.00  0.00    +0.050 C 
ATOM     14  C   UNL     1      34.830 -17.028 -24.838  0.00  0.00    +0.168 C 
ATOM     15  C   UNL     1      34.213 -19.074 -24.519  0.00  0.00    +0.111 C 
ENDBRANCH   2  10
BRANCH   7  17
ATOM     16  N   UNL     1      30.787 -11.515 -20.903  0.00  0.00    -0.191 NA
ATOM     17  C   UNL     1      31.543 -12.363 -21.142  0.00  0.00    +0.100 C 
ENDBRANCH   7  17
TORSDOF 2
ENDMDL
MODEL 5
REMARK VINA RESULT:      -7.7      4.631      7.203
REMARK  Name = 44139752
REMARK  2 active torsions:
REMARK  status: ('A' for Active; 'I' for Inactive)
REMARK    1  A    between atoms: C_2  and  C_10
REMARK    2  A    between atoms: C_7  and  C_17
REMARK                            x       y       z     vdW  Elec       q    Type
REMARK                         _______ _______ _______ _____ _____    ______ ____
ROOT
ATOM      1  F   UNL     1      32.638 -13.494 -24.263  0.00  0.00    -0.204 F 
ATOM      2  C   UNL     1      32.280 -13.135 -21.943  0.00  0.00    +0.024 C 
ATOM      3  C   UNL     1      32.844 -13.863 -22.990  0.00  0.00    +0.138 C 
ATOM      4  C   UNL     1      32.503 -13.527 -20.622  0.00  0.00    +0.000 C 
ATOM      5  C   UNL     1      33.630 -14.983 -22.717  0.00  0.00    +0.040 C 
ATOM      6  C   UNL     1      33.287 -14.647 -20.350  0.00  0.00    +0.010 C 
ATOM      7  C   UNL     1      33.851 -15.376 -21.397  0.00  0.00    +0.071 C 
ENDROOT
BRANCH   2  10
ATOM      8  N   UNL     1      32.261 -10.778 -22.586  0.00  0.00    -0.270 N 
ATOM      9  N   UNL     1      33.531  -9.210 -23.426  0.00  0.00    -0.225 NA
ATOM     10  C   UNL     1      31.429 -11.923 -22.233  0.00  0.00    +0.103 C 
ATOM     11  C   UNL     1      30.607 -11.351 -21.042  0.00  0.00    +0.031 C 
ATOM     12  C   UNL     1      31.367 -10.095 -20.528  0.00  0.00    +0.045 C 
ATOM     13  C   UNL     1      32.225  -9.767 -21.677  0.00  0.00    +0.050 C 
ATOM     14  C   UNL     1      33.030 -10.417 -23.629  0.00  0.00    +0.168 C 
ATOM     15  C   UNL     1      33.028  -8.794 -22.202  0.00  0.00    +0.111 C 
ENDBRANCH   2  10
BRANCH   7  17
ATOM     16  N   UNL     1      35.309 -17.455 -20.892  0.00  0.00    -0.191 NA
ATOM     17  C   UNL     1      34.656 -16.523 -21.119  0.00  0.00    +0.100 C 
ENDBRANCH   7  17
TORSDOF 2
ENDMDL
MODEL 6
REMARK VINA RESULT:      -7.7      1.963      2.762
REMARK  Name = 44139752
REMARK  2 active torsions:
REMARK  status: ('A' for Active; 'I' for Inactive)
REMARK    1  A    between atoms: C_2  and  C_10
REMARK    2  A    between atoms: C_7  and  C_17
REMARK                            x       y       z     vdW  Elec       q    Type
REMARK                         _______ _______ _______ _____ _____    ______ ____
ROOT
ATOM      1  F   UNL     1      35.702 -19.088 -24.158  0.00  0.00    -0.204 F 
ATOM      2  C   UNL     1      34.651 -17.432 -22.819  0.00  0.00    +0.024 C 
ATOM      3  C   UNL     1      34.985 -18.763 -23.072  0.00  0.00    +0.138 C 
ATOM      4  C   UNL     1      33.907 -17.104 -21.686  0.00  0.00    +0.000 C 
ATOM      5  C   UNL     1      34.575 -19.764 -22.192  0.00  0.00    +0.040 C 
ATOM      6  C   UNL     1      33.496 -18.106 -20.807  0.00  0.00    +0.010 C 
ATOM      7  C   UNL     1      33.830 -19.436 -21.060  0.00  0.00    +0.071 C 
ENDROOT
BRANCH   2  10
ATOM      8  N   UNL     1      34.354 -15.112 -23.522  0.00  0.00    -0.270 N 
ATOM      9  N   UNL     1      33.465 -13.219 -22.888  0.00  0.00    -0.225 NA
ATOM     10  C   UNL     1      35.093 -16.345 -23.768  0.00  0.00    +0.103 C 
ATOM     11  C   UNL     1      34.801 -16.582 -25.278  0.00  0.00    +0.031 C 
ATOM     12  C   UNL     1      33.554 -15.725 -25.640  0.00  0.00    +0.045 C 
ATOM     13  C   UNL     1      33.526 -14.750 -24.539  0.00  0.00    +0.050 C 
ATOM     14  C   UNL     1      34.317 -14.175 -22.558  0.00  0.00    +0.168 C 
ATOM     15  C   UNL     1      32.965 -13.572 -24.132  0.00  0.00    +0.111 C 
ENDBRANCH   2  10
BRANCH   7  17
ATOM     16  N   UNL     1      33.068 -21.297 -19.429  0.00  0.00    -0.191 NA
ATOM     17  C   UNL     1      33.409 -20.464 -20.160  0.00  0.00    +0.100 C 
ENDBRANCH   7  17
TORSDOF 2
ENDMDL
MODEL 7
REMARK VINA RESULT:      -7.6      5.677      9.329
REMARK  Name = 44139752
REMARK  2 active torsions:
REMARK  status: ('A' for Active; 'I' for Inactive)
REMARK    1  A    between atoms: C_2  and  C_10
REMARK    2  A    between atoms: C_7  and  C_17
REMARK                            x       y       z     vdW  Elec       q    Type
REMARK                         _______ _______ _______ _____ _____    ______ ____
ROOT
ATOM      1  F   UNL     1      33.766 -23.812 -16.029  0.00  0.00    -0.204 F 
ATOM      2  C   UNL     1      36.065 -23.491 -15.526  0.00  0.00    +0.024 C 
ATOM      3  C   UNL     1      34.951 -23.260 -16.333  0.00  0.00    +0.138 C 
ATOM      4  C   UNL     1      37.292 -22.912 -15.850  0.00  0.00    +0.000 C 
ATOM      5  C   UNL     1      35.063 -22.450 -17.463  0.00  0.00    +0.040 C 
ATOM      6  C   UNL     1      37.405 -22.103 -16.980  0.00  0.00    +0.010 C 
ATOM      7  C   UNL     1      36.290 -21.872 -17.787  0.00  0.00    +0.071 C 
ENDROOT
BRANCH   2  10
ATOM      8  N   UNL     1      36.887 -23.944 -13.271  0.00  0.00    -0.270 N 
ATOM      9  N   UNL     1      38.066 -23.061 -11.656  0.00  0.00    -0.225 NA
ATOM     10  C   UNL     1      35.948 -24.368 -14.303  0.00  0.00    +0.103 C 
ATOM     11  C   UNL     1      36.339 -25.863 -14.481  0.00  0.00    +0.031 C 
ATOM     12  C   UNL     1      37.762 -26.035 -13.875  0.00  0.00    +0.045 C 
ATOM     13  C   UNL     1      37.871 -24.848 -13.013  0.00  0.00    +0.050 C 
ATOM     14  C   UNL     1      37.012 -22.896 -12.437  0.00  0.00    +0.168 C 
ATOM     15  C   UNL     1      38.610 -24.286 -12.010  0.00  0.00    +0.111 C 
ENDBRANCH   2  10
BRANCH   7  17
ATOM     16  N   UNL     1      36.498 -20.370 -19.886  0.00  0.00    -0.191 NA
ATOM     17  C   UNL     1      36.405 -21.043 -18.946  0.00  0.00    +0.100 C 
ENDBRANCH   7  17
TORSDOF 2
ENDMDL
MODEL 8
REMARK VINA RESULT:      -7.6      2.388      5.849
REMARK  Name = 44139752
REMARK  2 active torsions:
REMARK  status: ('A' for Active; 'I' for Inactive)
REMARK    1  A    between atoms: C_2  and  C_10
REMARK    2  A    between atoms: C_7  and  C_17
REMARK                            x       y       z     vdW  Elec       q    Type
REMARK                         _______ _______ _______ _____ _____    ______ ____
ROOT
ATOM      1  F   UNL     1      34.394 -16.216 -24.495  0.00  0.00    -0.204 F 
ATOM      2  C   UNL     1      34.012 -16.892 -22.251  0.00  0.00    +0.024 C 
ATOM      3  C   UNL     1      33.922 -15.943 -23.270  0.00  0.00    +0.138 C 
ATOM      4  C   UNL     1      33.517 -16.599 -20.980  0.00  0.00    +0.000 C 
ATOM      5  C   UNL     1      33.338 -14.702 -23.017  0.00  0.00    +0.040 C 
ATOM      6  C   UNL     1      32.934 -15.358 -20.728  0.00  0.00    +0.010 C 
ATOM      7  C   UNL     1      32.844 -14.409 -21.747  0.00  0.00    +0.071 C 
ENDROOT
BRANCH   2  10
ATOM      8  N   UNL     1      34.157 -19.235 -21.576  0.00  0.00    -0.270 N 
ATOM      9  N   UNL     1      33.144 -20.745 -20.362  0.00  0.00    -0.225 NA
ATOM     10  C   UNL     1      34.645 -18.236 -22.519  0.00  0.00    +0.103 C 
ATOM     11  C   UNL     1      36.182 -18.334 -22.303  0.00  0.00    +0.031 C 
ATOM     12  C   UNL     1      36.405 -19.042 -20.936  0.00  0.00    +0.045 C 
ATOM     13  C   UNL     1      35.107 -19.697 -20.718  0.00  0.00    +0.050 C 
ATOM     14  C   UNL     1      33.001 -19.887 -21.358  0.00  0.00    +0.168 C 
ATOM     15  C   UNL     1      34.465 -20.633 -19.956  0.00  0.00    +0.111 C 
ENDBRANCH   2  10
BRANCH   7  17
ATOM     16  N   UNL     1      31.760 -12.104 -21.280  0.00  0.00    -0.191 NA
ATOM     17  C   UNL     1      32.245 -13.137 -21.489  0.00  0.00    +0.100 C 
ENDBRANCH   7  17
TORSDOF 2
ENDMDL
MODEL 9
REMARK VINA RESULT:      -7.6      7.428      9.389
REMARK  Name = 44139752
REMARK  2 active torsions:
REMARK  status: ('A' for Active; 'I' for Inactive)
REMARK    1  A    between atoms: C_2  and  C_10
REMARK    2  A    between atoms: C_7  and  C_17
REMARK                            x       y       z     vdW  Elec       q    Type
REMARK                         _______ _______ _______ _____ _____    ______ ____
ROOT
ATOM      1  F   UNL     1      34.578 -22.833 -17.535  0.00  0.00    -0.204 F 
ATOM      2  C   UNL     1      34.591 -23.826 -15.378  0.00  0.00    +0.024 C 
ATOM      3  C   UNL     1      33.905 -23.310 -16.477  0.00  0.00    +0.138 C 
ATOM      4  C   UNL     1      33.881 -24.320 -14.283  0.00  0.00    +0.000 C 
ATOM      5  C   UNL     1      32.511 -23.289 -16.483  0.00  0.00    +0.040 C 
ATOM      6  C   UNL     1      32.487 -24.298 -14.289  0.00  0.00    +0.010 C 
ATOM      7  C   UNL     1      31.801 -23.782 -15.388  0.00  0.00    +0.071 C 
ENDROOT
BRANCH   2  10
ATOM      8  N   UNL     1      36.594 -25.071 -14.743  0.00  0.00    -0.270 N 
ATOM      9  N   UNL     1      37.263 -27.054 -14.110  0.00  0.00    -0.225 NA
ATOM     10  C   UNL     1      36.100 -23.850 -15.367  0.00  0.00    +0.103 C 
ATOM     11  C   UNL     1      36.805 -22.760 -14.509  0.00  0.00    +0.031 C 
ATOM     12  C   UNL     1      37.266 -23.446 -13.192  0.00  0.00    +0.045 C 
ATOM     13  C   UNL     1      37.247 -24.868 -13.567  0.00  0.00    +0.050 C 
ATOM     14  C   UNL     1      36.633 -26.379 -15.056  0.00  0.00    +0.168 C 
ATOM     15  C   UNL     1      37.653 -26.111 -13.171  0.00  0.00    +0.111 C 
ENDBRANCH   2  10
BRANCH   7  17
ATOM     16  N   UNL     1      29.212 -23.742 -15.399  0.00  0.00    -0.191 NA
ATOM     17  C   UNL     1      30.372 -23.760 -15.395  0.00  0.00    +0.100 C 
ENDBRANCH   7  17
TORSDOF 2
ENDMDL
