MODEL 1
REMARK VINA RESULT:      -7.5      0.000      0.000
REMARK  Name = 5289374
REMARK  9 active torsions:
REMARK  status: ('A' for Active; 'I' for Inactive)
REMARK    1  A    between atoms: P_1  and  O_3
REMARK    2  A    between atoms: P_1  and  O_5
REMARK    3  A    between atoms: P_1  and  C_14
REMARK    4  A    between atoms: O_5  and  C_6
REMARK    5  A    between atoms: C_6  and  C_9
REMARK    6  A    between atoms: C_14  and  C_15
REMARK    7  A    between atoms: C_15  and  C_16
REMARK    8  A    between atoms: C_16  and  C_17
REMARK    9  A    between atoms: C_17  and  C_18
REMARK                            x       y       z     vdW  Elec       q    Type
REMARK                         _______ _______ _______ _____ _____    ______ ____
ROOT
ATOM      1  P   UNL     1      33.765 -22.680 -18.559  0.00  0.00    +0.340 P 
ATOM      2  O   UNL     1      32.375 -22.496 -18.052  0.00  0.00    -0.258 OA
ENDROOT
BRANCH   1   3
ATOM      3  O   UNL     1      33.989 -23.995 -19.463  0.00  0.00    -0.323 OA
ATOM      4  H   UNL     1      33.879 -23.767 -20.399  0.00  0.00    +0.220 HD
ENDBRANCH   1   3
BRANCH   1   5
ATOM      5  O   UNL     1      34.905 -22.758 -17.424  0.00  0.00    -0.292 OA
BRANCH   5   6
ATOM      6  C   UNL     1      34.706 -23.481 -16.223  0.00  0.00    +0.183 C 
BRANCH   6   9
ATOM      7  O   UNL     1      36.938 -24.134 -15.588  0.00  0.00    -0.332 OA
ATOM      8  O   UNL     1      35.773 -24.902 -13.701  0.00  0.00    -0.332 OA
ATOM      9  C   UNL     1      35.878 -23.221 -15.285  0.00  0.00    +0.177 C 
ATOM     10  C   UNL     1      36.846 -25.183 -14.612  0.00  0.00    +0.187 C 
ATOM     11  C   UNL     1      35.548 -23.500 -13.838  0.00  0.00    +0.177 C 
ATOM     12  C   UNL     1      38.163 -25.242 -13.841  0.00  0.00    +0.061 C 
ATOM     13  C   UNL     1      36.571 -26.508 -15.311  0.00  0.00    +0.061 C 
ENDBRANCH   6   9
ENDBRANCH   5   6
ENDBRANCH   1   5
BRANCH   1  14
ATOM     14  C   UNL     1      34.295 -21.345 -19.653  0.00  0.00    +0.116 C 
BRANCH  14  15
ATOM     15  C   UNL     1      33.142 -20.535 -20.231  0.00  0.00    +0.013 C 
BRANCH  15  16
ATOM     16  C   UNL     1      33.627 -19.313 -21.013  0.00  0.00    +0.005 C 
BRANCH  16  17
ATOM     17  C   UNL     1      34.987 -19.576 -21.664  0.00  0.00    +0.026 C 
BRANCH  17  18
ATOM     18  C   UNL     1      35.171 -18.746 -22.900  0.00  0.00    -0.026 C 
ATOM     19  C   UNL     1      34.823 -19.145 -24.128  0.00  0.00    -0.005 C 
ENDBRANCH  17  18
ENDBRANCH  16  17
ENDBRANCH  15  16
ENDBRANCH  14  15
ENDBRANCH   1  14
TORSDOF 9
ENDMDL
MODEL 2
REMARK VINA RESULT:      -7.2      4.984      9.788
REMARK  Name = 5289374
REMARK  9 active torsions:
REMARK  status: ('A' for Active; 'I' for Inactive)
REMARK    1  A    between atoms: P_1  and  O_3
REMARK    2  A    between atoms: P_1  and  O_5
REMARK    3  A    between atoms: P_1  and  C_14
REMARK    4  A    between atoms: O_5  and  C_6
REMARK    5  A    between atoms: C_6  and  C_9
REMARK    6  A    between atoms: C_14  and  C_15
REMARK    7  A    between atoms: C_15  and  C_16
REMARK    8  A    between atoms: C_16  and  C_17
REMARK    9  A    between atoms: C_17  and  C_18
REMARK                            x       y       z     vdW  Elec       q    Type
REMARK                         _______ _______ _______ _____ _____    ______ ____
ROOT
ATOM      1  P   UNL     1      35.674 -18.382 -21.515  0.00  0.00    +0.340 P 
ATOM      2  O   UNL     1      35.194 -17.274 -20.640  0.00  0.00    -0.258 OA
ENDROOT
BRANCH   1   3
ATOM      3  O   UNL     1      37.088 -19.024 -21.082  0.00  0.00    -0.323 OA
ATOM      4  H   UNL     1      37.784 -18.352 -21.154  0.00  0.00    +0.220 HD
ENDBRANCH   1   3
BRANCH   1   5
ATOM      5  O   UNL     1      35.850 -18.003 -23.070  0.00  0.00    -0.292 OA
BRANCH   5   6
ATOM      6  C   UNL     1      34.746 -17.614 -23.866  0.00  0.00    +0.183 C 
BRANCH   6   9
ATOM      7  O   UNL     1      35.006 -15.260 -23.417  0.00  0.00    -0.332 OA
ATOM      8  O   UNL     1      32.960 -15.198 -24.565  0.00  0.00    -0.332 OA
ATOM      9  C   UNL     1      35.022 -16.239 -24.461  0.00  0.00    +0.177 C 
ATOM     10  C   UNL     1      33.713 -14.638 -23.478  0.00  0.00    +0.187 C 
ATOM     11  C   UNL     1      33.944 -15.783 -25.416  0.00  0.00    +0.177 C 
ATOM     12  C   UNL     1      33.907 -13.142 -23.714  0.00  0.00    +0.061 C 
ATOM     13  C   UNL     1      32.964 -14.887 -22.176  0.00  0.00    +0.061 C 
ENDBRANCH   6   9
ENDBRANCH   5   6
ENDBRANCH   1   5
BRANCH   1  14
ATOM     14  C   UNL     1      34.568 -19.809 -21.510  0.00  0.00    +0.116 C 
BRANCH  14  15
ATOM     15  C   UNL     1      33.283 -19.584 -20.724  0.00  0.00    +0.013 C 
BRANCH  15  16
ATOM     16  C   UNL     1      32.935 -20.775 -19.829  0.00  0.00    +0.005 C 
BRANCH  16  17
ATOM     17  C   UNL     1      34.193 -21.534 -19.402  0.00  0.00    +0.026 C 
BRANCH  17  18
ATOM     18  C   UNL     1      33.848 -22.821 -18.713  0.00  0.00    -0.026 C 
ATOM     19  C   UNL     1      33.047 -22.906 -17.645  0.00  0.00    -0.005 C 
ENDBRANCH  17  18
ENDBRANCH  16  17
ENDBRANCH  15  16
ENDBRANCH  14  15
ENDBRANCH   1  14
TORSDOF 9
ENDMDL
MODEL 3
REMARK VINA RESULT:      -7.1      5.464      9.659
REMARK  Name = 5289374
REMARK  9 active torsions:
REMARK  status: ('A' for Active; 'I' for Inactive)
REMARK    1  A    between atoms: P_1  and  O_3
REMARK    2  A    between atoms: P_1  and  O_5
REMARK    3  A    between atoms: P_1  and  C_14
REMARK    4  A    between atoms: O_5  and  C_6
REMARK    5  A    between atoms: C_6  and  C_9
REMARK    6  A    between atoms: C_14  and  C_15
REMARK    7  A    between atoms: C_15  and  C_16
REMARK    8  A    between atoms: C_16  and  C_17
REMARK    9  A    between atoms: C_17  and  C_18
REMARK                            x       y       z     vdW  Elec       q    Type
REMARK                         _______ _______ _______ _____ _____    ______ ____
ROOT
ATOM      1  P   UNL     1      35.545 -17.929 -22.445  0.00  0.00    +0.340 P 
ATOM      2  O   UNL     1      36.835 -18.478 -21.939  0.00  0.00    -0.258 OA
ENDROOT
BRANCH   1   3
ATOM      3  O   UNL     1      35.089 -18.487 -23.887  0.00  0.00    -0.323 OA
ATOM      4  H   UNL     1      35.174 -19.453 -23.902  0.00  0.00    +0.220 HD
ENDBRANCH   1   3
BRANCH   1   5
ATOM      5  O   UNL     1      35.488 -16.326 -22.585  0.00  0.00    -0.292 OA
BRANCH   5   6
ATOM      6  C   UNL     1      34.692 -15.697 -23.573  0.00  0.00    +0.183 C 
BRANCH   6   9
ATOM      7  O   UNL     1      34.166 -14.269 -21.703  0.00  0.00    -0.332 OA
ATOM      8  O   UNL     1      32.079 -14.263 -22.776  0.00  0.00    -0.332 OA
ATOM      9  C   UNL     1      34.366 -14.279 -23.120  0.00  0.00    +0.177 C 
ATOM     10  C   UNL     1      32.744 -14.283 -21.504  0.00  0.00    +0.187 C 
ATOM     11  C   UNL     1      33.061 -13.766 -23.684  0.00  0.00    +0.177 C 
ATOM     12  C   UNL     1      32.355 -13.038 -20.710  0.00  0.00    +0.061 C 
ATOM     13  C   UNL     1      32.345 -15.547 -20.755  0.00  0.00    +0.061 C 
ENDBRANCH   6   9
ENDBRANCH   5   6
ENDBRANCH   1   5
BRANCH   1  14
ATOM     14  C   UNL     1      34.142 -18.350 -21.390  0.00  0.00    +0.116 C 
BRANCH  14  15
ATOM     15  C   UNL     1      33.735 -19.816 -21.470  0.00  0.00    +0.013 C 
BRANCH  15  16
ATOM     16  C   UNL     1      32.986 -20.278 -20.219  0.00  0.00    +0.005 C 
BRANCH  16  17
ATOM     17  C   UNL     1      33.754 -21.383 -19.491  0.00  0.00    +0.026 C 
BRANCH  17  18
ATOM     18  C   UNL     1      35.237 -21.209 -19.642  0.00  0.00    -0.026 C 
ATOM     19  C   UNL     1      36.138 -21.688 -18.778  0.00  0.00    -0.005 C 
ENDBRANCH  17  18
ENDBRANCH  16  17
ENDBRANCH  15  16
ENDBRANCH  14  15
ENDBRANCH   1  14
TORSDOF 9
ENDMDL
MODEL 4
REMARK VINA RESULT:      -7.1      1.047      1.430
REMARK  Name = 5289374
REMARK  9 active torsions:
REMARK  status: ('A' for Active; 'I' for Inactive)
REMARK    1  A    between atoms: P_1  and  O_3
REMARK    2  A    between atoms: P_1  and  O_5
REMARK    3  A    between atoms: P_1  and  C_14
REMARK    4  A    between atoms: O_5  and  C_6
REMARK    5  A    between atoms: C_6  and  C_9
REMARK    6  A    between atoms: C_14  and  C_15
REMARK    7  A    between atoms: C_15  and  C_16
REMARK    8  A    between atoms: C_16  and  C_17
REMARK    9  A    between atoms: C_17  and  C_18
REMARK                            x       y       z     vdW  Elec       q    Type
REMARK                         _______ _______ _______ _____ _____    ______ ____
ROOT
ATOM      1  P   UNL     1      33.737 -22.703 -18.537  0.00  0.00    +0.340 P 
ATOM      2  O   UNL     1      32.337 -22.552 -18.048  0.00  0.00    -0.258 OA
ENDROOT
BRANCH   1   3
ATOM      3  O   UNL     1      33.994 -23.992 -19.471  0.00  0.00    -0.323 OA
ATOM      4  H   UNL     1      34.246 -23.701 -20.361  0.00  0.00    +0.220 HD
ENDBRANCH   1   3
BRANCH   1   5
ATOM      5  O   UNL     1      34.861 -22.795 -17.387  0.00  0.00    -0.292 OA
BRANCH   5   6
ATOM      6  C   UNL     1      34.585 -23.382 -16.128  0.00  0.00    +0.183 C 
BRANCH   6   9
ATOM      7  O   UNL     1      35.388 -25.064 -14.600  0.00  0.00    -0.332 OA
ATOM      8  O   UNL     1      36.645 -23.236 -13.836  0.00  0.00    -0.332 OA
ATOM      9  C   UNL     1      35.765 -24.253 -15.718  0.00  0.00    +0.177 C 
ATOM     10  C   UNL     1      35.921 -24.409 -13.438  0.00  0.00    +0.187 C 
ATOM     11  C   UNL     1      36.943 -23.452 -15.215  0.00  0.00    +0.177 C 
ATOM     12  C   UNL     1      36.868 -25.374 -12.731  0.00  0.00    +0.061 C 
ATOM     13  C   UNL     1      34.780 -23.999 -12.516  0.00  0.00    +0.061 C 
ENDBRANCH   6   9
ENDBRANCH   5   6
ENDBRANCH   1   5
BRANCH   1  14
ATOM     14  C   UNL     1      34.264 -21.334 -19.589  0.00  0.00    +0.116 C 
BRANCH  14  15
ATOM     15  C   UNL     1      33.116 -20.457 -20.072  0.00  0.00    +0.013 C 
BRANCH  15  16
ATOM     16  C   UNL     1      33.520 -19.572 -21.252  0.00  0.00    +0.005 C 
BRANCH  16  17
ATOM     17  C   UNL     1      35.028 -19.314 -21.261  0.00  0.00    +0.026 C 
BRANCH  17  18
ATOM     18  C   UNL     1      35.471 -18.705 -22.559  0.00  0.00    -0.026 C 
ATOM     19  C   UNL     1      34.988 -19.059 -23.755  0.00  0.00    -0.005 C 
ENDBRANCH  17  18
ENDBRANCH  16  17
ENDBRANCH  15  16
ENDBRANCH  14  15
ENDBRANCH   1  14
TORSDOF 9
ENDMDL
MODEL 5
REMARK VINA RESULT:      -7.1      6.217      8.799
REMARK  Name = 5289374
REMARK  9 active torsions:
REMARK  status: ('A' for Active; 'I' for Inactive)
REMARK    1  A    between atoms: P_1  and  O_3
REMARK    2  A    between atoms: P_1  and  O_5
REMARK    3  A    between atoms: P_1  and  C_14
REMARK    4  A    between atoms: O_5  and  C_6
REMARK    5  A    between atoms: C_6  and  C_9
REMARK    6  A    between atoms: C_14  and  C_15
REMARK    7  A    between atoms: C_15  and  C_16
REMARK    8  A    between atoms: C_16  and  C_17
REMARK    9  A    between atoms: C_17  and  C_18
REMARK                            x       y       z     vdW  Elec       q    Type
REMARK                         _______ _______ _______ _____ _____    ______ ____
ROOT
ATOM      1  P   UNL     1      33.974 -15.126 -23.530  0.00  0.00    +0.340 P 
ATOM      2  O   UNL     1      33.121 -14.918 -24.735  0.00  0.00    -0.258 OA
ENDROOT
BRANCH   1   3
ATOM      3  O   UNL     1      34.874 -13.857 -23.108  0.00  0.00    -0.323 OA
ATOM      4  H   UNL     1      35.730 -14.164 -22.772  0.00  0.00    +0.220 HD
ENDBRANCH   1   3
BRANCH   1   5
ATOM      5  O   UNL     1      35.011 -16.355 -23.627  0.00  0.00    -0.292 OA
BRANCH   5   6
ATOM      6  C   UNL     1      34.564 -17.695 -23.713  0.00  0.00    +0.183 C 
BRANCH   6   9
ATOM      7  O   UNL     1      34.860 -19.759 -22.503  0.00  0.00    -0.332 OA
ATOM      8  O   UNL     1      35.124 -18.245 -20.730  0.00  0.00    -0.332 OA
ATOM      9  C   UNL     1      35.547 -18.596 -22.976  0.00  0.00    +0.177 C 
ATOM     10  C   UNL     1      34.583 -19.518 -21.115  0.00  0.00    +0.187 C 
ATOM     11  C   UNL     1      36.105 -17.959 -21.725  0.00  0.00    +0.177 C 
ATOM     12  C   UNL     1      35.246 -20.620 -20.291  0.00  0.00    +0.061 C 
ATOM     13  C   UNL     1      33.077 -19.507 -20.888  0.00  0.00    +0.061 C 
ENDBRANCH   6   9
ENDBRANCH   5   6
ENDBRANCH   1   5
BRANCH   1  14
ATOM     14  C   UNL     1      33.013 -15.451 -22.037  0.00  0.00    +0.116 C 
BRANCH  14  15
ATOM     15  C   UNL     1      33.441 -14.613 -20.840  0.00  0.00    +0.013 C 
BRANCH  15  16
ATOM     16  C   UNL     1      32.308 -13.728 -20.316  0.00  0.00    +0.005 C 
BRANCH  16  17
ATOM     17  C   UNL     1      31.984 -12.603 -21.301  0.00  0.00    +0.026 C 
BRANCH  17  18
ATOM     18  C   UNL     1      31.300 -11.457 -20.616  0.00  0.00    -0.026 C 
ATOM     19  C   UNL     1      31.557 -11.076 -19.360  0.00  0.00    -0.005 C 
ENDBRANCH  17  18
ENDBRANCH  16  17
ENDBRANCH  15  16
ENDBRANCH  14  15
ENDBRANCH   1  14
TORSDOF 9
ENDMDL
MODEL 6
REMARK VINA RESULT:      -7.0      2.706      3.655
REMARK  Name = 5289374
REMARK  9 active torsions:
REMARK  status: ('A' for Active; 'I' for Inactive)
REMARK    1  A    between atoms: P_1  and  O_3
REMARK    2  A    between atoms: P_1  and  O_5
REMARK    3  A    between atoms: P_1  and  C_14
REMARK    4  A    between atoms: O_5  and  C_6
REMARK    5  A    between atoms: C_6  and  C_9
REMARK    6  A    between atoms: C_14  and  C_15
REMARK    7  A    between atoms: C_15  and  C_16
REMARK    8  A    between atoms: C_16  and  C_17
REMARK    9  A    between atoms: C_17  and  C_18
REMARK                            x       y       z     vdW  Elec       q    Type
REMARK                         _______ _______ _______ _____ _____    ______ ____
ROOT
ATOM      1  P   UNL     1      32.592 -23.781 -14.470  0.00  0.00    +0.340 P 
ATOM      2  O   UNL     1      31.727 -22.873 -13.662  0.00  0.00    -0.258 OA
ENDROOT
BRANCH   1   3
ATOM      3  O   UNL     1      32.386 -25.353 -14.176  0.00  0.00    -0.323 OA
ATOM      4  H   UNL     1      32.057 -25.791 -14.977  0.00  0.00    +0.220 HD
ENDBRANCH   1   3
BRANCH   1   5
ATOM      5  O   UNL     1      34.176 -23.535 -14.318  0.00  0.00    -0.292 OA
BRANCH   5   6
ATOM      6  C   UNL     1      34.977 -24.360 -13.491  0.00  0.00    +0.183 C 
BRANCH   6   9
ATOM      7  O   UNL     1      37.027 -25.629 -13.490  0.00  0.00    -0.332 OA
ATOM      8  O   UNL     1      37.853 -23.586 -14.296  0.00  0.00    -0.332 OA
ATOM      9  C   UNL     1      36.047 -25.029 -14.344  0.00  0.00    +0.177 C 
ATOM     10  C   UNL     1      38.131 -24.712 -13.451  0.00  0.00    +0.187 C 
ATOM     11  C   UNL     1      36.834 -24.047 -15.181  0.00  0.00    +0.177 C 
ATOM     12  C   UNL     1      39.376 -25.434 -13.962  0.00  0.00    +0.061 C 
ATOM     13  C   UNL     1      38.339 -24.224 -12.023  0.00  0.00    +0.061 C 
ENDBRANCH   6   9
ENDBRANCH   5   6
ENDBRANCH   1   5
BRANCH   1  14
ATOM     14  C   UNL     1      32.274 -23.659 -16.243  0.00  0.00    +0.116 C 
BRANCH  14  15
ATOM     15  C   UNL     1      33.517 -23.352 -17.067  0.00  0.00    +0.013 C 
BRANCH  15  16
ATOM     16  C   UNL     1      33.199 -22.512 -18.305  0.00  0.00    +0.005 C 
BRANCH  16  17
ATOM     17  C   UNL     1      34.472 -22.155 -19.075  0.00  0.00    +0.026 C 
BRANCH  17  18
ATOM     18  C   UNL     1      34.268 -20.944 -19.938  0.00  0.00    -0.026 C 
ATOM     19  C   UNL     1      33.071 -20.414 -20.211  0.00  0.00    -0.005 C 
ENDBRANCH  17  18
ENDBRANCH  16  17
ENDBRANCH  15  16
ENDBRANCH  14  15
ENDBRANCH   1  14
TORSDOF 9
ENDMDL
MODEL 7
REMARK VINA RESULT:      -6.9      3.062      5.633
REMARK  Name = 5289374
REMARK  9 active torsions:
REMARK  status: ('A' for Active; 'I' for Inactive)
REMARK    1  A    between atoms: P_1  and  O_3
REMARK    2  A    between atoms: P_1  and  O_5
REMARK    3  A    between atoms: P_1  and  C_14
REMARK    4  A    between atoms: O_5  and  C_6
REMARK    5  A    between atoms: C_6  and  C_9
REMARK    6  A    between atoms: C_14  and  C_15
REMARK    7  A    between atoms: C_15  and  C_16
REMARK    8  A    between atoms: C_16  and  C_17
REMARK    9  A    between atoms: C_17  and  C_18
REMARK                            x       y       z     vdW  Elec       q    Type
REMARK                         _______ _______ _______ _____ _____    ______ ____
ROOT
ATOM      1  P   UNL     1      36.104 -25.435 -14.907  0.00  0.00    +0.340 P 
ATOM      2  O   UNL     1      36.294 -26.652 -15.746  0.00  0.00    -0.258 OA
ENDROOT
BRANCH   1   3
ATOM      3  O   UNL     1      36.053 -25.707 -13.319  0.00  0.00    -0.323 OA
ATOM      4  H   UNL     1      35.135 -25.656 -13.012  0.00  0.00    +0.220 HD
ENDBRANCH   1   3
BRANCH   1   5
ATOM      5  O   UNL     1      34.776 -24.582 -15.224  0.00  0.00    -0.292 OA
BRANCH   5   6
ATOM      6  C   UNL     1      33.773 -24.383 -14.245  0.00  0.00    +0.183 C 
BRANCH   6   9
ATOM      7  O   UNL     1      31.639 -23.288 -14.001  0.00  0.00    -0.332 OA
ATOM      8  O   UNL     1      31.429 -24.023 -16.219  0.00  0.00    -0.332 OA
ATOM      9  C   UNL     1      32.911 -23.193 -14.650  0.00  0.00    +0.177 C 
ATOM     10  C   UNL     1      30.735 -23.825 -14.978  0.00  0.00    +0.187 C 
ATOM     11  C   UNL     1      32.577 -23.182 -16.123  0.00  0.00    +0.177 C 
ATOM     12  C   UNL     1      29.599 -22.827 -15.187  0.00  0.00    +0.061 C 
ATOM     13  C   UNL     1      30.195 -25.164 -14.492  0.00  0.00    +0.061 C 
ENDBRANCH   6   9
ENDBRANCH   5   6
ENDBRANCH   1   5
BRANCH   1  14
ATOM     14  C   UNL     1      37.460 -24.254 -15.068  0.00  0.00    +0.116 C 
BRANCH  14  15
ATOM     15  C   UNL     1      37.001 -22.805 -15.171  0.00  0.00    +0.013 C 
BRANCH  15  16
ATOM     16  C   UNL     1      37.386 -22.169 -16.508  0.00  0.00    +0.005 C 
BRANCH  16  17
ATOM     17  C   UNL     1      36.176 -22.053 -17.436  0.00  0.00    +0.026 C 
BRANCH  17  18
ATOM     18  C   UNL     1      36.558 -21.465 -18.763  0.00  0.00    -0.026 C 
ATOM     19  C   UNL     1      35.731 -21.381 -19.810  0.00  0.00    -0.005 C 
ENDBRANCH  17  18
ENDBRANCH  16  17
ENDBRANCH  15  16
ENDBRANCH  14  15
ENDBRANCH   1  14
TORSDOF 9
ENDMDL
MODEL 8
REMARK VINA RESULT:      -6.9      7.539     10.115
REMARK  Name = 5289374
REMARK  9 active torsions:
REMARK  status: ('A' for Active; 'I' for Inactive)
REMARK    1  A    between atoms: P_1  and  O_3
REMARK    2  A    between atoms: P_1  and  O_5
REMARK    3  A    between atoms: P_1  and  C_14
REMARK    4  A    between atoms: O_5  and  C_6
REMARK    5  A    between atoms: C_6  and  C_9
REMARK    6  A    between atoms: C_14  and  C_15
REMARK    7  A    between atoms: C_15  and  C_16
REMARK    8  A    between atoms: C_16  and  C_17
REMARK    9  A    between atoms: C_17  and  C_18
REMARK                            x       y       z     vdW  Elec       q    Type
REMARK                         _______ _______ _______ _____ _____    ______ ____
ROOT
ATOM      1  P   UNL     1      33.444 -13.430 -23.717  0.00  0.00    +0.340 P 
ATOM      2  O   UNL     1      32.747 -13.990 -24.910  0.00  0.00    -0.258 OA
ENDROOT
BRANCH   1   3
ATOM      3  O   UNL     1      34.172 -12.012 -23.960  0.00  0.00    -0.323 OA
ATOM      4  H   UNL     1      33.529 -11.373 -24.304  0.00  0.00    +0.220 HD
ENDBRANCH   1   3
BRANCH   1   5
ATOM      5  O   UNL     1      34.580 -14.375 -23.078  0.00  0.00    -0.292 OA
BRANCH   5   6
ATOM      6  C   UNL     1      34.514 -15.786 -23.182  0.00  0.00    +0.183 C 
BRANCH   6   9
ATOM      7  O   UNL     1      35.870 -17.544 -22.243  0.00  0.00    -0.332 OA
ATOM      8  O   UNL     1      33.761 -18.271 -21.517  0.00  0.00    -0.332 OA
ATOM      9  C   UNL     1      35.070 -16.405 -21.906  0.00  0.00    +0.177 C 
ATOM     10  C   UNL     1      35.038 -18.692 -22.019  0.00  0.00    +0.187 C 
ATOM     11  C   UNL     1      33.994 -16.961 -21.003  0.00  0.00    +0.177 C 
ATOM     12  C   UNL     1      35.717 -19.588 -20.986  0.00  0.00    +0.061 C 
ATOM     13  C   UNL     1      34.834 -19.439 -23.330  0.00  0.00    +0.061 C 
ENDBRANCH   6   9
ENDBRANCH   5   6
ENDBRANCH   1   5
BRANCH   1  14
ATOM     14  C   UNL     1      32.318 -13.073 -22.351  0.00  0.00    +0.116 C 
BRANCH  14  15
ATOM     15  C   UNL     1      31.823 -11.633 -22.327  0.00  0.00    +0.013 C 
BRANCH  15  16
ATOM     16  C   UNL     1      30.858 -11.372 -21.169  0.00  0.00    +0.005 C 
BRANCH  16  17
ATOM     17  C   UNL     1      31.566 -11.501 -19.818  0.00  0.00    +0.026 C 
BRANCH  17  18
ATOM     18  C   UNL     1      31.725 -10.164 -19.155  0.00  0.00    -0.026 C 
ATOM     19  C   UNL     1      32.094  -9.050 -19.796  0.00  0.00    -0.005 C 
ENDBRANCH  17  18
ENDBRANCH  16  17
ENDBRANCH  15  16
ENDBRANCH  14  15
ENDBRANCH   1  14
TORSDOF 9
ENDMDL
MODEL 9
REMARK VINA RESULT:      -6.9      2.277      3.208
REMARK  Name = 5289374
REMARK  9 active torsions:
REMARK  status: ('A' for Active; 'I' for Inactive)
REMARK    1  A    between atoms: P_1  and  O_3
REMARK    2  A    between atoms: P_1  and  O_5
REMARK    3  A    between atoms: P_1  and  C_14
REMARK    4  A    between atoms: O_5  and  C_6
REMARK    5  A    between atoms: C_6  and  C_9
REMARK    6  A    between atoms: C_14  and  C_15
REMARK    7  A    between atoms: C_15  and  C_16
REMARK    8  A    between atoms: C_16  and  C_17
REMARK    9  A    between atoms: C_17  and  C_18
REMARK                            x       y       z     vdW  Elec       q    Type
REMARK                         _______ _______ _______ _____ _____    ______ ____
ROOT
ATOM      1  P   UNL     1      33.836 -22.919 -18.414  0.00  0.00    +0.340 P 
ATOM      2  O   UNL     1      32.458 -22.398 -18.184  0.00  0.00    -0.258 OA
ENDROOT
BRANCH   1   3
ATOM      3  O   UNL     1      33.943 -24.092 -19.514  0.00  0.00    -0.323 OA
ATOM      4  H   UNL     1      33.384 -23.873 -20.276  0.00  0.00    +0.220 HD
ENDBRANCH   1   3
BRANCH   1   5
ATOM      5  O   UNL     1      34.575 -23.506 -17.109  0.00  0.00    -0.292 OA
BRANCH   5   6
ATOM      6  C   UNL     1      34.231 -23.072 -15.806  0.00  0.00    +0.183 C 
BRANCH   6   9
ATOM      7  O   UNL     1      32.323 -24.452 -15.291  0.00  0.00    -0.332 OA
ATOM      8  O   UNL     1      32.544 -23.339 -13.237  0.00  0.00    -0.332 OA
ATOM      9  C   UNL     1      33.712 -24.261 -15.007  0.00  0.00    +0.177 C 
ATOM     10  C   UNL     1      31.610 -23.855 -14.197  0.00  0.00    +0.187 C 
ATOM     11  C   UNL     1      33.759 -24.033 -13.514  0.00  0.00    +0.177 C 
ATOM     12  C   UNL     1      30.748 -24.929 -13.538  0.00  0.00    +0.061 C 
ATOM     13  C   UNL     1      30.746 -22.712 -14.713  0.00  0.00    +0.061 C 
ENDBRANCH   6   9
ENDBRANCH   5   6
ENDBRANCH   1   5
BRANCH   1  14
ATOM     14  C   UNL     1      34.962 -21.663 -19.057  0.00  0.00    +0.116 C 
BRANCH  14  15
ATOM     15  C   UNL     1      34.351 -20.794 -20.148  0.00  0.00    +0.013 C 
BRANCH  15  16
ATOM     16  C   UNL     1      35.368 -19.826 -20.755  0.00  0.00    +0.005 C 
BRANCH  16  17
ATOM     17  C   UNL     1      34.677 -18.764 -21.615  0.00  0.00    +0.026 C 
BRANCH  17  18
ATOM     18  C   UNL     1      35.313 -18.659 -22.969  0.00  0.00    -0.026 C 
ATOM     19  C   UNL     1      34.756 -19.119 -24.095  0.00  0.00    -0.005 C 
ENDBRANCH  17  18
ENDBRANCH  16  17
ENDBRANCH  15  16
ENDBRANCH  14  15
ENDBRANCH   1  14
TORSDOF 9
ENDMDL
