MODEL 1
REMARK VINA RESULT:      -8.1      0.000      0.000
REMARK  Name = 17513
REMARK  7 active torsions:
REMARK  status: ('A' for Active; 'I' for Inactive)
REMARK    1  A    between atoms: N_1  and  C1*_8
REMARK    2  A    between atoms: C_3  and  N_23
REMARK    3  A    between atoms: C_5  and  C_20
REMARK    4  A    between atoms: C2*_7  and  O2*_11
REMARK    5  A    between atoms: C3*_9  and  O3*_13
REMARK    6  A    between atoms: C4*_10  and  C5*_15
REMARK    7  A    between atoms: C5*_15  and  O5*_16
REMARK                            x       y       z     vdW  Elec       q    Type
REMARK                         _______ _______ _______ _____ _____    ______ ____
ROOT
ATOM      1  N   UNL     1      35.417 -19.525 -20.744  0.00  0.00    -0.211 NA
ATOM      2  N   UNL     1      36.008 -21.362 -19.639  0.00  0.00    -0.249 NA
ATOM      3  C   UNL     1      34.253 -20.184 -20.458  0.00  0.00    +0.161 C 
ATOM      4  C   UNL     1      36.442 -20.272 -20.230  0.00  0.00    +0.204 C 
ATOM      5  C   UNL     1      34.643 -21.314 -19.777  0.00  0.00    +0.138 C 
ENDROOT
BRANCH   1   8
ATOM      6  O4* UNL     1      35.150 -17.170 -20.611  0.00  0.00    -0.336 OA
ATOM      7  C2* UNL     1      34.727 -18.157 -22.722  0.00  0.00    +0.183 C 
ATOM      8  C1* UNL     1      35.566 -18.259 -21.458  0.00  0.00    +0.209 C 
ATOM      9  C3* UNL     1      34.575 -16.655 -22.863  0.00  0.00    +0.171 C 
ATOM     10  C4* UNL     1      34.429 -16.205 -21.412  0.00  0.00    +0.175 C 
BRANCH   7  11
ATOM     11  O2* UNL     1      35.368 -18.754 -23.831  0.00  0.00    -0.378 OA
ATOM     12  H2* UNL     1      36.317 -18.552 -23.802  0.00  0.00    +0.211 HD
ENDBRANCH   7  11
BRANCH   9  13
ATOM     13  O3* UNL     1      35.778 -16.103 -23.397  0.00  0.00    -0.379 OA
ATOM     14  H3* UNL     1      35.792 -15.146 -23.238  0.00  0.00    +0.211 HD
ENDBRANCH   9  13
BRANCH  10  15
ATOM     15  C5* UNL     1      32.981 -16.177 -20.942  0.00  0.00    +0.169 C 
BRANCH  15  16
ATOM     16  O5* UNL     1      32.288 -15.176 -21.666  0.00  0.00    -0.379 OA
ATOM     17  H5* UNL     1      32.800 -14.936 -22.455  0.00  0.00    +0.211 HD
ENDBRANCH  15  16
ENDBRANCH  10  15
ENDBRANCH   1   8
BRANCH   5  20
ATOM     18  O   UNL     1      34.058 -23.556 -19.308  0.00  0.00    -0.269 OA
ATOM     19  N   UNL     1      32.593 -21.939 -18.651  0.00  0.00    -0.324 N 
ATOM     20  C   UNL     1      33.785 -22.338 -19.260  0.00  0.00    +0.259 C 
ATOM     21  H   UNL     1      31.978 -22.615 -18.284  0.00  0.00    +0.145 HD
ATOM     22  H   UNL     1      32.367 -20.982 -18.589  0.00  0.00    +0.145 HD
ENDBRANCH   5  20
BRANCH   3  23
ATOM     23  N   UNL     1      33.050 -19.703 -20.833  0.00  0.00    -0.305 NA
ATOM     24  H   UNL     1      32.245 -20.264 -20.743  0.00  0.00    +0.120 HD
ATOM     25  H   UNL     1      32.976 -18.791 -21.197  0.00  0.00    +0.120 HD
ENDBRANCH   3  23
TORSDOF 7
ENDMDL
MODEL 2
REMARK VINA RESULT:      -8.0      6.669      9.629
REMARK  Name = 17513
REMARK  7 active torsions:
REMARK  status: ('A' for Active; 'I' for Inactive)
REMARK    1  A    between atoms: N_1  and  C1*_8
REMARK    2  A    between atoms: C_3  and  N_23
REMARK    3  A    between atoms: C_5  and  C_20
REMARK    4  A    between atoms: C2*_7  and  O2*_11
REMARK    5  A    between atoms: C3*_9  and  O3*_13
REMARK    6  A    between atoms: C4*_10  and  C5*_15
REMARK    7  A    between atoms: C5*_15  and  O5*_16
REMARK                            x       y       z     vdW  Elec       q    Type
REMARK                         _______ _______ _______ _____ _____    ______ ____
ROOT
ATOM      1  N   UNL     1      35.431 -23.319 -14.668  0.00  0.00    -0.211 NA
ATOM      2  N   UNL     1      35.273 -23.135 -16.879  0.00  0.00    -0.249 NA
ATOM      3  C   UNL     1      34.093 -23.262 -14.948  0.00  0.00    +0.161 C 
ATOM      4  C   UNL     1      36.098 -23.240 -15.861  0.00  0.00    +0.204 C 
ATOM      5  C   UNL     1      34.022 -23.148 -16.317  0.00  0.00    +0.138 C 
ENDROOT
BRANCH   1   8
ATOM      6  O4* UNL     1      37.477 -23.222 -13.470  0.00  0.00    -0.336 OA
ATOM      7  C2* UNL     1      35.894 -24.813 -12.715  0.00  0.00    +0.183 C 
ATOM      8  C1* UNL     1      36.058 -23.444 -13.354  0.00  0.00    +0.209 C 
ATOM      9  C3* UNL     1      37.089 -24.858 -11.784  0.00  0.00    +0.171 C 
ATOM     10  C4* UNL     1      38.166 -24.154 -12.603  0.00  0.00    +0.175 C 
BRANCH   7  11
ATOM     11  O2* UNL     1      34.660 -24.935 -12.037  0.00  0.00    -0.378 OA
ATOM     12  H2* UNL     1      33.970 -25.200 -12.667  0.00  0.00    +0.211 HD
ENDBRANCH   7  11
BRANCH   9  13
ATOM     13  O3* UNL     1      36.814 -24.079 -10.620  0.00  0.00    -0.379 OA
ATOM     14  H3* UNL     1      36.512 -24.662  -9.905  0.00  0.00    +0.211 HD
ENDBRANCH   9  13
BRANCH  10  15
ATOM     15  C5* UNL     1      38.972 -25.111 -13.472  0.00  0.00    +0.169 C 
BRANCH  15  16
ATOM     16  O5* UNL     1      39.213 -24.492 -14.723  0.00  0.00    -0.379 OA
ATOM     17  H5* UNL     1      40.165 -24.339 -14.830  0.00  0.00    +0.211 HD
ENDBRANCH  15  16
ENDBRANCH  10  15
ENDBRANCH   1   8
BRANCH   5  20
ATOM     18  O   UNL     1      31.685 -23.278 -16.653  0.00  0.00    -0.269 OA
ATOM     19  N   UNL     1      32.960 -22.660 -18.437  0.00  0.00    -0.324 N 
ATOM     20  C   UNL     1      32.828 -23.051 -17.103  0.00  0.00    +0.259 C 
ATOM     21  H   UNL     1      32.162 -22.582 -19.009  0.00  0.00    +0.145 HD
ATOM     22  H   UNL     1      33.851 -22.461 -18.807  0.00  0.00    +0.145 HD
ENDBRANCH   5  20
BRANCH   3  23
ATOM     23  N   UNL     1      33.159 -23.316 -13.977  0.00  0.00    -0.305 NA
ATOM     24  H   UNL     1      33.286 -22.809 -13.142  0.00  0.00    +0.120 HD
ATOM     25  H   UNL     1      32.349 -23.864 -14.102  0.00  0.00    +0.120 HD
ENDBRANCH   3  23
TORSDOF 7
ENDMDL
MODEL 3
REMARK VINA RESULT:      -7.8      7.846      9.710
REMARK  Name = 17513
REMARK  7 active torsions:
REMARK  status: ('A' for Active; 'I' for Inactive)
REMARK    1  A    between atoms: N_1  and  C1*_8
REMARK    2  A    between atoms: C_3  and  N_23
REMARK    3  A    between atoms: C_5  and  C_20
REMARK    4  A    between atoms: C2*_7  and  O2*_11
REMARK    5  A    between atoms: C3*_9  and  O3*_13
REMARK    6  A    between atoms: C4*_10  and  C5*_15
REMARK    7  A    between atoms: C5*_15  and  O5*_16
REMARK                            x       y       z     vdW  Elec       q    Type
REMARK                         _______ _______ _______ _____ _____    ______ ____
ROOT
ATOM      1  N   UNL     1      34.557 -24.302 -14.691  0.00  0.00    -0.211 NA
ATOM      2  N   UNL     1      33.614 -23.063 -16.279  0.00  0.00    -0.249 NA
ATOM      3  C   UNL     1      33.220 -24.272 -14.402  0.00  0.00    +0.161 C 
ATOM      4  C   UNL     1      34.743 -23.562 -15.828  0.00  0.00    +0.204 C 
ATOM      5  C   UNL     1      32.661 -23.502 -15.396  0.00  0.00    +0.138 C 
ENDROOT
BRANCH   1   8
ATOM      6  O4* UNL     1      35.557 -24.597 -12.559  0.00  0.00    -0.336 OA
ATOM      7  C2* UNL     1      37.017 -24.670 -14.422  0.00  0.00    +0.183 C 
ATOM      8  C1* UNL     1      35.610 -24.989 -13.944  0.00  0.00    +0.209 C 
ATOM      9  C3* UNL     1      37.830 -24.949 -13.173  0.00  0.00    +0.171 C 
ATOM     10  C4* UNL     1      36.909 -24.445 -12.066  0.00  0.00    +0.175 C 
BRANCH   7  11
ATOM     11  O2* UNL     1      37.397 -25.475 -15.520  0.00  0.00    -0.378 OA
ATOM     12  H2* UNL     1      38.253 -25.172 -15.861  0.00  0.00    +0.211 HD
ENDBRANCH   7  11
BRANCH   9  13
ATOM     13  O3* UNL     1      38.002 -26.358 -13.022  0.00  0.00    -0.379 OA
ATOM     14  H3* UNL     1      37.977 -26.587 -12.080  0.00  0.00    +0.211 HD
ENDBRANCH   9  13
BRANCH  10  15
ATOM     15  C5* UNL     1      37.135 -22.978 -11.728  0.00  0.00    +0.169 C 
BRANCH  15  16
ATOM     16  O5* UNL     1      38.528 -22.746 -11.622  0.00  0.00    -0.379 OA
ATOM     17  H5* UNL     1      38.969 -23.559 -11.329  0.00  0.00    +0.211 HD
ENDBRANCH  15  16
ENDBRANCH  10  15
ENDBRANCH   1   8
BRANCH   5  20
ATOM     18  O   UNL     1      30.453 -23.217 -14.597  0.00  0.00    -0.269 OA
ATOM     19  N   UNL     1      30.834 -22.745 -16.794  0.00  0.00    -0.324 N 
ATOM     20  C   UNL     1      31.275 -23.168 -15.538  0.00  0.00    +0.259 C 
ATOM     21  H   UNL     1      29.888 -22.507 -16.930  0.00  0.00    +0.145 HD
ATOM     22  H   UNL     1      31.470 -22.684 -17.544  0.00  0.00    +0.145 HD
ENDBRANCH   5  20
BRANCH   3  23
ATOM     23  N   UNL     1      32.706 -24.911 -13.331  0.00  0.00    -0.305 NA
ATOM     24  H   UNL     1      32.167 -25.725 -13.456  0.00  0.00    +0.120 HD
ATOM     25  H   UNL     1      32.871 -24.563 -12.424  0.00  0.00    +0.120 HD
ENDBRANCH   3  23
TORSDOF 7
ENDMDL
MODEL 4
REMARK VINA RESULT:      -7.7      5.679      9.287
REMARK  Name = 17513
REMARK  7 active torsions:
REMARK  status: ('A' for Active; 'I' for Inactive)
REMARK    1  A    between atoms: N_1  and  C1*_8
REMARK    2  A    between atoms: C_3  and  N_23
REMARK    3  A    between atoms: C_5  and  C_20
REMARK    4  A    between atoms: C2*_7  and  O2*_11
REMARK    5  A    between atoms: C3*_9  and  O3*_13
REMARK    6  A    between atoms: C4*_10  and  C5*_15
REMARK    7  A    between atoms: C5*_15  and  O5*_16
REMARK                            x       y       z     vdW  Elec       q    Type
REMARK                         _______ _______ _______ _____ _____    ______ ____
ROOT
ATOM      1  N   UNL     1      35.722 -23.225 -15.086  0.00  0.00    -0.211 NA
ATOM      2  N   UNL     1      33.712 -23.593 -15.967  0.00  0.00    -0.249 NA
ATOM      3  C   UNL     1      35.778 -22.750 -16.368  0.00  0.00    +0.161 C 
ATOM      4  C   UNL     1      34.460 -23.721 -14.893  0.00  0.00    +0.204 C 
ATOM      5  C   UNL     1      34.528 -22.989 -16.890  0.00  0.00    +0.138 C 
ENDROOT
BRANCH   1   8
ATOM      6  O4* UNL     1      37.973 -23.827 -14.640  0.00  0.00    -0.336 OA
ATOM      7  C2* UNL     1      36.463 -23.991 -12.823  0.00  0.00    +0.183 C 
ATOM      8  C1* UNL     1      36.790 -23.216 -14.089  0.00  0.00    +0.209 C 
ATOM      9  C3* UNL     1      37.849 -24.345 -12.319  0.00  0.00    +0.171 C 
ATOM     10  C4* UNL     1      38.602 -24.632 -13.614  0.00  0.00    +0.175 C 
BRANCH   7  11
ATOM     11  O2* UNL     1      35.723 -23.212 -11.904  0.00  0.00    -0.378 OA
ATOM     12  H2* UNL     1      35.090 -23.780 -11.436  0.00  0.00    +0.211 HD
ENDBRANCH   7  11
BRANCH   9  13
ATOM     13  O3* UNL     1      38.432 -23.205 -11.691  0.00  0.00    -0.379 OA
ATOM     14  H3* UNL     1      37.729 -22.630 -11.349  0.00  0.00    +0.211 HD
ENDBRANCH   9  13
BRANCH  10  15
ATOM     15  C5* UNL     1      38.523 -26.093 -14.036  0.00  0.00    +0.169 C 
BRANCH  15  16
ATOM     16  O5* UNL     1      38.260 -26.150 -15.427  0.00  0.00    -0.379 OA
ATOM     17  H5* UNL     1      38.515 -25.309 -15.838  0.00  0.00    +0.211 HD
ENDBRANCH  15  16
ENDBRANCH  10  15
ENDBRANCH   1   8
BRANCH   5  20
ATOM     18  O   UNL     1      34.839 -22.638 -19.208  0.00  0.00    -0.269 OA
ATOM     19  N   UNL     1      32.722 -22.409 -18.396  0.00  0.00    -0.324 N 
ATOM     20  C   UNL     1      34.082 -22.671 -18.214  0.00  0.00    +0.259 C 
ATOM     21  H   UNL     1      32.379 -22.187 -19.291  0.00  0.00    +0.145 HD
ATOM     22  H   UNL     1      32.106 -22.446 -17.628  0.00  0.00    +0.145 HD
ENDBRANCH   5  20
BRANCH   3  23
ATOM     23  N   UNL     1      36.898 -22.192 -16.873  0.00  0.00    -0.305 NA
ATOM     24  H   UNL     1      37.301 -21.411 -16.431  0.00  0.00    +0.120 HD
ATOM     25  H   UNL     1      37.312 -22.567 -17.685  0.00  0.00    +0.120 HD
ENDBRANCH   3  23
TORSDOF 7
ENDMDL
MODEL 5
REMARK VINA RESULT:      -7.7      6.612      9.360
REMARK  Name = 17513
REMARK  7 active torsions:
REMARK  status: ('A' for Active; 'I' for Inactive)
REMARK    1  A    between atoms: N_1  and  C1*_8
REMARK    2  A    between atoms: C_3  and  N_23
REMARK    3  A    between atoms: C_5  and  C_20
REMARK    4  A    between atoms: C2*_7  and  O2*_11
REMARK    5  A    between atoms: C3*_9  and  O3*_13
REMARK    6  A    between atoms: C4*_10  and  C5*_15
REMARK    7  A    between atoms: C5*_15  and  O5*_16
REMARK                            x       y       z     vdW  Elec       q    Type
REMARK                         _______ _______ _______ _____ _____    ______ ____
ROOT
ATOM      1  N   UNL     1      34.774 -23.662 -14.963  0.00  0.00    -0.211 NA
ATOM      2  N   UNL     1      32.551 -23.652 -14.885  0.00  0.00    -0.249 NA
ATOM      3  C   UNL     1      34.356 -23.193 -16.178  0.00  0.00    +0.161 C 
ATOM      4  C   UNL     1      33.652 -23.923 -14.222  0.00  0.00    +0.204 C 
ATOM      5  C   UNL     1      32.982 -23.197 -16.106  0.00  0.00    +0.138 C 
ENDROOT
BRANCH   1   8
ATOM      6  O4* UNL     1      36.844 -24.722 -15.433  0.00  0.00    -0.336 OA
ATOM      7  C2* UNL     1      36.270 -24.508 -13.145  0.00  0.00    +0.183 C 
ATOM      8  C1* UNL     1      36.151 -23.856 -14.513  0.00  0.00    +0.209 C 
ATOM      9  C3* UNL     1      37.647 -25.138 -13.230  0.00  0.00    +0.171 C 
ATOM     10  C4* UNL     1      37.697 -25.615 -14.678  0.00  0.00    +0.175 C 
BRANCH   7  11
ATOM     11  O2* UNL     1      36.158 -23.564 -12.099  0.00  0.00    -0.378 OA
ATOM     12  H2* UNL     1      35.772 -23.992 -11.318  0.00  0.00    +0.211 HD
ENDBRANCH   7  11
BRANCH   9  13
ATOM     13  O3* UNL     1      38.642 -24.133 -13.041  0.00  0.00    -0.379 OA
ATOM     14  H3* UNL     1      39.432 -24.532 -12.642  0.00  0.00    +0.211 HD
ENDBRANCH   9  13
BRANCH  10  15
ATOM     15  C5* UNL     1      37.178 -27.036 -14.854  0.00  0.00    +0.169 C 
BRANCH  15  16
ATOM     16  O5* UNL     1      36.818 -27.222 -16.211  0.00  0.00    -0.379 OA
ATOM     17  H5* UNL     1      36.356 -28.069 -16.309  0.00  0.00    +0.211 HD
ENDBRANCH  15  16
ENDBRANCH  10  15
ENDBRANCH   1   8
BRANCH   5  20
ATOM     18  O   UNL     1      30.837 -22.704 -16.971  0.00  0.00    -0.269 OA
ATOM     19  N   UNL     1      32.609 -22.455 -18.381  0.00  0.00    -0.324 N 
ATOM     20  C   UNL     1      32.072 -22.791 -17.136  0.00  0.00    +0.259 C 
ATOM     21  H   UNL     1      32.015 -22.172 -19.113  0.00  0.00    +0.145 HD
ATOM     22  H   UNL     1      33.583 -22.502 -18.526  0.00  0.00    +0.145 HD
ENDBRANCH   5  20
BRANCH   3  23
ATOM     23  N   UNL     1      35.228 -22.842 -17.145  0.00  0.00    -0.305 NA
ATOM     24  H   UNL     1      35.837 -22.082 -17.006  0.00  0.00    +0.120 HD
ATOM     25  H   UNL     1      35.254 -23.347 -17.991  0.00  0.00    +0.120 HD
ENDBRANCH   3  23
TORSDOF 7
ENDMDL
MODEL 6
REMARK VINA RESULT:      -7.7      6.602      8.594
REMARK  Name = 17513
REMARK  7 active torsions:
REMARK  status: ('A' for Active; 'I' for Inactive)
REMARK    1  A    between atoms: N_1  and  C1*_8
REMARK    2  A    between atoms: C_3  and  N_23
REMARK    3  A    between atoms: C_5  and  C_20
REMARK    4  A    between atoms: C2*_7  and  O2*_11
REMARK    5  A    between atoms: C3*_9  and  O3*_13
REMARK    6  A    between atoms: C4*_10  and  C5*_15
REMARK    7  A    between atoms: C5*_15  and  O5*_16
REMARK                            x       y       z     vdW  Elec       q    Type
REMARK                         _______ _______ _______ _____ _____    ______ ____
ROOT
ATOM      1  N   UNL     1      33.692 -23.440 -15.663  0.00  0.00    -0.211 NA
ATOM      2  N   UNL     1      34.867 -22.705 -17.403  0.00  0.00    -0.249 NA
ATOM      3  C   UNL     1      34.924 -23.106 -15.172  0.00  0.00    +0.161 C 
ATOM      4  C   UNL     1      33.708 -23.181 -17.008  0.00  0.00    +0.204 C 
ATOM      5  C   UNL     1      35.631 -22.656 -16.264  0.00  0.00    +0.138 C 
ENDROOT
BRANCH   1   8
ATOM      6  O4* UNL     1      31.472 -24.261 -15.822  0.00  0.00    -0.336 OA
ATOM      7  C2* UNL     1      31.995 -23.021 -13.874  0.00  0.00    +0.183 C 
ATOM      8  C1* UNL     1      32.555 -23.974 -14.917  0.00  0.00    +0.209 C 
ATOM      9  C3* UNL     1      30.566 -23.513 -13.751  0.00  0.00    +0.171 C 
ATOM     10  C4* UNL     1      30.225 -23.883 -15.191  0.00  0.00    +0.175 C 
BRANCH   7  11
ATOM     11  O2* UNL     1      32.710 -23.090 -12.657  0.00  0.00    -0.378 OA
ATOM     12  H2* UNL     1      33.461 -23.697 -12.758  0.00  0.00    +0.211 HD
ENDBRANCH   7  11
BRANCH   9  13
ATOM     13  O3* UNL     1      30.537 -24.695 -12.953  0.00  0.00    -0.379 OA
ATOM     14  H3* UNL     1      31.052 -24.550 -12.143  0.00  0.00    +0.211 HD
ENDBRANCH   9  13
BRANCH  10  15
ATOM     15  C5* UNL     1      29.622 -22.727 -15.976  0.00  0.00    +0.169 C 
BRANCH  15  16
ATOM     16  O5* UNL     1      30.406 -22.507 -17.135  0.00  0.00    -0.379 OA
ATOM     17  H5* UNL     1      31.280 -22.175 -16.875  0.00  0.00    +0.211 HD
ENDBRANCH  15  16
ENDBRANCH  10  15
ENDBRANCH   1   8
BRANCH   5  20
ATOM     18  O   UNL     1      37.933 -22.813 -15.748  0.00  0.00    -0.269 OA
ATOM     19  N   UNL     1      37.251 -20.978 -16.914  0.00  0.00    -0.324 N 
ATOM     20  C   UNL     1      36.985 -22.187 -16.269  0.00  0.00    +0.259 C 
ATOM     21  H   UNL     1      38.169 -20.624 -16.938  0.00  0.00    +0.145 HD
ATOM     22  H   UNL     1      36.519 -20.477 -17.345  0.00  0.00    +0.145 HD
ENDBRANCH   5  20
BRANCH   3  23
ATOM     23  N   UNL     1      35.234 -23.246 -13.867  0.00  0.00    -0.305 NA
ATOM     24  H   UNL     1      34.723 -23.871 -13.304  0.00  0.00    +0.120 HD
ATOM     25  H   UNL     1      35.972 -22.723 -13.477  0.00  0.00    +0.120 HD
ENDBRANCH   3  23
TORSDOF 7
ENDMDL
MODEL 7
REMARK VINA RESULT:      -7.6      6.308      9.420
REMARK  Name = 17513
REMARK  7 active torsions:
REMARK  status: ('A' for Active; 'I' for Inactive)
REMARK    1  A    between atoms: N_1  and  C1*_8
REMARK    2  A    between atoms: C_3  and  N_23
REMARK    3  A    between atoms: C_5  and  C_20
REMARK    4  A    between atoms: C2*_7  and  O2*_11
REMARK    5  A    between atoms: C3*_9  and  O3*_13
REMARK    6  A    between atoms: C4*_10  and  C5*_15
REMARK    7  A    between atoms: C5*_15  and  O5*_16
REMARK                            x       y       z     vdW  Elec       q    Type
REMARK                         _______ _______ _______ _____ _____    ______ ____
ROOT
ATOM      1  N   UNL     1      34.629 -24.027 -14.773  0.00  0.00    -0.211 NA
ATOM      2  N   UNL     1      32.417 -23.807 -14.847  0.00  0.00    -0.249 NA
ATOM      3  C   UNL     1      34.343 -23.496 -16.000  0.00  0.00    +0.161 C 
ATOM      4  C   UNL     1      33.439 -24.194 -14.117  0.00  0.00    +0.204 C 
ATOM      5  C   UNL     1      32.974 -23.370 -16.022  0.00  0.00    +0.138 C 
ENDROOT
BRANCH   1   8
ATOM      6  O4* UNL     1      35.798 -25.161 -13.047  0.00  0.00    -0.336 OA
ATOM      7  C2* UNL     1      36.775 -23.151 -13.831  0.00  0.00    +0.183 C 
ATOM      8  C1* UNL     1      35.947 -24.360 -14.235  0.00  0.00    +0.209 C 
ATOM      9  C3* UNL     1      37.702 -23.754 -12.793  0.00  0.00    +0.171 C 
ATOM     10  C4* UNL     1      36.789 -24.744 -12.077  0.00  0.00    +0.175 C 
BRANCH   7  11
ATOM     11  O2* UNL     1      37.466 -22.593 -14.930  0.00  0.00    -0.378 OA
ATOM     12  H2* UNL     1      36.871 -22.549 -15.696  0.00  0.00    +0.211 HD
ENDBRANCH   7  11
BRANCH   9  13
ATOM     13  O3* UNL     1      38.743 -24.478 -13.448  0.00  0.00    -0.379 OA
ATOM     14  H3* UNL     1      39.596 -24.254 -13.044  0.00  0.00    +0.211 HD
ENDBRANCH   9  13
BRANCH  10  15
ATOM     15  C5* UNL     1      36.065 -24.131 -10.886  0.00  0.00    +0.169 C 
BRANCH  15  16
ATOM     16  O5* UNL     1      35.256 -25.127 -10.286  0.00  0.00    -0.379 OA
ATOM     17  H5* UNL     1      35.769 -25.945 -10.190  0.00  0.00    +0.211 HD
ENDBRANCH  15  16
ENDBRANCH  10  15
ENDBRANCH   1   8
BRANCH   5  20
ATOM     18  O   UNL     1      32.645 -22.588 -18.229  0.00  0.00    -0.269 OA
ATOM     19  N   UNL     1      30.814 -22.681 -16.875  0.00  0.00    -0.324 N 
ATOM     20  C   UNL     1      32.181 -22.859 -17.101  0.00  0.00    +0.259 C 
ATOM     21  H   UNL     1      30.238 -22.332 -17.593  0.00  0.00    +0.145 HD
ATOM     22  H   UNL     1      30.427 -22.904 -15.997  0.00  0.00    +0.145 HD
ENDBRANCH   5  20
BRANCH   3  23
ATOM     23  N   UNL     1      35.310 -23.210 -16.897  0.00  0.00    -0.305 NA
ATOM     24  H   UNL     1      35.306 -23.643 -17.781  0.00  0.00    +0.120 HD
ATOM     25  H   UNL     1      36.021 -22.568 -16.666  0.00  0.00    +0.120 HD
ENDBRANCH   3  23
TORSDOF 7
ENDMDL
MODEL 8
REMARK VINA RESULT:      -7.6      5.854      8.546
REMARK  Name = 17513
REMARK  7 active torsions:
REMARK  status: ('A' for Active; 'I' for Inactive)
REMARK    1  A    between atoms: N_1  and  C1*_8
REMARK    2  A    between atoms: C_3  and  N_23
REMARK    3  A    between atoms: C_5  and  C_20
REMARK    4  A    between atoms: C2*_7  and  O2*_11
REMARK    5  A    between atoms: C3*_9  and  O3*_13
REMARK    6  A    between atoms: C4*_10  and  C5*_15
REMARK    7  A    between atoms: C5*_15  and  O5*_16
REMARK                            x       y       z     vdW  Elec       q    Type
REMARK                         _______ _______ _______ _____ _____    ______ ____
ROOT
ATOM      1  N   UNL     1      35.297 -23.638 -14.531  0.00  0.00    -0.211 NA
ATOM      2  N   UNL     1      37.440 -23.110 -14.253  0.00  0.00    -0.249 NA
ATOM      3  C   UNL     1      35.514 -23.639 -13.180  0.00  0.00    +0.161 C 
ATOM      4  C   UNL     1      36.484 -23.314 -15.132  0.00  0.00    +0.204 C 
ATOM      5  C   UNL     1      36.842 -23.311 -13.034  0.00  0.00    +0.138 C 
ENDROOT
BRANCH   1   8
ATOM      6  O4* UNL     1      34.315 -24.207 -16.614  0.00  0.00    -0.336 OA
ATOM      7  C2* UNL     1      33.051 -22.773 -15.216  0.00  0.00    +0.183 C 
ATOM      8  C1* UNL     1      34.044 -23.924 -15.228  0.00  0.00    +0.209 C 
ATOM      9  C3* UNL     1      32.228 -23.072 -16.453  0.00  0.00    +0.171 C 
ATOM     10  C4* UNL     1      33.279 -23.600 -17.424  0.00  0.00    +0.175 C 
BRANCH   7  11
ATOM     11  O2* UNL     1      32.281 -22.753 -14.031  0.00  0.00    -0.378 OA
ATOM     12  H2* UNL     1      32.305 -21.863 -13.645  0.00  0.00    +0.211 HD
ENDBRANCH   7  11
BRANCH   9  13
ATOM     13  O3* UNL     1      31.300 -24.118 -16.166  0.00  0.00    -0.379 OA
ATOM     14  H3* UNL     1      31.440 -24.433 -15.259  0.00  0.00    +0.211 HD
ENDBRANCH   9  13
BRANCH  10  15
ATOM     15  C5* UNL     1      33.913 -22.503 -18.268  0.00  0.00    +0.169 C 
BRANCH  15  16
ATOM     16  O5* UNL     1      33.010 -22.149 -19.301  0.00  0.00    -0.379 OA
ATOM     17  H5* UNL     1      33.356 -21.380 -19.783  0.00  0.00    +0.211 HD
ENDBRANCH  15  16
ENDBRANCH  10  15
ENDBRANCH   1   8
BRANCH   5  20
ATOM     18  O   UNL     1      38.757 -22.836 -11.731  0.00  0.00    -0.269 OA
ATOM     19  N   UNL     1      36.864 -23.440 -10.616  0.00  0.00    -0.324 N 
ATOM     20  C   UNL     1      37.559 -23.183 -11.800  0.00  0.00    +0.259 C 
ATOM     21  H   UNL     1      37.323 -23.363  -9.749  0.00  0.00    +0.145 HD
ATOM     22  H   UNL     1      35.914 -23.700 -10.649  0.00  0.00    +0.145 HD
ENDBRANCH   5  20
BRANCH   3  23
ATOM     23  N   UNL     1      34.532 -23.923 -12.300  0.00  0.00    -0.305 NA
ATOM     24  H   UNL     1      34.352 -24.858 -12.048  0.00  0.00    +0.120 HD
ATOM     25  H   UNL     1      33.995 -23.195 -11.909  0.00  0.00    +0.120 HD
ENDBRANCH   3  23
TORSDOF 7
ENDMDL
MODEL 9
REMARK VINA RESULT:      -7.5      7.454      9.153
REMARK  Name = 17513
REMARK  7 active torsions:
REMARK  status: ('A' for Active; 'I' for Inactive)
REMARK    1  A    between atoms: N_1  and  C1*_8
REMARK    2  A    between atoms: C_3  and  N_23
REMARK    3  A    between atoms: C_5  and  C_20
REMARK    4  A    between atoms: C2*_7  and  O2*_11
REMARK    5  A    between atoms: C3*_9  and  O3*_13
REMARK    6  A    between atoms: C4*_10  and  C5*_15
REMARK    7  A    between atoms: C5*_15  and  O5*_16
REMARK                            x       y       z     vdW  Elec       q    Type
REMARK                         _______ _______ _______ _____ _____    ______ ____
ROOT
ATOM      1  N   UNL     1      33.683 -24.138 -14.775  0.00  0.00    -0.211 NA
ATOM      2  N   UNL     1      32.154 -23.335 -16.177  0.00  0.00    -0.249 NA
ATOM      3  C   UNL     1      32.469 -24.483 -14.248  0.00  0.00    +0.161 C 
ATOM      4  C   UNL     1      33.440 -23.450 -15.934  0.00  0.00    +0.204 C 
ATOM      5  C   UNL     1      31.542 -23.977 -15.130  0.00  0.00    +0.138 C 
ENDROOT
BRANCH   1   8
ATOM      6  O4* UNL     1      35.718 -23.207 -13.987  0.00  0.00    -0.336 OA
ATOM      7  C2* UNL     1      35.885 -25.265 -15.147  0.00  0.00    +0.183 C 
ATOM      8  C1* UNL     1      35.005 -24.435 -14.227  0.00  0.00    +0.209 C 
ATOM      9  C3* UNL     1      37.271 -24.879 -14.668  0.00  0.00    +0.171 C 
ATOM     10  C4* UNL     1      37.105 -23.395 -14.356  0.00  0.00    +0.175 C 
BRANCH   7  11
ATOM     11  O2* UNL     1      35.623 -26.648 -15.023  0.00  0.00    -0.378 OA
ATOM     12  H2* UNL     1      36.257 -27.042 -14.402  0.00  0.00    +0.211 HD
ENDBRANCH   7  11
BRANCH   9  13
ATOM     13  O3* UNL     1      37.566 -25.573 -13.457  0.00  0.00    -0.379 OA
ATOM     14  H3* UNL     1      37.020 -25.217 -12.739  0.00  0.00    +0.211 HD
ENDBRANCH   9  13
BRANCH  10  15
ATOM     15  C5* UNL     1      37.410 -22.499 -15.549  0.00  0.00    +0.169 C 
BRANCH  15  16
ATOM     16  O5* UNL     1      38.502 -23.051 -16.263  0.00  0.00    -0.379 OA
ATOM     17  H5* UNL     1      39.257 -23.162 -15.663  0.00  0.00    +0.211 HD
ENDBRANCH  15  16
ENDBRANCH  10  15
ENDBRANCH   1   8
BRANCH   5  20
ATOM     18  O   UNL     1      29.330 -23.216 -15.471  0.00  0.00    -0.269 OA
ATOM     19  N   UNL     1      29.591 -25.207 -14.394  0.00  0.00    -0.324 N 
ATOM     20  C   UNL     1      30.117 -24.075 -15.020  0.00  0.00    +0.259 C 
ATOM     21  H   UNL     1      28.616 -25.309 -14.300  0.00  0.00    +0.145 HD
ATOM     22  H   UNL     1      30.195 -25.903 -14.046  0.00  0.00    +0.145 HD
ENDBRANCH   5  20
BRANCH   3  23
ATOM     23  N   UNL     1      32.362 -25.175 -13.095  0.00  0.00    -0.305 NA
ATOM     24  H   UNL     1      33.000 -25.897 -12.894  0.00  0.00    +0.120 HD
ATOM     25  H   UNL     1      31.646 -24.958 -12.454  0.00  0.00    +0.120 HD
ENDBRANCH   3  23
TORSDOF 7
ENDMDL
