MODEL 1
REMARK VINA RESULT:      -8.7      0.000      0.000
REMARK  Name = 71571306
REMARK  4 active torsions:
REMARK  status: ('A' for Active; 'I' for Inactive)
REMARK    1  A    between atoms: N_3  and  C_19
REMARK    2  A    between atoms: C_5  and  C_11
REMARK    3  A    between atoms: C_12  and  O_17
REMARK    4  A    between atoms: C_19  and  C_22
REMARK                            x       y       z     vdW  Elec       q    Type
REMARK                         _______ _______ _______ _____ _____    ______ ____
ROOT
ATOM      1  S   UNL     1      35.457 -17.198 -23.086  0.00  0.00    -0.018 S 
ATOM      2  O   UNL     1      32.789 -15.770 -26.979  0.00  0.00    -0.270 OA
ATOM      3  N   UNL     1      34.180 -14.744 -23.298  0.00  0.00    -0.261 N 
ATOM      4  N   UNL     1      34.005 -16.294 -25.086  0.00  0.00    -0.263 N 
ATOM      5  C   UNL     1      33.380 -13.864 -24.042  0.00  0.00    +0.061 C 
ATOM      6  C   UNL     1      32.905 -14.169 -25.259  0.00  0.00    +0.073 C 
ATOM      7  C   UNL     1      34.516 -16.012 -23.822  0.00  0.00    +0.145 C 
ATOM      8  C   UNL     1      33.215 -15.473 -25.867  0.00  0.00    +0.252 C 
ATOM      9  H   UNL     1      34.231 -17.174 -25.465  0.00  0.00    +0.157 HD
ENDROOT
BRANCH   5  11
ATOM     10 CL   UNL     1      30.569 -11.111 -20.706  0.00  0.00    -0.082 Cl
ATOM     11  C   UNL     1      33.022 -12.551 -23.520  0.00  0.00    +0.049 C 
ATOM     12  C   UNL     1      33.601 -11.391 -24.035  0.00  0.00    +0.140 C 
ATOM     13  C   UNL     1      32.086 -12.465 -22.490  0.00  0.00    +0.016 C 
ATOM     14  C   UNL     1      33.243 -10.145 -23.520  0.00  0.00    +0.038 C 
ATOM     15  C   UNL     1      31.727 -11.219 -21.976  0.00  0.00    +0.058 C 
ATOM     16  C   UNL     1      32.306 -10.059 -22.491  0.00  0.00    +0.015 C 
BRANCH  12  17
ATOM     17  O   UNL     1      34.520 -11.446 -25.041  0.00  0.00    -0.471 OA
ATOM     18  C   UNL     1      35.297 -10.274 -25.272  0.00  0.00    +0.252 C 
ENDBRANCH  12  17
ENDBRANCH   5  11
BRANCH   3  19
ATOM     19  C   UNL     1      34.639 -14.290 -21.973  0.00  0.00    +0.182 C 
BRANCH  19  22
ATOM     20  O   UNL     1      34.803 -15.766 -20.059  0.00  0.00    -0.273 OA
ATOM     21  N   UNL     1      32.743 -15.407 -21.014  0.00  0.00    -0.327 N 
ATOM     22  C   UNL     1      34.103 -15.213 -20.904  0.00  0.00    +0.240 C 
ATOM     23  H   UNL     1      32.274 -15.990 -20.373  0.00  0.00    +0.145 HD
ATOM     24  H   UNL     1      32.238 -14.962 -21.733  0.00  0.00    +0.145 HD
ENDBRANCH  19  22
ENDBRANCH   3  19
TORSDOF 4
ENDMDL
MODEL 2
REMARK VINA RESULT:      -8.1     12.319     14.771
REMARK  Name = 71571306
REMARK  4 active torsions:
REMARK  status: ('A' for Active; 'I' for Inactive)
REMARK    1  A    between atoms: N_3  and  C_19
REMARK    2  A    between atoms: C_5  and  C_11
REMARK    3  A    between atoms: C_12  and  O_17
REMARK    4  A    between atoms: C_19  and  C_22
REMARK                            x       y       z     vdW  Elec       q    Type
REMARK                         _______ _______ _______ _____ _____    ______ ____
ROOT
ATOM      1  S   UNL     1      39.810 -25.451 -13.538  0.00  0.00    -0.018 S 
ATOM      2  O   UNL     1      37.136 -22.795 -10.358  0.00  0.00    -0.270 OA
ATOM      3  N   UNL     1      37.215 -24.587 -14.008  0.00  0.00    -0.261 N 
ATOM      4  N   UNL     1      38.261 -24.035 -11.950  0.00  0.00    -0.263 N 
ATOM      5  C   UNL     1      36.079 -23.895 -13.564  0.00  0.00    +0.061 C 
ATOM      6  C   UNL     1      36.018 -23.292 -12.367  0.00  0.00    +0.073 C 
ATOM      7  C   UNL     1      38.360 -24.671 -13.185  0.00  0.00    +0.145 C 
ATOM      8  C   UNL     1      37.174 -23.340 -11.456  0.00  0.00    +0.252 C 
ATOM      9  H   UNL     1      39.051 -24.085 -11.365  0.00  0.00    +0.157 HD
ENDROOT
BRANCH   5  11
ATOM     10 CL   UNL     1      31.117 -25.128 -14.249  0.00  0.00    -0.082 Cl
ATOM     11  C   UNL     1      34.887 -23.796 -14.397  0.00  0.00    +0.049 C 
ATOM     12  C   UNL     1      34.906 -23.082 -15.596  0.00  0.00    +0.140 C 
ATOM     13  C   UNL     1      33.716 -24.427 -13.980  0.00  0.00    +0.016 C 
ATOM     14  C   UNL     1      33.753 -23.000 -16.377  0.00  0.00    +0.038 C 
ATOM     15  C   UNL     1      32.563 -24.346 -14.762  0.00  0.00    +0.058 C 
ATOM     16  C   UNL     1      32.582 -23.632 -15.960  0.00  0.00    +0.015 C 
BRANCH  12  17
ATOM     17  O   UNL     1      36.037 -22.454 -16.027  0.00  0.00    -0.471 OA
ATOM     18  C   UNL     1      36.098 -22.109 -17.408  0.00  0.00    +0.252 C 
ENDBRANCH  12  17
ENDBRANCH   5  11
BRANCH   3  19
ATOM     19  C   UNL     1      37.156 -25.205 -15.345  0.00  0.00    +0.182 C 
BRANCH  19  22
ATOM     20  O   UNL     1      36.621 -27.419 -16.169  0.00  0.00    -0.273 OA
ATOM     21  N   UNL     1      36.637 -27.052 -13.900  0.00  0.00    -0.327 N 
ATOM     22  C   UNL     1      36.797 -26.667 -15.214  0.00  0.00    +0.240 C 
ATOM     23  H   UNL     1      36.401 -27.983 -13.684  0.00  0.00    +0.145 HD
ATOM     24  H   UNL     1      36.758 -26.395 -13.176  0.00  0.00    +0.145 HD
ENDBRANCH  19  22
ENDBRANCH   3  19
TORSDOF 4
ENDMDL
MODEL 3
REMARK VINA RESULT:      -8.1     12.218     14.502
REMARK  Name = 71571306
REMARK  4 active torsions:
REMARK  status: ('A' for Active; 'I' for Inactive)
REMARK    1  A    between atoms: N_3  and  C_19
REMARK    2  A    between atoms: C_5  and  C_11
REMARK    3  A    between atoms: C_12  and  O_17
REMARK    4  A    between atoms: C_19  and  C_22
REMARK                            x       y       z     vdW  Elec       q    Type
REMARK                         _______ _______ _______ _____ _____    ______ ____
ROOT
ATOM      1  S   UNL     1      38.773 -24.992 -12.698  0.00  0.00    -0.018 S 
ATOM      2  O   UNL     1      36.934 -27.661 -16.415  0.00  0.00    -0.270 OA
ATOM      3  N   UNL     1      36.254 -24.620 -13.801  0.00  0.00    -0.261 N 
ATOM      4  N   UNL     1      37.655 -26.327 -14.672  0.00  0.00    -0.263 N 
ATOM      5  C   UNL     1      35.284 -24.998 -14.742  0.00  0.00    +0.061 C 
ATOM      6  C   UNL     1      35.475 -25.996 -15.619  0.00  0.00    +0.073 C 
ATOM      7  C   UNL     1      37.492 -25.297 -13.748  0.00  0.00    +0.145 C 
ATOM      8  C   UNL     1      36.742 -26.746 -15.621  0.00  0.00    +0.252 C 
ATOM      9  H   UNL     1      38.513 -26.808 -14.648  0.00  0.00    +0.157 HD
ENDROOT
BRANCH   5  11
ATOM     10 CL   UNL     1      30.562 -24.355 -12.768  0.00  0.00    -0.082 Cl
ATOM     11  C   UNL     1      34.000 -24.313 -14.814  0.00  0.00    +0.049 C 
ATOM     12  C   UNL     1      33.749 -23.362 -15.804  0.00  0.00    +0.140 C 
ATOM     13  C   UNL     1      33.016 -24.619 -13.875  0.00  0.00    +0.016 C 
ATOM     14  C   UNL     1      32.512 -22.719 -15.854  0.00  0.00    +0.038 C 
ATOM     15  C   UNL     1      31.779 -23.976 -13.925  0.00  0.00    +0.058 C 
ATOM     16  C   UNL     1      31.528 -23.025 -14.915  0.00  0.00    +0.015 C 
BRANCH  12  17
ATOM     17  O   UNL     1      34.693 -23.043 -16.734  0.00  0.00    -0.471 OA
ATOM     18  C   UNL     1      34.227 -22.692 -18.034  0.00  0.00    +0.252 C 
ENDBRANCH  12  17
ENDBRANCH   5  11
BRANCH   3  19
ATOM     19  C   UNL     1      35.922 -23.507 -12.893  0.00  0.00    +0.182 C 
BRANCH  19  22
ATOM     20  O   UNL     1      35.055 -24.937 -11.140  0.00  0.00    -0.273 OA
ATOM     21  N   UNL     1      36.594 -23.319 -10.596  0.00  0.00    -0.327 N 
ATOM     22  C   UNL     1      35.804 -24.023 -11.478  0.00  0.00    +0.240 C 
ATOM     23  H   UNL     1      36.604 -23.560  -9.641  0.00  0.00    +0.145 HD
ATOM     24  H   UNL     1      37.150 -22.573 -10.919  0.00  0.00    +0.145 HD
ENDBRANCH  19  22
ENDBRANCH   3  19
TORSDOF 4
ENDMDL
MODEL 4
REMARK VINA RESULT:      -7.4      3.011      4.936
REMARK  Name = 71571306
REMARK  4 active torsions:
REMARK  status: ('A' for Active; 'I' for Inactive)
REMARK    1  A    between atoms: N_3  and  C_19
REMARK    2  A    between atoms: C_5  and  C_11
REMARK    3  A    between atoms: C_12  and  O_17
REMARK    4  A    between atoms: C_19  and  C_22
REMARK                            x       y       z     vdW  Elec       q    Type
REMARK                         _______ _______ _______ _____ _____    ______ ____
ROOT
ATOM      1  S   UNL     1      31.130 -11.099 -21.131  0.00  0.00    -0.018 S 
ATOM      2  O   UNL     1      34.462  -9.741 -24.504  0.00  0.00    -0.270 OA
ATOM      3  N   UNL     1      32.534 -12.863 -22.748  0.00  0.00    -0.261 N 
ATOM      4  N   UNL     1      32.929 -10.533 -22.967  0.00  0.00    -0.263 N 
ATOM      5  C   UNL     1      33.484 -13.073 -23.759  0.00  0.00    +0.061 C 
ATOM      6  C   UNL     1      34.138 -12.067 -24.360  0.00  0.00    +0.073 C 
ATOM      7  C   UNL     1      32.232 -11.551 -22.321  0.00  0.00    +0.145 C 
ATOM      8  C   UNL     1      33.873 -10.674 -23.966  0.00  0.00    +0.252 C 
ATOM      9  H   UNL     1      32.729  -9.613 -22.680  0.00  0.00    +0.157 HD
ENDROOT
BRANCH   5  11
ATOM     10 CL   UNL     1      35.927 -17.521 -22.835  0.00  0.00    -0.082 Cl
ATOM     11  C   UNL     1      33.811 -14.419 -24.215  0.00  0.00    +0.049 C 
ATOM     12  C   UNL     1      33.336 -14.899 -25.435  0.00  0.00    +0.140 C 
ATOM     13  C   UNL     1      34.611 -15.229 -23.410  0.00  0.00    +0.016 C 
ATOM     14  C   UNL     1      33.662 -16.190 -25.851  0.00  0.00    +0.038 C 
ATOM     15  C   UNL     1      34.937 -16.520 -23.826  0.00  0.00    +0.058 C 
ATOM     16  C   UNL     1      34.462 -17.000 -25.046  0.00  0.00    +0.015 C 
BRANCH  12  17
ATOM     17  O   UNL     1      32.552 -14.128 -26.241  0.00  0.00    -0.471 OA
ATOM     18  C   UNL     1      33.181 -13.519 -27.365  0.00  0.00    +0.252 C 
ENDBRANCH  12  17
ENDBRANCH   5  11
BRANCH   3  19
ATOM     19  C   UNL     1      31.885 -14.052 -22.168  0.00  0.00    +0.182 C 
BRANCH  19  22
ATOM     20  O   UNL     1      33.518 -13.854 -20.389  0.00  0.00    -0.273 OA
ATOM     21  N   UNL     1      32.387 -15.839 -20.644  0.00  0.00    -0.327 N 
ATOM     22  C   UNL     1      32.677 -14.532 -20.973  0.00  0.00    +0.240 C 
ATOM     23  H   UNL     1      32.840 -16.268 -19.881  0.00  0.00    +0.145 HD
ATOM     24  H   UNL     1      31.726 -16.345 -21.170  0.00  0.00    +0.145 HD
ENDBRANCH  19  22
ENDBRANCH   3  19
TORSDOF 4
ENDMDL
MODEL 5
REMARK VINA RESULT:      -7.3     11.423     14.229
REMARK  Name = 71571306
REMARK  4 active torsions:
REMARK  status: ('A' for Active; 'I' for Inactive)
REMARK    1  A    between atoms: N_3  and  C_19
REMARK    2  A    between atoms: C_5  and  C_11
REMARK    3  A    between atoms: C_12  and  O_17
REMARK    4  A    between atoms: C_19  and  C_22
REMARK                            x       y       z     vdW  Elec       q    Type
REMARK                         _______ _______ _______ _____ _____    ______ ____
ROOT
ATOM      1  S   UNL     1      30.512 -23.771 -16.333  0.00  0.00    -0.018 S 
ATOM      2  O   UNL     1      34.492 -22.080 -18.703  0.00  0.00    -0.270 OA
ATOM      3  N   UNL     1      33.112 -23.998 -15.392  0.00  0.00    -0.261 N 
ATOM      4  N   UNL     1      32.727 -22.925 -17.474  0.00  0.00    -0.263 N 
ATOM      5  C   UNL     1      34.482 -23.755 -15.572  0.00  0.00    +0.061 C 
ATOM      6  C   UNL     1      34.972 -23.126 -16.651  0.00  0.00    +0.073 C 
ATOM      7  C   UNL     1      32.184 -23.574 -16.368  0.00  0.00    +0.145 C 
ATOM      8  C   UNL     1      34.062 -22.657 -17.709  0.00  0.00    +0.252 C 
ATOM      9  H   UNL     1      32.092 -22.624 -18.163  0.00  0.00    +0.157 HD
ENDROOT
BRANCH   5  11
ATOM     10 CL   UNL     1      37.081 -22.661 -11.252  0.00  0.00    -0.082 Cl
ATOM     11  C   UNL     1      35.458 -24.184 -14.577  0.00  0.00    +0.049 C 
ATOM     12  C   UNL     1      36.079 -25.429 -14.671  0.00  0.00    +0.140 C 
ATOM     13  C   UNL     1      35.766 -23.328 -13.520  0.00  0.00    +0.016 C 
ATOM     14  C   UNL     1      37.010 -25.818 -13.708  0.00  0.00    +0.038 C 
ATOM     15  C   UNL     1      36.697 -23.718 -12.556  0.00  0.00    +0.058 C 
ATOM     16  C   UNL     1      37.319 -24.963 -12.650  0.00  0.00    +0.015 C 
BRANCH  12  17
ATOM     17  O   UNL     1      35.796 -26.285 -15.694  0.00  0.00    -0.471 OA
ATOM     18  C   UNL     1      36.736 -27.327 -15.944  0.00  0.00    +0.252 C 
ENDBRANCH  12  17
ENDBRANCH   5  11
BRANCH   3  19
ATOM     19  C   UNL     1      32.702 -24.698 -14.162  0.00  0.00    +0.182 C 
BRANCH  19  22
ATOM     20  O   UNL     1      30.716 -24.206 -12.864  0.00  0.00    -0.273 OA
ATOM     21  N   UNL     1      32.212 -22.514 -13.293  0.00  0.00    -0.327 N 
ATOM     22  C   UNL     1      31.771 -23.818 -13.361  0.00  0.00    +0.240 C 
ATOM     23  H   UNL     1      31.690 -21.841 -12.797  0.00  0.00    +0.145 HD
ATOM     24  H   UNL     1      33.050 -22.253 -13.740  0.00  0.00    +0.145 HD
ENDBRANCH  19  22
ENDBRANCH   3  19
TORSDOF 4
ENDMDL
MODEL 6
REMARK VINA RESULT:      -7.2      5.817      8.309
REMARK  Name = 71571306
REMARK  4 active torsions:
REMARK  status: ('A' for Active; 'I' for Inactive)
REMARK    1  A    between atoms: N_3  and  C_19
REMARK    2  A    between atoms: C_5  and  C_11
REMARK    3  A    between atoms: C_12  and  O_17
REMARK    4  A    between atoms: C_19  and  C_22
REMARK                            x       y       z     vdW  Elec       q    Type
REMARK                         _______ _______ _______ _____ _____    ______ ____
ROOT
ATOM      1  S   UNL     1      31.205  -4.183 -23.079  0.00  0.00    -0.018 S 
ATOM      2  O   UNL     1      32.764  -6.642 -19.099  0.00  0.00    -0.270 OA
ATOM      3  N   UNL     1      32.205  -6.771 -23.125  0.00  0.00    -0.261 N 
ATOM      4  N   UNL     1      32.072  -5.622 -21.053  0.00  0.00    -0.263 N 
ATOM      5  C   UNL     1      32.736  -7.869 -22.431  0.00  0.00    +0.061 C 
ATOM      6  C   UNL     1      32.934  -7.861 -21.104  0.00  0.00    +0.073 C 
ATOM      7  C   UNL     1      31.853  -5.595 -22.428  0.00  0.00    +0.145 C 
ATOM      8  C   UNL     1      32.590  -6.667 -20.313  0.00  0.00    +0.252 C 
ATOM      9  H   UNL     1      31.831  -4.809 -20.553  0.00  0.00    +0.157 HD
ENDROOT
BRANCH   5  11
ATOM     10 CL   UNL     1      35.953 -10.222 -25.705  0.00  0.00    -0.082 Cl
ATOM     11  C   UNL     1      33.106  -9.093 -23.131  0.00  0.00    +0.049 C 
ATOM     12  C   UNL     1      32.371 -10.266 -22.963  0.00  0.00    +0.140 C 
ATOM     13  C   UNL     1      34.214  -9.079 -23.977  0.00  0.00    +0.016 C 
ATOM     14  C   UNL     1      32.743 -11.426 -23.643  0.00  0.00    +0.038 C 
ATOM     15  C   UNL     1      34.587 -10.238 -24.658  0.00  0.00    +0.058 C 
ATOM     16  C   UNL     1      33.851 -11.412 -24.490  0.00  0.00    +0.015 C 
BRANCH  12  17
ATOM     17  O   UNL     1      31.284 -10.308 -22.141  0.00  0.00    -0.471 OA
ATOM     18  C   UNL     1      31.169 -11.435 -21.276  0.00  0.00    +0.252 C 
ENDBRANCH  12  17
ENDBRANCH   5  11
BRANCH   3  19
ATOM     19  C   UNL     1      32.036  -6.907 -24.583  0.00  0.00    +0.182 C 
BRANCH  19  22
ATOM     20  O   UNL     1      34.268  -6.147 -25.137  0.00  0.00    -0.273 OA
ATOM     21  N   UNL     1      32.465  -5.102 -26.107  0.00  0.00    -0.327 N 
ATOM     22  C   UNL     1      33.054  -6.047 -25.296  0.00  0.00    +0.240 C 
ATOM     23  H   UNL     1      33.026  -4.479 -26.626  0.00  0.00    +0.145 HD
ATOM     24  H   UNL     1      31.484  -5.047 -26.169  0.00  0.00    +0.145 HD
ENDBRANCH  19  22
ENDBRANCH   3  19
TORSDOF 4
ENDMDL
MODEL 7
REMARK VINA RESULT:      -7.1     11.344     14.249
REMARK  Name = 71571306
REMARK  4 active torsions:
REMARK  status: ('A' for Active; 'I' for Inactive)
REMARK    1  A    between atoms: N_3  and  C_19
REMARK    2  A    between atoms: C_5  and  C_11
REMARK    3  A    between atoms: C_12  and  O_17
REMARK    4  A    between atoms: C_19  and  C_22
REMARK                            x       y       z     vdW  Elec       q    Type
REMARK                         _______ _______ _______ _____ _____    ______ ____
ROOT
ATOM      1  S   UNL     1      33.470 -23.250 -18.003  0.00  0.00    -0.018 S 
ATOM      2  O   UNL     1      37.553 -20.554 -17.388  0.00  0.00    -0.270 OA
ATOM      3  N   UNL     1      35.278 -23.592 -15.926  0.00  0.00    -0.261 N 
ATOM      4  N   UNL     1      35.682 -21.900 -17.541  0.00  0.00    -0.263 N 
ATOM      5  C   UNL     1      36.463 -23.201 -15.286  0.00  0.00    +0.061 C 
ATOM      6  C   UNL     1      37.238 -22.204 -15.740  0.00  0.00    +0.073 C 
ATOM      7  C   UNL     1      34.854 -22.929 -17.098  0.00  0.00    +0.145 C 
ATOM      8  C   UNL     1      36.857 -21.468 -16.958  0.00  0.00    +0.252 C 
ATOM      9  H   UNL     1      35.399 -21.429 -18.357  0.00  0.00    +0.157 HD
ENDROOT
BRANCH   5  11
ATOM     10 CL   UNL     1      35.831 -23.981 -10.226  0.00  0.00    -0.082 Cl
ATOM     11  C   UNL     1      36.920 -23.871 -14.074  0.00  0.00    +0.049 C 
ATOM     12  C   UNL     1      38.015 -24.735 -14.101  0.00  0.00    +0.140 C 
ATOM     13  C   UNL     1      36.244 -23.639 -12.877  0.00  0.00    +0.016 C 
ATOM     14  C   UNL     1      38.434 -25.366 -12.930  0.00  0.00    +0.038 C 
ATOM     15  C   UNL     1      36.663 -24.270 -11.706  0.00  0.00    +0.058 C 
ATOM     16  C   UNL     1      37.758 -25.133 -11.732  0.00  0.00    +0.015 C 
BRANCH  12  17
ATOM     17  O   UNL     1      38.693 -24.980 -15.258  0.00  0.00    -0.471 OA
ATOM     18  C   UNL     1      40.064 -25.353 -15.137  0.00  0.00    +0.252 C 
ENDBRANCH  12  17
ENDBRANCH   5  11
BRANCH   3  19
ATOM     19  C   UNL     1      34.516 -24.702 -15.326  0.00  0.00    +0.182 C 
BRANCH  19  22
ATOM     20  O   UNL     1      33.006 -22.974 -14.551  0.00  0.00    -0.273 OA
ATOM     21  N   UNL     1      32.761 -25.110 -13.739  0.00  0.00    -0.327 N 
ATOM     22  C   UNL     1      33.355 -24.151 -14.531  0.00  0.00    +0.240 C 
ATOM     23  H   UNL     1      31.991 -24.873 -13.171  0.00  0.00    +0.145 HD
ATOM     24  H   UNL     1      33.106 -26.032 -13.739  0.00  0.00    +0.145 HD
ENDBRANCH  19  22
ENDBRANCH   3  19
TORSDOF 4
ENDMDL
MODEL 8
REMARK VINA RESULT:      -7.0     11.442     13.509
REMARK  Name = 71571306
REMARK  4 active torsions:
REMARK  status: ('A' for Active; 'I' for Inactive)
REMARK    1  A    between atoms: N_3  and  C_19
REMARK    2  A    between atoms: C_5  and  C_11
REMARK    3  A    between atoms: C_12  and  O_17
REMARK    4  A    between atoms: C_19  and  C_22
REMARK                            x       y       z     vdW  Elec       q    Type
REMARK                         _______ _______ _______ _____ _____    ______ ____
ROOT
ATOM      1  S   UNL     1      30.191 -23.768 -15.315  0.00  0.00    -0.018 S 
ATOM      2  O   UNL     1      32.829 -21.970 -19.074  0.00  0.00    -0.270 OA
ATOM      3  N   UNL     1      32.955 -23.923 -15.508  0.00  0.00    -0.261 N 
ATOM      4  N   UNL     1      31.734 -22.863 -17.246  0.00  0.00    -0.263 N 
ATOM      5  C   UNL     1      34.129 -23.643 -16.224  0.00  0.00    +0.061 C 
ATOM      6  C   UNL     1      34.124 -23.002 -17.402  0.00  0.00    +0.073 C 
ATOM      7  C   UNL     1      31.701 -23.526 -16.021  0.00  0.00    +0.145 C 
ATOM      8  C   UNL     1      32.853 -22.559 -17.997  0.00  0.00    +0.252 C 
ATOM      9  H   UNL     1      30.867 -22.580 -17.616  0.00  0.00    +0.157 HD
ENDROOT
BRANCH   5  11
ATOM     10 CL   UNL     1      37.122 -27.417 -14.378  0.00  0.00    -0.082 Cl
ATOM     11  C   UNL     1      35.434 -24.045 -15.713  0.00  0.00    +0.049 C 
ATOM     12  C   UNL     1      36.474 -23.122 -15.597  0.00  0.00    +0.140 C 
ATOM     13  C   UNL     1      35.634 -25.372 -15.337  0.00  0.00    +0.016 C 
ATOM     14  C   UNL     1      37.714 -23.529 -15.105  0.00  0.00    +0.038 C 
ATOM     15  C   UNL     1      36.874 -25.779 -14.845  0.00  0.00    +0.058 C 
ATOM     16  C   UNL     1      37.914 -24.857 -14.729  0.00  0.00    +0.015 C 
BRANCH  12  17
ATOM     17  O   UNL     1      36.306 -21.818 -15.957  0.00  0.00    -0.471 OA
ATOM     18  C   UNL     1      37.211 -21.292 -16.925  0.00  0.00    +0.252 C 
ENDBRANCH  12  17
ENDBRANCH   5  11
BRANCH   3  19
ATOM     19  C   UNL     1      33.094 -24.634 -14.225  0.00  0.00    +0.182 C 
BRANCH  19  22
ATOM     20  O   UNL     1      32.204 -22.983 -12.693  0.00  0.00    -0.273 OA
ATOM     21  N   UNL     1      34.442 -23.496 -12.595  0.00  0.00    -0.327 N 
ATOM     22  C   UNL     1      33.165 -23.634 -13.094  0.00  0.00    +0.240 C 
ATOM     23  H   UNL     1      34.618 -22.872 -11.854  0.00  0.00    +0.145 HD
ATOM     24  H   UNL     1      35.181 -24.022 -12.980  0.00  0.00    +0.145 HD
ENDBRANCH  19  22
ENDBRANCH   3  19
TORSDOF 4
ENDMDL
MODEL 9
REMARK VINA RESULT:      -6.9      3.652      5.994
REMARK  Name = 71571306
REMARK  4 active torsions:
REMARK  status: ('A' for Active; 'I' for Inactive)
REMARK    1  A    between atoms: N_3  and  C_19
REMARK    2  A    between atoms: C_5  and  C_11
REMARK    3  A    between atoms: C_12  and  O_17
REMARK    4  A    between atoms: C_19  and  C_22
REMARK                            x       y       z     vdW  Elec       q    Type
REMARK                         _______ _______ _______ _____ _____    ______ ____
ROOT
ATOM      1  S   UNL     1      31.998  -8.360 -23.141  0.00  0.00    -0.018 S 
ATOM      2  O   UNL     1      31.130 -11.529 -19.463  0.00  0.00    -0.270 OA
ATOM      3  N   UNL     1      32.617 -11.063 -23.220  0.00  0.00    -0.261 N 
ATOM      4  N   UNL     1      31.600 -10.169 -21.271  0.00  0.00    -0.263 N 
ATOM      5  C   UNL     1      32.621 -12.316 -22.589  0.00  0.00    +0.061 C 
ATOM      6  C   UNL     1      32.139 -12.506 -21.351  0.00  0.00    +0.073 C 
ATOM      7  C   UNL     1      32.091  -9.935 -22.554  0.00  0.00    +0.145 C 
ATOM      8  C   UNL     1      31.575 -11.374 -20.596  0.00  0.00    +0.252 C 
ATOM      9  H   UNL     1      31.231  -9.392 -20.794  0.00  0.00    +0.157 HD
ENDROOT
BRANCH   5  11
ATOM     10 CL   UNL     1      32.715 -15.272 -26.815  0.00  0.00    -0.082 Cl
ATOM     11  C   UNL     1      33.159 -13.493 -23.259  0.00  0.00    +0.049 C 
ATOM     12  C   UNL     1      34.084 -14.321 -22.623  0.00  0.00    +0.140 C 
ATOM     13  C   UNL     1      32.737 -13.786 -24.555  0.00  0.00    +0.016 C 
ATOM     14  C   UNL     1      34.585 -15.443 -23.283  0.00  0.00    +0.038 C 
ATOM     15  C   UNL     1      33.238 -14.908 -25.216  0.00  0.00    +0.058 C 
ATOM     16  C   UNL     1      34.163 -15.736 -24.579  0.00  0.00    +0.015 C 
BRANCH  12  17
ATOM     17  O   UNL     1      34.514 -14.058 -21.356  0.00  0.00    -0.471 OA
ATOM     18  C   UNL     1      34.570 -15.157 -20.450  0.00  0.00    +0.252 C 
ENDBRANCH  12  17
ENDBRANCH   5  11
BRANCH   3  19
ATOM     19  C   UNL     1      33.175 -10.987 -24.582  0.00  0.00    +0.182 C 
BRANCH  19  22
ATOM     20  O   UNL     1      34.969  -9.660 -23.638  0.00  0.00    -0.273 OA
ATOM     21  N   UNL     1      35.327 -10.762 -25.624  0.00  0.00    -0.327 N 
ATOM     22  C   UNL     1      34.569 -10.405 -24.530  0.00  0.00    +0.240 C 
ATOM     23  H   UNL     1      36.256 -10.443 -25.705  0.00  0.00    +0.145 HD
ATOM     24  H   UNL     1      34.941 -11.335 -26.325  0.00  0.00    +0.145 HD
ENDBRANCH  19  22
ENDBRANCH   3  19
TORSDOF 4
ENDMDL
