MODEL 1
REMARK VINA RESULT:     -13.0      0.000      0.000
REMARK  Name = 10200651
REMARK  5 active torsions:
REMARK  status: ('A' for Active; 'I' for Inactive)
REMARK    1  A    between atoms: C_1  and  C_7
REMARK    2  A    between atoms: C_4  and  C_22
REMARK    3  A    between atoms: C_10  and  C_17
REMARK    4  A    between atoms: N_21  and  C_24
REMARK    5  A    between atoms: C_27  and  C_31
REMARK                            x       y       z     vdW  Elec       q    Type
REMARK                         _______ _______ _______ _____ _____    ______ ____
ROOT
ATOM      1  C   UNL     1      33.464 -14.835 -22.972  0.00  0.00    -0.000 C 
ATOM      2  C   UNL     1      32.631 -14.710 -21.860  0.00  0.00    +0.000 C 
ATOM      3  C   UNL     1      33.731 -13.726 -23.773  0.00  0.00    +0.000 C 
ATOM      4  C   UNL     1      32.345 -12.391 -22.358  0.00  0.00    +0.054 C 
ATOM      5  C   UNL     1      32.065 -13.473 -21.549  0.00  0.00    +0.005 C 
ATOM      6  C   UNL     1      33.165 -12.490 -23.463  0.00  0.00    +0.005 C 
ENDROOT
BRANCH   1   7
ATOM      7  C   UNL     1      34.051 -16.118 -23.294  0.00  0.00    -0.004 C 
ATOM      8  C   UNL     1      34.172 -16.545 -24.617  0.00  0.00    -0.022 C 
ATOM      9  C   UNL     1      34.501 -16.937 -22.256  0.00  0.00    +0.004 C 
ATOM     10  C   UNL     1      35.070 -18.179 -22.541  0.00  0.00    +0.055 C 
ATOM     11  C   UNL     1      34.740 -17.787 -24.902  0.00  0.00    -0.004 C 
ATOM     12  C   UNL     1      35.190 -18.603 -23.865  0.00  0.00    +0.004 C 
ATOM     13  C   UNL     1      33.701 -15.699 -25.755  0.00  0.00    +0.031 C 
BRANCH  10  17
ATOM     14  O   UNL     1      34.705 -20.042 -21.120  0.00  0.00    -0.420 OA
ATOM     15  N   UNL     1      36.635 -18.967 -20.766  0.00  0.00    -0.107 NA
ATOM     16  N   UNL     1      36.561 -20.019 -19.872  0.00  0.00    -0.111 NA
ATOM     17  C   UNL     1      35.534 -19.024 -21.468  0.00  0.00    +0.250 A 
ATOM     18  C   UNL     1      35.419 -20.617 -20.114  0.00  0.00    +0.227 A 
ATOM     19  C   UNL     1      34.821 -21.791 -19.468  0.00  0.00    +0.097 C 
ENDBRANCH  10  17
ENDBRANCH   1   7
BRANCH   4  22
ATOM     20  O   UNL     1      30.595 -11.065 -21.591  0.00  0.00    -0.270 OA
ATOM     21  N   UNL     1      32.570  -9.964 -22.234  0.00  0.00    -0.280 N 
ATOM     22  C   UNL     1      31.741 -11.074 -22.028  0.00  0.00    +0.249 C 
ATOM     23  H   UNL     1      33.467 -10.156 -22.594  0.00  0.00    +0.155 HD
BRANCH  21  24
ATOM     24  C   UNL     1      32.284  -8.620 -21.990  0.00  0.00    +0.051 C 
ATOM     25  C   UNL     1      31.833  -7.804 -23.027  0.00  0.00    +0.025 C 
ATOM     26  C   UNL     1      32.449  -8.093 -20.710  0.00  0.00    +0.015 C 
ATOM     27  C   UNL     1      31.546  -6.460 -22.783  0.00  0.00    +0.070 C 
ATOM     28  C   UNL     1      32.163  -6.750 -20.465  0.00  0.00    +0.002 C 
ATOM     29  C   UNL     1      31.712  -5.934 -21.502  0.00  0.00    +0.010 C 
BRANCH  27  31
ATOM     30  N   UNL     1      30.708  -4.943 -24.708  0.00  0.00    -0.191 NA
ATOM     31  C   UNL     1      31.084  -5.623 -23.845  0.00  0.00    +0.100 C 
ENDBRANCH  27  31
ENDBRANCH  21  24
ENDBRANCH   4  22
TORSDOF 5
ENDMDL
MODEL 2
REMARK VINA RESULT:     -13.0      3.581     11.693
REMARK  Name = 10200651
REMARK  5 active torsions:
REMARK  status: ('A' for Active; 'I' for Inactive)
REMARK    1  A    between atoms: C_1  and  C_7
REMARK    2  A    between atoms: C_4  and  C_22
REMARK    3  A    between atoms: C_10  and  C_17
REMARK    4  A    between atoms: N_21  and  C_24
REMARK    5  A    between atoms: C_27  and  C_31
REMARK                            x       y       z     vdW  Elec       q    Type
REMARK                         _______ _______ _______ _____ _____    ______ ____
ROOT
ATOM      1  C   UNL     1      34.636 -19.168 -21.784  0.00  0.00    -0.000 C 
ATOM      2  C   UNL     1      35.903 -19.521 -21.320  0.00  0.00    +0.000 C 
ATOM      3  C   UNL     1      33.500 -19.753 -21.225  0.00  0.00    +0.000 C 
ATOM      4  C   UNL     1      34.895 -21.021 -19.760  0.00  0.00    +0.054 C 
ATOM      5  C   UNL     1      36.035 -20.458 -20.296  0.00  0.00    +0.005 C 
ATOM      6  C   UNL     1      33.631 -20.690 -20.201  0.00  0.00    +0.005 C 
ENDROOT
BRANCH   1   7
ATOM      7  C   UNL     1      34.500 -18.195 -22.847  0.00  0.00    -0.004 C 
ATOM      8  C   UNL     1      34.728 -18.545 -24.179  0.00  0.00    -0.022 C 
ATOM      9  C   UNL     1      34.133 -16.887 -22.526  0.00  0.00    +0.004 C 
ATOM     10  C   UNL     1      33.996 -15.931 -23.532  0.00  0.00    +0.055 C 
ATOM     11  C   UNL     1      34.592 -17.589 -25.186  0.00  0.00    -0.004 C 
ATOM     12  C   UNL     1      34.225 -16.283 -24.863  0.00  0.00    +0.004 C 
ATOM     13  C   UNL     1      35.123 -19.934 -24.564  0.00  0.00    +0.031 C 
BRANCH  10  17
ATOM     14  O   UNL     1      32.802 -14.447 -22.121  0.00  0.00    -0.420 OA
ATOM     15  N   UNL     1      33.934 -13.449 -23.772  0.00  0.00    -0.107 NA
ATOM     16  N   UNL     1      33.293 -12.467 -23.040  0.00  0.00    -0.111 NA
ATOM     17  C   UNL     1      33.618 -14.580 -23.199  0.00  0.00    +0.250 A 
ATOM     18  C   UNL     1      32.643 -13.096 -22.088  0.00  0.00    +0.227 A 
ATOM     19  C   UNL     1      31.794 -12.555 -21.021  0.00  0.00    +0.097 C 
ENDBRANCH  10  17
ENDBRANCH   1   7
BRANCH   4  22
ATOM     20  O   UNL     1      34.389 -23.059 -18.759  0.00  0.00    -0.270 OA
ATOM     21  N   UNL     1      35.927 -21.673 -17.645  0.00  0.00    -0.280 N 
ATOM     22  C   UNL     1      35.036 -22.021 -18.669  0.00  0.00    +0.249 C 
ATOM     23  H   UNL     1      36.363 -20.794 -17.733  0.00  0.00    +0.155 HD
BRANCH  21  24
ATOM     24  C   UNL     1      36.275 -22.418 -16.518  0.00  0.00    +0.051 C 
ATOM     25  C   UNL     1      35.288 -22.830 -15.623  0.00  0.00    +0.025 C 
ATOM     26  C   UNL     1      37.609 -22.751 -16.287  0.00  0.00    +0.015 C 
ATOM     27  C   UNL     1      35.636 -23.576 -14.495  0.00  0.00    +0.070 C 
ATOM     28  C   UNL     1      37.958 -23.496 -15.161  0.00  0.00    +0.002 C 
ATOM     29  C   UNL     1      36.971 -23.907 -14.265  0.00  0.00    +0.010 C 
BRANCH  27  31
ATOM     30  N   UNL     1      33.805 -24.342 -12.831  0.00  0.00    -0.191 NA
ATOM     31  C   UNL     1      34.626 -23.998 -13.578  0.00  0.00    +0.100 C 
ENDBRANCH  27  31
ENDBRANCH  21  24
ENDBRANCH   4  22
TORSDOF 5
ENDMDL
MODEL 3
REMARK VINA RESULT:     -13.0      3.446     11.756
REMARK  Name = 10200651
REMARK  5 active torsions:
REMARK  status: ('A' for Active; 'I' for Inactive)
REMARK    1  A    between atoms: C_1  and  C_7
REMARK    2  A    between atoms: C_4  and  C_22
REMARK    3  A    between atoms: C_10  and  C_17
REMARK    4  A    between atoms: N_21  and  C_24
REMARK    5  A    between atoms: C_27  and  C_31
REMARK                            x       y       z     vdW  Elec       q    Type
REMARK                         _______ _______ _______ _____ _____    ______ ____
ROOT
ATOM      1  C   UNL     1      34.647 -19.157 -21.771  0.00  0.00    -0.000 C 
ATOM      2  C   UNL     1      33.521 -19.767 -21.219  0.00  0.00    +0.000 C 
ATOM      3  C   UNL     1      35.919 -19.490 -21.307  0.00  0.00    +0.000 C 
ATOM      4  C   UNL     1      34.937 -21.023 -19.762  0.00  0.00    +0.054 C 
ATOM      5  C   UNL     1      33.667 -20.711 -20.203  0.00  0.00    +0.005 C 
ATOM      6  C   UNL     1      36.066 -20.434 -20.291  0.00  0.00    +0.005 C 
ENDROOT
BRANCH   1   7
ATOM      7  C   UNL     1      34.495 -18.177 -22.825  0.00  0.00    -0.004 C 
ATOM      8  C   UNL     1      34.740 -18.508 -24.159  0.00  0.00    -0.022 C 
ATOM      9  C   UNL     1      34.096 -16.881 -22.494  0.00  0.00    +0.004 C 
ATOM     10  C   UNL     1      33.944 -15.919 -23.492  0.00  0.00    +0.055 C 
ATOM     11  C   UNL     1      34.588 -17.546 -25.157  0.00  0.00    -0.004 C 
ATOM     12  C   UNL     1      34.189 -16.252 -24.824  0.00  0.00    +0.004 C 
ATOM     13  C   UNL     1      35.170 -19.884 -24.555  0.00  0.00    +0.031 C 
BRANCH  10  17
ATOM     14  O   UNL     1      33.961 -13.599 -23.983  0.00  0.00    -0.420 OA
ATOM     15  N   UNL     1      32.805 -14.152 -22.149  0.00  0.00    -0.107 NA
ATOM     16  N   UNL     1      32.727 -12.780 -22.306  0.00  0.00    -0.111 NA
ATOM     17  C   UNL     1      33.532 -14.580 -23.147  0.00  0.00    +0.250 A 
ATOM     18  C   UNL     1      33.417 -12.503 -23.387  0.00  0.00    +0.227 A 
ATOM     19  C   UNL     1      33.674 -11.207 -24.027  0.00  0.00    +0.097 C 
ENDBRANCH  10  17
ENDBRANCH   1   7
BRANCH   4  22
ATOM     20  O   UNL     1      34.473 -23.082 -18.784  0.00  0.00    -0.270 OA
ATOM     21  N   UNL     1      35.964 -21.667 -17.643  0.00  0.00    -0.280 N 
ATOM     22  C   UNL     1      35.092 -22.029 -18.679  0.00  0.00    +0.249 C 
ATOM     23  H   UNL     1      36.378 -20.776 -17.719  0.00  0.00    +0.155 HD
BRANCH  21  24
ATOM     24  C   UNL     1      36.319 -22.413 -16.519  0.00  0.00    +0.051 C 
ATOM     25  C   UNL     1      35.341 -22.818 -15.612  0.00  0.00    +0.025 C 
ATOM     26  C   UNL     1      37.654 -22.754 -16.302  0.00  0.00    +0.015 C 
ATOM     27  C   UNL     1      35.696 -23.564 -14.488  0.00  0.00    +0.070 C 
ATOM     28  C   UNL     1      38.011 -23.499 -15.179  0.00  0.00    +0.002 C 
ATOM     29  C   UNL     1      37.032 -23.904 -14.272  0.00  0.00    +0.010 C 
BRANCH  27  31
ATOM     30  N   UNL     1      33.879 -24.317 -12.803  0.00  0.00    -0.191 NA
ATOM     31  C   UNL     1      34.694 -23.979 -13.559  0.00  0.00    +0.100 C 
ENDBRANCH  27  31
ENDBRANCH  21  24
ENDBRANCH   4  22
TORSDOF 5
ENDMDL
MODEL 4
REMARK VINA RESULT:     -12.6      3.421     12.029
REMARK  Name = 10200651
REMARK  5 active torsions:
REMARK  status: ('A' for Active; 'I' for Inactive)
REMARK    1  A    between atoms: C_1  and  C_7
REMARK    2  A    between atoms: C_4  and  C_22
REMARK    3  A    between atoms: C_10  and  C_17
REMARK    4  A    between atoms: N_21  and  C_24
REMARK    5  A    between atoms: C_27  and  C_31
REMARK                            x       y       z     vdW  Elec       q    Type
REMARK                         _______ _______ _______ _____ _____    ______ ____
ROOT
ATOM      1  C   UNL     1      34.363 -19.290 -21.465  0.00  0.00    -0.000 C 
ATOM      2  C   UNL     1      33.164 -19.830 -21.000  0.00  0.00    +0.000 C 
ATOM      3  C   UNL     1      35.580 -19.780 -20.993  0.00  0.00    +0.000 C 
ATOM      4  C   UNL     1      34.400 -21.329 -19.611  0.00  0.00    +0.054 C 
ATOM      5  C   UNL     1      33.183 -20.862 -20.062  0.00  0.00    +0.005 C 
ATOM      6  C   UNL     1      35.598 -20.812 -20.055  0.00  0.00    +0.005 C 
ENDROOT
BRANCH   1   7
ATOM      7  C   UNL     1      34.344 -18.219 -22.439  0.00  0.00    -0.004 C 
ATOM      8  C   UNL     1      34.816 -18.415 -23.738  0.00  0.00    -0.022 C 
ATOM      9  C   UNL     1      33.843 -16.970 -22.064  0.00  0.00    +0.004 C 
ATOM     10  C   UNL     1      33.815 -15.922 -22.983  0.00  0.00    +0.055 C 
ATOM     11  C   UNL     1      34.788 -17.367 -24.658  0.00  0.00    -0.004 C 
ATOM     12  C   UNL     1      34.287 -16.121 -24.281  0.00  0.00    +0.004 C 
ATOM     13  C   UNL     1      35.360 -19.736 -24.178  0.00  0.00    +0.031 C 
BRANCH  10  17
ATOM     14  O   UNL     1      33.585 -13.606 -23.434  0.00  0.00    -0.420 OA
ATOM     15  N   UNL     1      32.592 -14.288 -21.550  0.00  0.00    -0.107 NA
ATOM     16  N   UNL     1      32.375 -12.929 -21.679  0.00  0.00    -0.111 NA
ATOM     17  C   UNL     1      33.298 -14.633 -22.594  0.00  0.00    +0.250 A 
ATOM     18  C   UNL     1      32.974 -12.574 -22.791  0.00  0.00    +0.227 A 
ATOM     19  C   UNL     1      33.071 -11.252 -23.422  0.00  0.00    +0.097 C 
ENDBRANCH  10  17
ENDBRANCH   1   7
BRANCH   4  22
ATOM     20  O   UNL     1      33.875 -23.485 -18.913  0.00  0.00    -0.270 OA
ATOM     21  N   UNL     1      35.088 -22.141 -17.414  0.00  0.00    -0.280 N 
ATOM     22  C   UNL     1      34.419 -22.428 -18.611  0.00  0.00    +0.249 C 
ATOM     23  H   UNL     1      35.468 -21.235 -17.339  0.00  0.00    +0.155 HD
BRANCH  21  24
ATOM     24  C   UNL     1      35.286 -22.979 -16.316  0.00  0.00    +0.051 C 
ATOM     25  C   UNL     1      36.579 -23.299 -15.906  0.00  0.00    +0.025 C 
ATOM     26  C   UNL     1      34.188 -23.498 -15.629  0.00  0.00    +0.015 C 
ATOM     27  C   UNL     1      36.777 -24.138 -14.809  0.00  0.00    +0.070 C 
ATOM     28  C   UNL     1      34.384 -24.336 -14.532  0.00  0.00    +0.002 C 
ATOM     29  C   UNL     1      35.679 -24.657 -14.123  0.00  0.00    +0.010 C 
BRANCH  27  31
ATOM     30  N   UNL     1      39.180 -24.732 -14.047  0.00  0.00    -0.191 NA
ATOM     31  C   UNL     1      38.102 -24.466 -14.389  0.00  0.00    +0.100 C 
ENDBRANCH  27  31
ENDBRANCH  21  24
ENDBRANCH   4  22
TORSDOF 5
ENDMDL
MODEL 5
REMARK VINA RESULT:     -12.3      3.484     11.700
REMARK  Name = 10200651
REMARK  5 active torsions:
REMARK  status: ('A' for Active; 'I' for Inactive)
REMARK    1  A    between atoms: C_1  and  C_7
REMARK    2  A    between atoms: C_4  and  C_22
REMARK    3  A    between atoms: C_10  and  C_17
REMARK    4  A    between atoms: N_21  and  C_24
REMARK    5  A    between atoms: C_27  and  C_31
REMARK                            x       y       z     vdW  Elec       q    Type
REMARK                         _______ _______ _______ _____ _____    ______ ____
ROOT
ATOM      1  C   UNL     1      34.977 -18.874 -21.963  0.00  0.00    -0.000 C 
ATOM      2  C   UNL     1      33.988 -19.663 -21.376  0.00  0.00    +0.000 C 
ATOM      3  C   UNL     1      36.292 -18.949 -21.507  0.00  0.00    +0.000 C 
ATOM      4  C   UNL     1      35.624 -20.583 -19.900  0.00  0.00    +0.054 C 
ATOM      5  C   UNL     1      34.315 -20.528 -20.332  0.00  0.00    +0.005 C 
ATOM      6  C   UNL     1      36.619 -19.814 -20.463  0.00  0.00    +0.005 C 
ENDROOT
BRANCH   1   7
ATOM      7  C   UNL     1      34.637 -17.976 -23.047  0.00  0.00    -0.004 C 
ATOM      8  C   UNL     1      34.661 -18.406 -24.375  0.00  0.00    -0.022 C 
ATOM      9  C   UNL     1      34.281 -16.659 -22.749  0.00  0.00    +0.004 C 
ATOM     10  C   UNL     1      33.951 -15.775 -23.776  0.00  0.00    +0.055 C 
ATOM     11  C   UNL     1      34.330 -17.521 -25.401  0.00  0.00    -0.004 C 
ATOM     12  C   UNL     1      33.975 -16.207 -25.103  0.00  0.00    +0.004 C 
ATOM     13  C   UNL     1      35.037 -19.807 -24.734  0.00  0.00    +0.031 C 
BRANCH  10  17
ATOM     14  O   UNL     1      32.727 -14.259 -22.425  0.00  0.00    -0.420 OA
ATOM     15  N   UNL     1      33.943 -13.294 -24.035  0.00  0.00    -0.107 NA
ATOM     16  N   UNL     1      33.291 -12.295 -23.337  0.00  0.00    -0.111 NA
ATOM     17  C   UNL     1      33.584 -14.415 -23.467  0.00  0.00    +0.250 A 
ATOM     18  C   UNL     1      32.592 -12.905 -22.408  0.00  0.00    +0.227 A 
ATOM     19  C   UNL     1      31.711 -12.341 -21.379  0.00  0.00    +0.097 C 
ENDBRANCH  10  17
ENDBRANCH   1   7
BRANCH   4  22
ATOM     20  O   UNL     1      37.151 -21.810 -18.645  0.00  0.00    -0.270 OA
ATOM     21  N   UNL     1      34.896 -21.917 -17.988  0.00  0.00    -0.280 N 
ATOM     22  C   UNL     1      35.971 -21.505 -18.786  0.00  0.00    +0.249 C 
ATOM     23  H   UNL     1      34.010 -21.574 -18.248  0.00  0.00    +0.155 HD
BRANCH  21  24
ATOM     24  C   UNL     1      34.925 -22.752 -16.870  0.00  0.00    +0.051 C 
ATOM     25  C   UNL     1      36.128 -22.984 -16.205  0.00  0.00    +0.025 C 
ATOM     26  C   UNL     1      33.751 -23.353 -16.418  0.00  0.00    +0.015 C 
ATOM     27  C   UNL     1      36.157 -23.818 -15.086  0.00  0.00    +0.070 C 
ATOM     28  C   UNL     1      33.779 -24.187 -15.301  0.00  0.00    +0.002 C 
ATOM     29  C   UNL     1      34.983 -24.420 -14.636  0.00  0.00    +0.010 C 
BRANCH  27  31
ATOM     30  N   UNL     1      38.392 -24.251 -13.850  0.00  0.00    -0.191 NA
ATOM     31  C   UNL     1      37.390 -24.057 -14.404  0.00  0.00    +0.100 C 
ENDBRANCH  27  31
ENDBRANCH  21  24
ENDBRANCH   4  22
TORSDOF 5
ENDMDL
MODEL 6
REMARK VINA RESULT:     -12.2      3.753     11.940
REMARK  Name = 10200651
REMARK  5 active torsions:
REMARK  status: ('A' for Active; 'I' for Inactive)
REMARK    1  A    between atoms: C_1  and  C_7
REMARK    2  A    between atoms: C_4  and  C_22
REMARK    3  A    between atoms: C_10  and  C_17
REMARK    4  A    between atoms: N_21  and  C_24
REMARK    5  A    between atoms: C_27  and  C_31
REMARK                            x       y       z     vdW  Elec       q    Type
REMARK                         _______ _______ _______ _____ _____    ______ ____
ROOT
ATOM      1  C   UNL     1      34.804 -19.476 -21.691  0.00  0.00    -0.000 C 
ATOM      2  C   UNL     1      36.062 -19.701 -21.130  0.00  0.00    +0.000 C 
ATOM      3  C   UNL     1      33.687 -20.142 -21.189  0.00  0.00    +0.000 C 
ATOM      4  C   UNL     1      35.080 -21.237 -19.588  0.00  0.00    +0.054 C 
ATOM      5  C   UNL     1      36.201 -20.591 -20.066  0.00  0.00    +0.005 C 
ATOM      6  C   UNL     1      33.827 -21.033 -20.125  0.00  0.00    +0.005 C 
ENDROOT
BRANCH   1   7
ATOM      7  C   UNL     1      34.660 -18.552 -22.796  0.00  0.00    -0.004 C 
ATOM      8  C   UNL     1      34.872 -18.963 -24.113  0.00  0.00    -0.022 C 
ATOM      9  C   UNL     1      34.303 -17.229 -22.530  0.00  0.00    +0.004 C 
ATOM     10  C   UNL     1      34.159 -16.319 -23.578  0.00  0.00    +0.055 C 
ATOM     11  C   UNL     1      34.728 -18.053 -25.161  0.00  0.00    -0.004 C 
ATOM     12  C   UNL     1      34.370 -16.732 -24.893  0.00  0.00    +0.004 C 
ATOM     13  C   UNL     1      35.255 -20.370 -24.439  0.00  0.00    +0.031 C 
BRANCH  10  17
ATOM     14  O   UNL     1      33.048 -14.758 -22.181  0.00  0.00    -0.420 OA
ATOM     15  N   UNL     1      34.056 -13.857 -23.962  0.00  0.00    -0.107 NA
ATOM     16  N   UNL     1      33.456 -12.836 -23.249  0.00  0.00    -0.111 NA
ATOM     17  C   UNL     1      33.791 -14.952 -23.301  0.00  0.00    +0.250 A 
ATOM     18  C   UNL     1      32.879 -13.408 -22.219  0.00  0.00    +0.227 A 
ATOM     19  C   UNL     1      32.098 -12.809 -21.131  0.00  0.00    +0.097 C 
ENDBRANCH  10  17
ENDBRANCH   1   7
BRANCH   4  22
ATOM     20  O   UNL     1      34.537 -23.199 -18.463  0.00  0.00    -0.270 OA
ATOM     21  N   UNL     1      36.179 -21.826 -17.489  0.00  0.00    -0.280 N 
ATOM     22  C   UNL     1      35.229 -22.187 -18.454  0.00  0.00    +0.249 C 
ATOM     23  H   UNL     1      36.646 -20.972 -17.641  0.00  0.00    +0.155 HD
BRANCH  21  24
ATOM     24  C   UNL     1      36.547 -22.529 -16.341  0.00  0.00    +0.051 C 
ATOM     25  C   UNL     1      37.810 -23.113 -16.255  0.00  0.00    +0.025 C 
ATOM     26  C   UNL     1      35.651 -22.647 -15.279  0.00  0.00    +0.015 C 
ATOM     27  C   UNL     1      38.178 -23.816 -15.107  0.00  0.00    +0.070 C 
ATOM     28  C   UNL     1      36.017 -23.349 -14.131  0.00  0.00    +0.002 C 
ATOM     29  C   UNL     1      37.281 -23.934 -14.046  0.00  0.00    +0.010 C 
BRANCH  27  31
ATOM     30  N   UNL     1      40.524 -24.902 -14.947  0.00  0.00    -0.191 NA
ATOM     31  C   UNL     1      39.472 -24.414 -15.019  0.00  0.00    +0.100 C 
ENDBRANCH  27  31
ENDBRANCH  21  24
ENDBRANCH   4  22
TORSDOF 5
ENDMDL
MODEL 7
REMARK VINA RESULT:     -12.2      3.762     11.524
REMARK  Name = 10200651
REMARK  5 active torsions:
REMARK  status: ('A' for Active; 'I' for Inactive)
REMARK    1  A    between atoms: C_1  and  C_7
REMARK    2  A    between atoms: C_4  and  C_22
REMARK    3  A    between atoms: C_10  and  C_17
REMARK    4  A    between atoms: N_21  and  C_24
REMARK    5  A    between atoms: C_27  and  C_31
REMARK                            x       y       z     vdW  Elec       q    Type
REMARK                         _______ _______ _______ _____ _____    ______ ____
ROOT
ATOM      1  C   UNL     1      34.230 -19.242 -21.782  0.00  0.00    -0.000 C 
ATOM      2  C   UNL     1      35.409 -19.748 -21.234  0.00  0.00    +0.000 C 
ATOM      3  C   UNL     1      32.995 -19.678 -21.304  0.00  0.00    +0.000 C 
ATOM      4  C   UNL     1      34.117 -21.105 -19.753  0.00  0.00    +0.054 C 
ATOM      5  C   UNL     1      35.352 -20.690 -20.207  0.00  0.00    +0.005 C 
ATOM      6  C   UNL     1      32.938 -20.620 -20.277  0.00  0.00    +0.005 C 
ENDROOT
BRANCH   1   7
ATOM      7  C   UNL     1      34.290 -18.264 -22.847  0.00  0.00    -0.004 C 
ATOM      8  C   UNL     1      34.687 -18.624 -24.136  0.00  0.00    -0.022 C 
ATOM      9  C   UNL     1      33.943 -16.940 -22.572  0.00  0.00    +0.004 C 
ATOM     10  C   UNL     1      33.994 -15.979 -23.582  0.00  0.00    +0.055 C 
ATOM     11  C   UNL     1      34.737 -17.663 -25.146  0.00  0.00    -0.004 C 
ATOM     12  C   UNL     1      34.390 -16.341 -24.870  0.00  0.00    +0.004 C 
ATOM     13  C   UNL     1      35.066 -20.031 -24.471  0.00  0.00    +0.031 C 
BRANCH  10  17
ATOM     14  O   UNL     1      32.765 -14.434 -22.269  0.00  0.00    -0.420 OA
ATOM     15  N   UNL     1      34.015 -13.502 -23.872  0.00  0.00    -0.107 NA
ATOM     16  N   UNL     1      33.362 -12.488 -23.196  0.00  0.00    -0.111 NA
ATOM     17  C   UNL     1      33.635 -14.611 -23.296  0.00  0.00    +0.250 A 
ATOM     18  C   UNL     1      32.643 -13.079 -22.271  0.00  0.00    +0.227 A 
ATOM     19  C   UNL     1      31.751 -12.493 -21.263  0.00  0.00    +0.097 C 
ENDBRANCH  10  17
ENDBRANCH   1   7
BRANCH   4  22
ATOM     20  O   UNL     1      35.035 -22.829 -18.490  0.00  0.00    -0.270 OA
ATOM     21  N   UNL     1      32.873 -22.113 -17.910  0.00  0.00    -0.280 N 
ATOM     22  C   UNL     1      34.057 -22.110 -18.659  0.00  0.00    +0.249 C 
ATOM     23  H   UNL     1      32.185 -21.463 -18.186  0.00  0.00    +0.155 HD
BRANCH  21  24
ATOM     24  C   UNL     1      32.548 -22.920 -16.819  0.00  0.00    +0.051 C 
ATOM     25  C   UNL     1      31.222 -23.290 -16.596  0.00  0.00    +0.025 C 
ATOM     26  C   UNL     1      33.549 -23.356 -15.952  0.00  0.00    +0.015 C 
ATOM     27  C   UNL     1      30.897 -24.098 -15.505  0.00  0.00    +0.070 C 
ATOM     28  C   UNL     1      33.226 -24.162 -14.861  0.00  0.00    +0.002 C 
ATOM     29  C   UNL     1      31.900 -24.533 -14.638  0.00  0.00    +0.010 C 
BRANCH  27  31
ATOM     30  N   UNL     1      28.435 -24.786 -15.089  0.00  0.00    -0.191 NA
ATOM     31  C   UNL     1      29.540 -24.478 -15.275  0.00  0.00    +0.100 C 
ENDBRANCH  27  31
ENDBRANCH  21  24
ENDBRANCH   4  22
TORSDOF 5
ENDMDL
MODEL 8
REMARK VINA RESULT:     -12.2      3.731     11.760
REMARK  Name = 10200651
REMARK  5 active torsions:
REMARK  status: ('A' for Active; 'I' for Inactive)
REMARK    1  A    between atoms: C_1  and  C_7
REMARK    2  A    between atoms: C_4  and  C_22
REMARK    3  A    between atoms: C_10  and  C_17
REMARK    4  A    between atoms: N_21  and  C_24
REMARK    5  A    between atoms: C_27  and  C_31
REMARK                            x       y       z     vdW  Elec       q    Type
REMARK                         _______ _______ _______ _____ _____    ______ ____
ROOT
ATOM      1  C   UNL     1      34.135 -19.338 -21.565  0.00  0.00    -0.000 C 
ATOM      2  C   UNL     1      32.871 -19.731 -21.125  0.00  0.00    +0.000 C 
ATOM      3  C   UNL     1      35.278 -19.908 -21.006  0.00  0.00    +0.000 C 
ATOM      4  C   UNL     1      33.897 -21.245 -19.588  0.00  0.00    +0.054 C 
ATOM      5  C   UNL     1      32.750 -20.696 -20.125  0.00  0.00    +0.005 C 
ATOM      6  C   UNL     1      35.157 -20.873 -20.006  0.00  0.00    +0.005 C 
ENDROOT
BRANCH   1   7
ATOM      7  C   UNL     1      34.260 -18.337 -22.603  0.00  0.00    -0.004 C 
ATOM      8  C   UNL     1      34.778 -18.659 -23.858  0.00  0.00    -0.022 C 
ATOM      9  C   UNL     1      33.853 -17.028 -22.335  0.00  0.00    +0.004 C 
ATOM     10  C   UNL     1      33.965 -16.045 -23.318  0.00  0.00    +0.055 C 
ATOM     11  C   UNL     1      34.890 -17.676 -24.842  0.00  0.00    -0.004 C 
ATOM     12  C   UNL     1      34.483 -16.369 -24.572  0.00  0.00    +0.004 C 
ATOM     13  C   UNL     1      35.225 -20.047 -24.184  0.00  0.00    +0.031 C 
BRANCH  10  17
ATOM     14  O   UNL     1      33.997 -13.747 -23.902  0.00  0.00    -0.420 OA
ATOM     15  N   UNL     1      32.793 -14.225 -22.078  0.00  0.00    -0.107 NA
ATOM     16  N   UNL     1      32.719 -12.862 -22.293  0.00  0.00    -0.111 NA
ATOM     17  C   UNL     1      33.545 -14.694 -23.039  0.00  0.00    +0.250 A 
ATOM     18  C   UNL     1      33.437 -12.628 -23.366  0.00  0.00    +0.227 A 
ATOM     19  C   UNL     1      33.712 -11.359 -24.051  0.00  0.00    +0.097 C 
ENDBRANCH  10  17
ENDBRANCH   1   7
BRANCH   4  22
ATOM     20  O   UNL     1      34.676 -23.087 -18.402  0.00  0.00    -0.270 OA
ATOM     21  N   UNL     1      32.609 -22.184 -17.739  0.00  0.00    -0.280 N 
ATOM     22  C   UNL     1      33.768 -22.272 -18.522  0.00  0.00    +0.249 C 
ATOM     23  H   UNL     1      31.981 -21.463 -17.977  0.00  0.00    +0.155 HD
BRANCH  21  24
ATOM     24  C   UNL     1      32.236 -22.989 -16.662  0.00  0.00    +0.051 C 
ATOM     25  C   UNL     1      33.125 -23.201 -15.609  0.00  0.00    +0.025 C 
ATOM     26  C   UNL     1      30.974 -23.581 -16.639  0.00  0.00    +0.015 C 
ATOM     27  C   UNL     1      32.752 -24.006 -14.532  0.00  0.00    +0.070 C 
ATOM     28  C   UNL     1      30.600 -24.387 -15.564  0.00  0.00    +0.002 C 
ATOM     29  C   UNL     1      31.489 -24.599 -14.510  0.00  0.00    +0.010 C 
BRANCH  27  31
ATOM     30  N   UNL     1      34.402 -24.401 -12.575  0.00  0.00    -0.191 NA
ATOM     31  C   UNL     1      33.662 -24.224 -13.453  0.00  0.00    +0.100 C 
ENDBRANCH  27  31
ENDBRANCH  21  24
ENDBRANCH   4  22
TORSDOF 5
ENDMDL
MODEL 9
REMARK VINA RESULT:     -12.1      2.154     11.316
REMARK  Name = 10200651
REMARK  5 active torsions:
REMARK  status: ('A' for Active; 'I' for Inactive)
REMARK    1  A    between atoms: C_1  and  C_7
REMARK    2  A    between atoms: C_4  and  C_22
REMARK    3  A    between atoms: C_10  and  C_17
REMARK    4  A    between atoms: N_21  and  C_24
REMARK    5  A    between atoms: C_27  and  C_31
REMARK                            x       y       z     vdW  Elec       q    Type
REMARK                         _______ _______ _______ _____ _____    ______ ____
ROOT
ATOM      1  C   UNL     1      32.485  -9.943 -22.718  0.00  0.00    -0.000 C 
ATOM      2  C   UNL     1      33.493 -10.218 -23.643  0.00  0.00    +0.000 C 
ATOM      3  C   UNL     1      31.719 -10.982 -22.191  0.00  0.00    +0.000 C 
ATOM      4  C   UNL     1      32.962 -12.542 -23.505  0.00  0.00    +0.054 C 
ATOM      5  C   UNL     1      33.734 -11.533 -24.041  0.00  0.00    +0.005 C 
ATOM      6  C   UNL     1      31.960 -12.297 -22.589  0.00  0.00    +0.005 C 
ENDROOT
BRANCH   1   7
ATOM      7  C   UNL     1      32.235  -8.579 -22.305  0.00  0.00    -0.004 C 
ATOM      8  C   UNL     1      32.178  -8.232 -20.954  0.00  0.00    -0.022 C 
ATOM      9  C   UNL     1      32.049  -7.598 -23.282  0.00  0.00    +0.004 C 
ATOM     10  C   UNL     1      31.805  -6.276 -22.910  0.00  0.00    +0.055 C 
ATOM     11  C   UNL     1      31.934  -6.910 -20.582  0.00  0.00    -0.004 C 
ATOM     12  C   UNL     1      31.749  -5.932 -21.559  0.00  0.00    +0.004 C 
ATOM     13  C   UNL     1      32.372  -9.252 -19.879  0.00  0.00    +0.031 C 
BRANCH  10  17
ATOM     14  O   UNL     1      32.419  -5.361 -25.009  0.00  0.00    -0.420 OA
ATOM     15  N   UNL     1      30.781  -4.258 -23.958  0.00  0.00    -0.107 NA
ATOM     16  N   UNL     1      31.029  -3.615 -25.156  0.00  0.00    -0.111 NA
ATOM     17  C   UNL     1      31.613  -5.265 -23.920  0.00  0.00    +0.250 A 
ATOM     18  C   UNL     1      31.992  -4.292 -25.735  0.00  0.00    +0.227 A 
ATOM     19  C   UNL     1      32.654  -4.062 -27.024  0.00  0.00    +0.097 C 
ENDBRANCH  10  17
ENDBRANCH   1   7
BRANCH   4  22
ATOM     20  O   UNL     1      32.673 -14.338 -24.954  0.00  0.00    -0.270 OA
ATOM     21  N   UNL     1      34.091 -14.670 -23.109  0.00  0.00    -0.280 N 
ATOM     22  C   UNL     1      33.218 -13.943 -23.929  0.00  0.00    +0.249 C 
ATOM     23  H   UNL     1      34.439 -14.194 -22.320  0.00  0.00    +0.155 HD
BRANCH  21  24
ATOM     24  C   UNL     1      34.530 -15.985 -23.272  0.00  0.00    +0.051 C 
ATOM     25  C   UNL     1      35.017 -16.699 -22.178  0.00  0.00    +0.025 C 
ATOM     26  C   UNL     1      34.481 -16.584 -24.531  0.00  0.00    +0.015 C 
ATOM     27  C   UNL     1      35.456 -18.013 -22.342  0.00  0.00    +0.070 C 
ATOM     28  C   UNL     1      34.920 -17.898 -24.696  0.00  0.00    +0.002 C 
ATOM     29  C   UNL     1      35.408 -18.612 -23.601  0.00  0.00    +0.010 C 
BRANCH  27  31
ATOM     30  N   UNL     1      36.362 -19.340 -20.310  0.00  0.00    -0.191 NA
ATOM     31  C   UNL     1      35.955 -18.745 -21.222  0.00  0.00    +0.100 C 
ENDBRANCH  27  31
ENDBRANCH  21  24
ENDBRANCH   4  22
TORSDOF 5
ENDMDL
