MODEL 1
REMARK VINA RESULT:      -7.0      0.000      0.000
REMARK  Name = 3306
REMARK  6 active torsions:
REMARK  status: ('A' for Active; 'I' for Inactive)
REMARK    1  A    between atoms: C_1  and  C_2
REMARK    2  A    between atoms: C_1  and  O_10
REMARK    3  A    between atoms: C_1  and  C_12
REMARK    4  A    between atoms: C_5  and  O_8
REMARK    5  A    between atoms: C_12  and  N_13
REMARK    6  A    between atoms: N_13  and  C_16
REMARK                            x       y       z     vdW  Elec       q    Type
REMARK                         _______ _______ _______ _____ _____    ______ ____
ROOT
ATOM      1  C   UNL     1      34.666 -18.413 -21.481  0.00  0.00    +0.112 C 
ENDROOT
BRANCH   1   2
ATOM      2  C   UNL     1      34.793 -19.685 -20.712  0.00  0.00    +0.005 C 
ATOM      3  C   UNL     1      33.650 -20.345 -20.259  0.00  0.00    +0.035 C 
ATOM      4  C   UNL     1      36.055 -20.215 -20.446  0.00  0.00    -0.002 C 
ATOM      5  C   UNL     1      33.770 -21.534 -19.542  0.00  0.00    +0.133 C 
ATOM      6  C   UNL     1      36.176 -21.405 -19.727  0.00  0.00    +0.003 C 
ATOM      7  C   UNL     1      35.032 -22.064 -19.276  0.00  0.00    +0.037 C 
BRANCH   5   8
ATOM      8  O   UNL     1      32.655 -22.179 -19.100  0.00  0.00    -0.506 OA
ATOM      9  H   UNL     1      32.416 -22.135 -18.195  0.00  0.00    +0.292 HD
ENDBRANCH   5   8
ENDBRANCH   1   2
BRANCH   1  10
ATOM     10  O   UNL     1      35.253 -17.347 -20.721  0.00  0.00    -0.382 OA
ATOM     11  H   UNL     1      34.916 -16.497 -21.043  0.00  0.00    +0.211 HD
ENDBRANCH   1  10
BRANCH   1  12
ATOM     12  C   UNL     1      35.346 -18.495 -22.861  0.00  0.00    -0.047 C 
BRANCH  12  13
ATOM     13  N   UNL     1      35.625 -17.167 -23.402  0.00  0.00    +0.386 N 
ATOM     14  H   UNL     1      36.619 -17.096 -23.620  0.00  0.00    -0.084 HD
ATOM     15  H   UNL     1      35.364 -16.469 -22.707  0.00  0.00    -0.084 HD
BRANCH  13  16
ATOM     16  C   UNL     1      34.855 -16.930 -24.614  0.00  0.00    -0.082 C 
ATOM     17  C   UNL     1      34.306 -18.222 -25.184  0.00  0.00    -0.026 C 
ENDBRANCH  13  16
ENDBRANCH  12  13
ENDBRANCH   1  12
TORSDOF 6
ENDMDL
MODEL 2
REMARK VINA RESULT:      -6.9      1.378      1.967
REMARK  Name = 3306
REMARK  6 active torsions:
REMARK  status: ('A' for Active; 'I' for Inactive)
REMARK    1  A    between atoms: C_1  and  C_2
REMARK    2  A    between atoms: C_1  and  O_10
REMARK    3  A    between atoms: C_1  and  C_12
REMARK    4  A    between atoms: C_5  and  O_8
REMARK    5  A    between atoms: C_12  and  N_13
REMARK    6  A    between atoms: N_13  and  C_16
REMARK                            x       y       z     vdW  Elec       q    Type
REMARK                         _______ _______ _______ _____ _____    ______ ____
ROOT
ATOM      1  C   UNL     1      35.689 -17.946 -21.688  0.00  0.00    +0.112 C 
ENDROOT
BRANCH   1   2
ATOM      2  C   UNL     1      34.964 -19.080 -21.044  0.00  0.00    +0.005 C 
ATOM      3  C   UNL     1      35.681 -20.102 -20.420  0.00  0.00    +0.035 C 
ATOM      4  C   UNL     1      33.571 -19.118 -21.065  0.00  0.00    -0.002 C 
ATOM      5  C   UNL     1      35.003 -21.161 -19.818  0.00  0.00    +0.133 C 
ATOM      6  C   UNL     1      32.892 -20.179 -20.463  0.00  0.00    +0.003 C 
ATOM      7  C   UNL     1      33.609 -21.199 -19.839  0.00  0.00    +0.037 C 
BRANCH   5   8
ATOM      8  O   UNL     1      35.702 -22.158 -19.209  0.00  0.00    -0.506 OA
ATOM      9  H   UNL     1      35.653 -23.034 -19.540  0.00  0.00    +0.292 HD
ENDBRANCH   5   8
ENDBRANCH   1   2
BRANCH   1  10
ATOM     10  O   UNL     1      36.787 -18.466 -22.451  0.00  0.00    -0.382 OA
ATOM     11  H   UNL     1      37.104 -19.286 -22.042  0.00  0.00    +0.211 HD
ENDBRANCH   1  10
BRANCH   1  12
ATOM     12  C   UNL     1      34.772 -17.116 -22.608  0.00  0.00    -0.047 C 
BRANCH  12  13
ATOM     13  N   UNL     1      35.487 -16.638 -23.789  0.00  0.00    +0.386 N 
ATOM     14  H   UNL     1      36.408 -17.075 -23.822  0.00  0.00    -0.084 HD
ATOM     15  H   UNL     1      35.578 -15.625 -23.729  0.00  0.00    -0.084 HD
BRANCH  13  16
ATOM     16  C   UNL     1      34.759 -16.970 -25.004  0.00  0.00    -0.082 C 
ATOM     17  C   UNL     1      34.322 -18.420 -25.011  0.00  0.00    -0.026 C 
ENDBRANCH  13  16
ENDBRANCH  12  13
ENDBRANCH   1  12
TORSDOF 6
ENDMDL
MODEL 3
REMARK VINA RESULT:      -6.8      1.466      2.137
REMARK  Name = 3306
REMARK  6 active torsions:
REMARK  status: ('A' for Active; 'I' for Inactive)
REMARK    1  A    between atoms: C_1  and  C_2
REMARK    2  A    between atoms: C_1  and  O_10
REMARK    3  A    between atoms: C_1  and  C_12
REMARK    4  A    between atoms: C_5  and  O_8
REMARK    5  A    between atoms: C_12  and  N_13
REMARK    6  A    between atoms: N_13  and  C_16
REMARK                            x       y       z     vdW  Elec       q    Type
REMARK                         _______ _______ _______ _____ _____    ______ ____
ROOT
ATOM      1  C   UNL     1      35.770 -18.475 -21.830  0.00  0.00    +0.112 C 
ENDROOT
BRANCH   1   2
ATOM      2  C   UNL     1      34.965 -19.456 -21.047  0.00  0.00    +0.005 C 
ATOM      3  C   UNL     1      35.605 -20.462 -20.320  0.00  0.00    +0.035 C 
ATOM      4  C   UNL     1      33.574 -19.369 -21.039  0.00  0.00    -0.002 C 
ATOM      5  C   UNL     1      34.852 -21.379 -19.588  0.00  0.00    +0.133 C 
ATOM      6  C   UNL     1      32.820 -20.287 -20.307  0.00  0.00    +0.003 C 
ATOM      7  C   UNL     1      33.460 -21.291 -19.580  0.00  0.00    +0.037 C 
BRANCH   5   8
ATOM      8  O   UNL     1      35.475 -22.360 -18.878  0.00  0.00    -0.506 OA
ATOM      9  H   UNL     1      36.403 -22.472 -18.950  0.00  0.00    +0.292 HD
ENDBRANCH   5   8
ENDBRANCH   1   2
BRANCH   1  10
ATOM     10  O   UNL     1      37.165 -18.746 -21.626  0.00  0.00    -0.382 OA
ATOM     11  H   UNL     1      37.619 -17.927 -21.374  0.00  0.00    +0.211 HD
ENDBRANCH   1  10
BRANCH   1  12
ATOM     12  C   UNL     1      35.452 -18.530 -23.337  0.00  0.00    -0.047 C 
BRANCH  12  13
ATOM     13  N   UNL     1      35.457 -17.198 -23.936  0.00  0.00    +0.386 N 
ATOM     14  H   UNL     1      34.819 -17.187 -24.733  0.00  0.00    -0.084 HD
ATOM     15  H   UNL     1      36.405 -16.979 -24.238  0.00  0.00    -0.084 HD
BRANCH  13  16
ATOM     16  C   UNL     1      35.030 -16.195 -22.972  0.00  0.00    -0.082 C 
ATOM     17  C   UNL     1      33.912 -15.335 -23.524  0.00  0.00    -0.026 C 
ENDBRANCH  13  16
ENDBRANCH  12  13
ENDBRANCH   1  12
TORSDOF 6
ENDMDL
MODEL 4
REMARK VINA RESULT:      -6.6      2.539      5.970
REMARK  Name = 3306
REMARK  6 active torsions:
REMARK  status: ('A' for Active; 'I' for Inactive)
REMARK    1  A    between atoms: C_1  and  C_2
REMARK    2  A    between atoms: C_1  and  O_10
REMARK    3  A    between atoms: C_1  and  C_12
REMARK    4  A    between atoms: C_5  and  O_8
REMARK    5  A    between atoms: C_12  and  N_13
REMARK    6  A    between atoms: N_13  and  C_16
REMARK                            x       y       z     vdW  Elec       q    Type
REMARK                         _______ _______ _______ _____ _____    ______ ____
ROOT
ATOM      1  C   UNL     1      35.499 -18.458 -23.355  0.00  0.00    +0.112 C 
ENDROOT
BRANCH   1   2
ATOM      2  C   UNL     1      34.870 -17.164 -23.748  0.00  0.00    +0.005 C 
ATOM      3  C   UNL     1      34.358 -17.000 -25.036  0.00  0.00    +0.035 C 
ATOM      4  C   UNL     1      34.792 -16.119 -22.829  0.00  0.00    -0.002 C 
ATOM      5  C   UNL     1      33.769 -15.791 -25.402  0.00  0.00    +0.133 C 
ATOM      6  C   UNL     1      34.203 -14.908 -23.195  0.00  0.00    +0.003 C 
ATOM      7  C   UNL     1      33.691 -14.745 -24.482  0.00  0.00    +0.037 C 
BRANCH   5   8
ATOM      8  O   UNL     1      33.268 -15.629 -26.658  0.00  0.00    -0.506 OA
ATOM      9  H   UNL     1      33.551 -16.193 -27.351  0.00  0.00    +0.292 HD
ENDBRANCH   5   8
ENDBRANCH   1   2
BRANCH   1  10
ATOM     10  O   UNL     1      36.732 -18.189 -22.672  0.00  0.00    -0.382 OA
ATOM     11  H   UNL     1      36.804 -17.238 -22.500  0.00  0.00    +0.211 HD
ENDBRANCH   1  10
BRANCH   1  12
ATOM     12  C   UNL     1      34.582 -19.301 -22.447  0.00  0.00    -0.047 C 
BRANCH  12  13
ATOM     13  N   UNL     1      35.241 -19.645 -21.190  0.00  0.00    +0.386 N 
ATOM     14  H   UNL     1      35.505 -18.788 -20.704  0.00  0.00    -0.084 HD
ATOM     15  H   UNL     1      36.067 -20.205 -21.396  0.00  0.00    -0.084 HD
BRANCH  13  16
ATOM     16  C   UNL     1      34.353 -20.421 -20.336  0.00  0.00    -0.082 C 
ATOM     17  C   UNL     1      32.900 -20.072 -20.584  0.00  0.00    -0.026 C 
ENDBRANCH  13  16
ENDBRANCH  12  13
ENDBRANCH   1  12
TORSDOF 6
ENDMDL
MODEL 5
REMARK VINA RESULT:      -6.6      1.939      2.462
REMARK  Name = 3306
REMARK  6 active torsions:
REMARK  status: ('A' for Active; 'I' for Inactive)
REMARK    1  A    between atoms: C_1  and  C_2
REMARK    2  A    between atoms: C_1  and  O_10
REMARK    3  A    between atoms: C_1  and  C_12
REMARK    4  A    between atoms: C_5  and  O_8
REMARK    5  A    between atoms: C_12  and  N_13
REMARK    6  A    between atoms: N_13  and  C_16
REMARK                            x       y       z     vdW  Elec       q    Type
REMARK                         _______ _______ _______ _____ _____    ______ ____
ROOT
ATOM      1  C   UNL     1      35.714 -17.886 -22.012  0.00  0.00    +0.112 C 
ENDROOT
BRANCH   1   2
ATOM      2  C   UNL     1      35.434 -19.085 -21.170  0.00  0.00    +0.005 C 
ATOM      3  C   UNL     1      34.116 -19.484 -20.941  0.00  0.00    +0.035 C 
ATOM      4  C   UNL     1      36.488 -19.808 -20.613  0.00  0.00    -0.002 C 
ATOM      5  C   UNL     1      33.854 -20.605 -20.155  0.00  0.00    +0.133 C 
ATOM      6  C   UNL     1      36.226 -20.929 -19.825  0.00  0.00    +0.003 C 
ATOM      7  C   UNL     1      34.909 -21.328 -19.597  0.00  0.00    +0.037 C 
BRANCH   5   8
ATOM      8  O   UNL     1      32.570 -20.995 -19.931  0.00  0.00    -0.506 OA
ATOM      9  H   UNL     1      32.281 -21.840 -20.214  0.00  0.00    +0.292 HD
ENDBRANCH   5   8
ENDBRANCH   1   2
BRANCH   1  10
ATOM     10  O   UNL     1      36.125 -18.318 -23.318  0.00  0.00    -0.382 OA
ATOM     11  H   UNL     1      36.332 -17.544 -23.863  0.00  0.00    +0.211 HD
ENDBRANCH   1  10
BRANCH   1  12
ATOM     12  C   UNL     1      34.487 -16.963 -22.140  0.00  0.00    -0.047 C 
BRANCH  12  13
ATOM     13  N   UNL     1      34.832 -15.570 -21.868  0.00  0.00    +0.386 N 
ATOM     14  H   UNL     1      34.433 -14.978 -22.598  0.00  0.00    -0.084 HD
ATOM     15  H   UNL     1      35.847 -15.481 -21.854  0.00  0.00    -0.084 HD
BRANCH  13  16
ATOM     16  C   UNL     1      34.308 -15.150 -20.577  0.00  0.00    -0.082 C 
ATOM     17  C   UNL     1      32.797 -15.239 -20.535  0.00  0.00    -0.026 C 
ENDBRANCH  13  16
ENDBRANCH  12  13
ENDBRANCH   1  12
TORSDOF 6
ENDMDL
MODEL 6
REMARK VINA RESULT:      -6.6      3.364      6.247
REMARK  Name = 3306
REMARK  6 active torsions:
REMARK  status: ('A' for Active; 'I' for Inactive)
REMARK    1  A    between atoms: C_1  and  C_2
REMARK    2  A    between atoms: C_1  and  O_10
REMARK    3  A    between atoms: C_1  and  C_12
REMARK    4  A    between atoms: C_5  and  O_8
REMARK    5  A    between atoms: C_12  and  N_13
REMARK    6  A    between atoms: N_13  and  C_16
REMARK                            x       y       z     vdW  Elec       q    Type
REMARK                         _______ _______ _______ _____ _____    ______ ____
ROOT
ATOM      1  C   UNL     1      34.600 -22.549 -18.829  0.00  0.00    +0.112 C 
ENDROOT
BRANCH   1   2
ATOM      2  C   UNL     1      34.378 -21.326 -19.653  0.00  0.00    +0.005 C 
ATOM      3  C   UNL     1      35.467 -20.635 -20.185  0.00  0.00    +0.035 C 
ATOM      4  C   UNL     1      33.081 -20.871 -19.891  0.00  0.00    -0.002 C 
ATOM      5  C   UNL     1      35.259 -19.492 -20.956  0.00  0.00    +0.133 C 
ATOM      6  C   UNL     1      32.872 -19.727 -20.661  0.00  0.00    +0.003 C 
ATOM      7  C   UNL     1      33.961 -19.038 -21.194  0.00  0.00    +0.037 C 
BRANCH   5   8
ATOM      8  O   UNL     1      36.321 -18.819 -21.476  0.00  0.00    -0.506 OA
ATOM      9  H   UNL     1      36.916 -18.370 -20.908  0.00  0.00    +0.292 HD
ENDBRANCH   5   8
ENDBRANCH   1   2
BRANCH   1  10
ATOM     10  O   UNL     1      35.710 -22.324 -17.948  0.00  0.00    -0.382 OA
ATOM     11  H   UNL     1      36.000 -21.402 -18.024  0.00  0.00    +0.211 HD
ENDBRANCH   1  10
BRANCH   1  12
ATOM     12  C   UNL     1      33.357 -22.929 -18.002  0.00  0.00    -0.047 C 
BRANCH  12  13
ATOM     13  N   UNL     1      33.708 -23.252 -16.621  0.00  0.00    +0.386 N 
ATOM     14  H   UNL     1      34.239 -22.478 -16.221  0.00  0.00    -0.084 HD
ATOM     15  H   UNL     1      34.267 -24.104 -16.616  0.00  0.00    -0.084 HD
BRANCH  13  16
ATOM     16  C   UNL     1      32.513 -23.474 -15.821  0.00  0.00    -0.082 C 
ATOM     17  C   UNL     1      31.277 -22.927 -16.505  0.00  0.00    -0.026 C 
ENDBRANCH  13  16
ENDBRANCH  12  13
ENDBRANCH   1  12
TORSDOF 6
ENDMDL
MODEL 7
REMARK VINA RESULT:      -6.4      2.189      5.524
REMARK  Name = 3306
REMARK  6 active torsions:
REMARK  status: ('A' for Active; 'I' for Inactive)
REMARK    1  A    between atoms: C_1  and  C_2
REMARK    2  A    between atoms: C_1  and  O_10
REMARK    3  A    between atoms: C_1  and  C_12
REMARK    4  A    between atoms: C_5  and  O_8
REMARK    5  A    between atoms: C_12  and  N_13
REMARK    6  A    between atoms: N_13  and  C_16
REMARK                            x       y       z     vdW  Elec       q    Type
REMARK                         _______ _______ _______ _____ _____    ______ ____
ROOT
ATOM      1  C   UNL     1      35.804 -18.554 -21.475  0.00  0.00    +0.112 C 
ENDROOT
BRANCH   1   2
ATOM      2  C   UNL     1      35.242 -18.067 -22.768  0.00  0.00    +0.005 C 
ATOM      3  C   UNL     1      34.966 -16.710 -22.941  0.00  0.00    +0.035 C 
ATOM      4  C   UNL     1      34.991 -18.967 -23.803  0.00  0.00    -0.002 C 
ATOM      5  C   UNL     1      34.441 -16.255 -24.150  0.00  0.00    +0.133 C 
ATOM      6  C   UNL     1      34.465 -18.512 -25.012  0.00  0.00    +0.003 C 
ATOM      7  C   UNL     1      34.191 -17.156 -25.185  0.00  0.00    +0.037 C 
BRANCH   5   8
ATOM      8  O   UNL     1      34.173 -14.931 -24.321  0.00  0.00    -0.506 OA
ATOM      9  H   UNL     1      33.657 -14.648 -25.050  0.00  0.00    +0.292 HD
ENDBRANCH   5   8
ENDBRANCH   1   2
BRANCH   1  10
ATOM     10  O   UNL     1      35.561 -17.570 -20.459  0.00  0.00    -0.382 OA
ATOM     11  H   UNL     1      36.394 -17.126 -20.235  0.00  0.00    +0.211 HD
ENDBRANCH   1  10
BRANCH   1  12
ATOM     12  C   UNL     1      35.191 -19.900 -21.043  0.00  0.00    -0.047 C 
BRANCH  12  13
ATOM     13  N   UNL     1      35.878 -20.455 -19.879  0.00  0.00    +0.386 N 
ATOM     14  H   UNL     1      35.902 -19.753 -19.139  0.00  0.00    -0.084 HD
ATOM     15  H   UNL     1      36.825 -20.716 -20.151  0.00  0.00    -0.084 HD
BRANCH  13  16
ATOM     16  C   UNL     1      35.190 -21.640 -19.388  0.00  0.00    -0.082 C 
ATOM     17  C   UNL     1      33.688 -21.508 -19.528  0.00  0.00    -0.026 C 
ENDBRANCH  13  16
ENDBRANCH  12  13
ENDBRANCH   1  12
TORSDOF 6
ENDMDL
MODEL 8
REMARK VINA RESULT:      -6.4      2.938      4.424
REMARK  Name = 3306
REMARK  6 active torsions:
REMARK  status: ('A' for Active; 'I' for Inactive)
REMARK    1  A    between atoms: C_1  and  C_2
REMARK    2  A    between atoms: C_1  and  O_10
REMARK    3  A    between atoms: C_1  and  C_12
REMARK    4  A    between atoms: C_5  and  O_8
REMARK    5  A    between atoms: C_12  and  N_13
REMARK    6  A    between atoms: N_13  and  C_16
REMARK                            x       y       z     vdW  Elec       q    Type
REMARK                         _______ _______ _______ _____ _____    ______ ____
ROOT
ATOM      1  C   UNL     1      34.705 -16.945 -24.954  0.00  0.00    +0.112 C 
ENDROOT
BRANCH   1   2
ATOM      2  C   UNL     1      34.828 -17.506 -23.578  0.00  0.00    +0.005 C 
ATOM      3  C   UNL     1      34.920 -16.649 -22.480  0.00  0.00    +0.035 C 
ATOM      4  C   UNL     1      34.850 -18.887 -23.387  0.00  0.00    -0.002 C 
ATOM      5  C   UNL     1      35.034 -17.173 -21.194  0.00  0.00    +0.133 C 
ATOM      6  C   UNL     1      34.965 -19.413 -22.099  0.00  0.00    +0.003 C 
ATOM      7  C   UNL     1      35.056 -18.555 -21.003  0.00  0.00    +0.037 C 
BRANCH   5   8
ATOM      8  O   UNL     1      35.123 -16.338 -20.122  0.00  0.00    -0.506 OA
ATOM      9  H   UNL     1      34.423 -15.744 -19.932  0.00  0.00    +0.292 HD
ENDBRANCH   5   8
ENDBRANCH   1   2
BRANCH   1  10
ATOM     10  O   UNL     1      34.003 -17.885 -25.780  0.00  0.00    -0.382 OA
ATOM     11  H   UNL     1      33.711 -18.635 -25.239  0.00  0.00    +0.211 HD
ENDBRANCH   1  10
BRANCH   1  12
ATOM     12  C   UNL     1      33.962 -15.595 -24.969  0.00  0.00    -0.047 C 
BRANCH  12  13
ATOM     13  N   UNL     1      33.127 -15.454 -26.160  0.00  0.00    +0.386 N 
ATOM     14  H   UNL     1      32.331 -16.088 -26.087  0.00  0.00    -0.084 HD
ATOM     15  H   UNL     1      33.687 -15.680 -26.981  0.00  0.00    -0.084 HD
BRANCH  13  16
ATOM     16  C   UNL     1      32.637 -14.090 -26.290  0.00  0.00    -0.082 C 
ATOM     17  C   UNL     1      33.443 -13.304 -27.303  0.00  0.00    -0.026 C 
ENDBRANCH  13  16
ENDBRANCH  12  13
ENDBRANCH   1  12
TORSDOF 6
ENDMDL
MODEL 9
REMARK VINA RESULT:      -6.4      3.148      6.067
REMARK  Name = 3306
REMARK  6 active torsions:
REMARK  status: ('A' for Active; 'I' for Inactive)
REMARK    1  A    between atoms: C_1  and  C_2
REMARK    2  A    between atoms: C_1  and  O_10
REMARK    3  A    between atoms: C_1  and  C_12
REMARK    4  A    between atoms: C_5  and  O_8
REMARK    5  A    between atoms: C_12  and  N_13
REMARK    6  A    between atoms: N_13  and  C_16
REMARK                            x       y       z     vdW  Elec       q    Type
REMARK                         _______ _______ _______ _____ _____    ______ ____
ROOT
ATOM      1  C   UNL     1      34.915 -17.401 -22.321  0.00  0.00    +0.112 C 
ENDROOT
BRANCH   1   2
ATOM      2  C   UNL     1      34.224 -16.086 -22.190  0.00  0.00    +0.005 C 
ATOM      3  C   UNL     1      34.522 -15.050 -23.077  0.00  0.00    +0.035 C 
ATOM      4  C   UNL     1      33.281 -15.891 -21.182  0.00  0.00    -0.002 C 
ATOM      5  C   UNL     1      33.875 -13.821 -22.954  0.00  0.00    +0.133 C 
ATOM      6  C   UNL     1      32.634 -14.661 -21.059  0.00  0.00    +0.003 C 
ATOM      7  C   UNL     1      32.931 -13.626 -21.946  0.00  0.00    +0.037 C 
BRANCH   5   8
ATOM      8  O   UNL     1      34.164 -12.810 -23.819  0.00  0.00    -0.506 OA
ATOM      9  H   UNL     1      33.475 -12.391 -24.297  0.00  0.00    +0.292 HD
ENDBRANCH   5   8
ENDBRANCH   1   2
BRANCH   1  10
ATOM     10  O   UNL     1      35.956 -17.287 -23.303  0.00  0.00    -0.382 OA
ATOM     11  H   UNL     1      35.582 -16.945 -24.130  0.00  0.00    +0.211 HD
ENDBRANCH   1  10
BRANCH   1  12
ATOM     12  C   UNL     1      35.520 -17.878 -20.986  0.00  0.00    -0.047 C 
BRANCH  12  13
ATOM     13  N   UNL     1      35.207 -19.281 -20.725  0.00  0.00    +0.386 N 
ATOM     14  H   UNL     1      35.155 -19.430 -19.717  0.00  0.00    -0.084 HD
ATOM     15  H   UNL     1      35.940 -19.861 -21.132  0.00  0.00    -0.084 HD
BRANCH  13  16
ATOM     16  C   UNL     1      33.934 -19.648 -21.326  0.00  0.00    -0.082 C 
ATOM     17  C   UNL     1      33.006 -20.289 -20.315  0.00  0.00    -0.026 C 
ENDBRANCH  13  16
ENDBRANCH  12  13
ENDBRANCH   1  12
TORSDOF 6
ENDMDL
