MODEL 1
REMARK VINA RESULT:      -8.5      0.000      0.000
REMARK  Name = 6540299
REMARK  6 active torsions:
REMARK  status: ('A' for Active; 'I' for Inactive)
REMARK    1  A    between atoms: N_2  and  C_29
REMARK    2  A    between atoms: N_4  and  C_21
REMARK    3  A    between atoms: N_6  and  C_15
REMARK    4  A    between atoms: C_26  and  O_27
REMARK    5  A    between atoms: C_29  and  C_31
REMARK    6  A    between atoms: C_31  and  O_34
REMARK                            x       y       z     vdW  Elec       q    Type
REMARK                         _______ _______ _______ _____ _____    ______ ____
ROOT
ATOM      1  O   UNL     1      31.867 -21.987 -17.392  0.00  0.00    -0.251 OA
ATOM      2  N   UNL     1      37.874 -25.003 -15.326  0.00  0.00    -0.267 N 
ATOM      3  N   UNL     1      35.943 -23.923 -16.105  0.00  0.00    -0.322 NA
ATOM      4  N   UNL     1      33.978 -22.836 -16.845  0.00  0.00    -0.196 N 
ATOM      5  N   UNL     1      36.180 -24.511 -13.780  0.00  0.00    -0.170 NA
ATOM      6  N   UNL     1      31.972 -23.949 -16.141  0.00  0.00    -0.267 N 
ATOM      7  C   UNL     1      36.631 -24.464 -15.063  0.00  0.00    +0.146 C 
ATOM      8  C   UNL     1      34.732 -23.405 -15.813  0.00  0.00    +0.208 C 
ATOM      9  C   UNL     1      34.184 -23.405 -14.546  0.00  0.00    +0.071 C 
ATOM     10  C   UNL     1      34.961 -23.976 -13.559  0.00  0.00    +0.116 C 
ATOM     11  C   UNL     1      32.527 -22.853 -16.813  0.00  0.00    +0.317 C 
ATOM     12  H   UNL     1      38.209 -24.975 -16.252  0.00  0.00    +0.159 HD
ATOM     13  H   UNL     1      32.612 -24.593 -15.760  0.00  0.00    +0.156 HD
ENDROOT
BRANCH   6  15
ATOM     14 CL   UNL     1      31.259 -25.326 -13.525  0.00  0.00    -0.081 Cl
ATOM     15  C   UNL     1      30.601 -24.240 -15.942  0.00  0.00    +0.062 C 
ATOM     16  C   UNL     1      30.169 -24.866 -14.784  0.00  0.00    +0.071 C 
ATOM     17  C   UNL     1      29.709 -23.881 -16.942  0.00  0.00    +0.016 C 
ATOM     18  C   UNL     1      28.810 -25.140 -14.620  0.00  0.00    +0.013 C 
ATOM     19  C   UNL     1      28.352 -24.155 -16.778  0.00  0.00    +0.001 C 
ATOM     20  C   UNL     1      27.902 -24.785 -15.617  0.00  0.00    +0.001 C 
ENDBRANCH   6  15
BRANCH   4  21
ATOM     21  C   UNL     1      34.664 -22.214 -17.976  0.00  0.00    +0.062 C 
ATOM     22  C   UNL     1      33.933 -21.969 -19.100  0.00  0.00    +0.018 C 
ATOM     23  C   UNL     1      35.988 -21.922 -17.829  0.00  0.00    +0.018 C 
ATOM     24  C   UNL     1      34.588 -21.375 -20.179  0.00  0.00    +0.038 C 
ATOM     25  C   UNL     1      36.642 -21.327 -18.909  0.00  0.00    +0.038 C 
ATOM     26  C   UNL     1      35.942 -21.055 -20.083  0.00  0.00    +0.139 C 
BRANCH  26  27
ATOM     27  O   UNL     1      36.580 -20.474 -21.136  0.00  0.00    -0.471 OA
ATOM     28  C   UNL     1      36.577 -19.048 -21.191  0.00  0.00    +0.252 C 
ENDBRANCH  26  27
ENDBRANCH   4  21
BRANCH   2  29
ATOM     29  C   UNL     1      38.715 -25.610 -14.309  0.00  0.00    +0.104 C 
ATOM     30  C   UNL     1      38.133 -26.989 -13.994  0.00  0.00    +0.024 C 
BRANCH  29  31
ATOM     31  C   UNL     1      40.196 -25.640 -14.773  0.00  0.00    +0.105 C 
ATOM     32  C   UNL     1      40.918 -24.320 -14.462  0.00  0.00    +0.031 C 
ATOM     33  C   UNL     1      40.964 -26.789 -14.108  0.00  0.00    +0.031 C 
BRANCH  31  34
ATOM     34  O   UNL     1      40.266 -25.866 -16.183  0.00  0.00    -0.385 OA
ATOM     35  H   UNL     1      41.195 -25.882 -16.462  0.00  0.00    +0.210 HD
ENDBRANCH  31  34
ENDBRANCH  29  31
ENDBRANCH   2  29
TORSDOF 6
ENDMDL
MODEL 2
REMARK VINA RESULT:      -7.8      2.280      7.485
REMARK  Name = 6540299
REMARK  6 active torsions:
REMARK  status: ('A' for Active; 'I' for Inactive)
REMARK    1  A    between atoms: N_2  and  C_29
REMARK    2  A    between atoms: N_4  and  C_21
REMARK    3  A    between atoms: N_6  and  C_15
REMARK    4  A    between atoms: C_26  and  O_27
REMARK    5  A    between atoms: C_29  and  C_31
REMARK    6  A    between atoms: C_31  and  O_34
REMARK                            x       y       z     vdW  Elec       q    Type
REMARK                         _______ _______ _______ _____ _____    ______ ____
ROOT
ATOM      1  O   UNL     1      36.903 -23.656 -16.414  0.00  0.00    -0.251 OA
ATOM      2  N   UNL     1      30.015 -22.331 -15.916  0.00  0.00    -0.267 N 
ATOM      3  N   UNL     1      32.309 -22.723 -16.210  0.00  0.00    -0.322 NA
ATOM      4  N   UNL     1      34.617 -23.158 -16.478  0.00  0.00    -0.196 N 
ATOM      5  N   UNL     1      30.949 -24.240 -14.922  0.00  0.00    -0.170 NA
ATOM      6  N   UNL     1      35.735 -23.594 -14.400  0.00  0.00    -0.267 N 
ATOM      7  C   UNL     1      31.122 -23.120 -15.676  0.00  0.00    +0.146 C 
ATOM      8  C   UNL     1      33.370 -23.517 -15.956  0.00  0.00    +0.208 C 
ATOM      9  C   UNL     1      33.300 -24.672 -15.203  0.00  0.00    +0.071 C 
ATOM     10  C   UNL     1      32.051 -24.987 -14.707  0.00  0.00    +0.116 C 
ATOM     11  C   UNL     1      35.847 -23.510 -15.793  0.00  0.00    +0.317 C 
ATOM     12  H   UNL     1      30.130 -21.517 -16.459  0.00  0.00    +0.159 HD
ATOM     13  H   UNL     1      34.843 -23.410 -14.025  0.00  0.00    +0.156 HD
ENDROOT
BRANCH   6  15
ATOM     14 CL   UNL     1      36.777 -26.450 -14.481  0.00  0.00    -0.081 Cl
ATOM     15  C   UNL     1      36.749 -23.915 -13.466  0.00  0.00    +0.062 C 
ATOM     16  C   UNL     1      37.294 -25.189 -13.419  0.00  0.00    +0.071 C 
ATOM     17  C   UNL     1      37.176 -22.918 -12.602  0.00  0.00    +0.016 C 
ATOM     18  C   UNL     1      38.291 -25.473 -12.485  0.00  0.00    +0.013 C 
ATOM     19  C   UNL     1      38.173 -23.202 -11.669  0.00  0.00    +0.001 C 
ATOM     20  C   UNL     1      38.730 -24.480 -11.610  0.00  0.00    +0.001 C 
ENDBRANCH   6  15
BRANCH   4  21
ATOM     21  C   UNL     1      34.682 -22.416 -17.736  0.00  0.00    +0.062 C 
ATOM     22  C   UNL     1      33.548 -22.348 -18.487  0.00  0.00    +0.018 C 
ATOM     23  C   UNL     1      35.874 -21.843 -18.070  0.00  0.00    +0.018 C 
ATOM     24  C   UNL     1      33.610 -21.639 -19.687  0.00  0.00    +0.038 C 
ATOM     25  C   UNL     1      35.935 -21.134 -19.270  0.00  0.00    +0.038 C 
ATOM     26  C   UNL     1      34.804 -21.033 -20.079  0.00  0.00    +0.139 C 
BRANCH  26  27
ATOM     27  O   UNL     1      34.863 -20.340 -21.249  0.00  0.00    -0.471 OA
ATOM     28  C   UNL     1      34.057 -19.168 -21.352  0.00  0.00    +0.252 C 
ENDBRANCH  26  27
ENDBRANCH   4  21
BRANCH   2  29
ATOM     29  C   UNL     1      28.689 -22.637 -15.409  0.00  0.00    +0.104 C 
ATOM     30  C   UNL     1      28.405 -21.677 -14.252  0.00  0.00    +0.024 C 
BRANCH  29  31
ATOM     31  C   UNL     1      27.640 -22.576 -16.552  0.00  0.00    +0.105 C 
ATOM     32  C   UNL     1      27.511 -23.922 -17.280  0.00  0.00    +0.031 C 
ATOM     33  C   UNL     1      26.260 -22.170 -16.021  0.00  0.00    +0.031 C 
BRANCH  31  34
ATOM     34  O   UNL     1      28.015 -21.584 -17.511  0.00  0.00    -0.385 OA
ATOM     35  H   UNL     1      27.522 -21.728 -18.334  0.00  0.00    +0.210 HD
ENDBRANCH  31  34
ENDBRANCH  29  31
ENDBRANCH   2  29
TORSDOF 6
ENDMDL
MODEL 3
REMARK VINA RESULT:      -7.5      2.336      8.092
REMARK  Name = 6540299
REMARK  6 active torsions:
REMARK  status: ('A' for Active; 'I' for Inactive)
REMARK    1  A    between atoms: N_2  and  C_29
REMARK    2  A    between atoms: N_4  and  C_21
REMARK    3  A    between atoms: N_6  and  C_15
REMARK    4  A    between atoms: C_26  and  O_27
REMARK    5  A    between atoms: C_29  and  C_31
REMARK    6  A    between atoms: C_31  and  O_34
REMARK                            x       y       z     vdW  Elec       q    Type
REMARK                         _______ _______ _______ _____ _____    ______ ____
ROOT
ATOM      1  O   UNL     1      35.793 -24.325 -13.848  0.00  0.00    -0.251 OA
ATOM      2  N   UNL     1      34.821 -20.899 -19.912  0.00  0.00    -0.267 N 
ATOM      3  N   UNL     1      35.010 -22.029 -17.865  0.00  0.00    -0.322 NA
ATOM      4  N   UNL     1      35.246 -23.148 -15.795  0.00  0.00    -0.196 N 
ATOM      5  N   UNL     1      36.762 -20.565 -18.638  0.00  0.00    -0.170 NA
ATOM      6  N   UNL     1      37.340 -24.303 -15.589  0.00  0.00    -0.267 N 
ATOM      7  C   UNL     1      35.551 -21.172 -18.773  0.00  0.00    +0.146 C 
ATOM      8  C   UNL     1      35.751 -22.273 -16.764  0.00  0.00    +0.208 C 
ATOM      9  C   UNL     1      36.990 -21.710 -16.533  0.00  0.00    +0.071 C 
ATOM     10  C   UNL     1      37.449 -20.855 -17.514  0.00  0.00    +0.116 C 
ATOM     11  C   UNL     1      36.133 -23.951 -14.973  0.00  0.00    +0.317 C 
ATOM     12  H   UNL     1      33.944 -21.335 -20.019  0.00  0.00    +0.159 HD
ATOM     13  H   UNL     1      37.468 -23.976 -16.509  0.00  0.00    +0.156 HD
ENDROOT
BRANCH   6  15
ATOM     14 CL   UNL     1      36.736 -27.239 -15.073  0.00  0.00    -0.081 Cl
ATOM     15  C   UNL     1      38.398 -25.072 -15.047  0.00  0.00    +0.062 C 
ATOM     16  C   UNL     1      38.228 -26.420 -14.775  0.00  0.00    +0.071 C 
ATOM     17  C   UNL     1      39.603 -24.433 -14.797  0.00  0.00    +0.016 C 
ATOM     18  C   UNL     1      39.290 -27.149 -14.239  0.00  0.00    +0.013 C 
ATOM     19  C   UNL     1      40.664 -25.162 -14.262  0.00  0.00    +0.001 C 
ATOM     20  C   UNL     1      40.508 -26.519 -13.982  0.00  0.00    +0.001 C 
ENDBRANCH   6  15
BRANCH   4  21
ATOM     21  C   UNL     1      33.801 -23.255 -15.609  0.00  0.00    +0.062 C 
ATOM     22  C   UNL     1      33.320 -23.163 -14.337  0.00  0.00    +0.018 C 
ATOM     23  C   UNL     1      33.032 -23.439 -16.720  0.00  0.00    +0.018 C 
ATOM     24  C   UNL     1      31.940 -23.264 -14.159  0.00  0.00    +0.038 C 
ATOM     25  C   UNL     1      31.652 -23.540 -16.541  0.00  0.00    +0.038 C 
ATOM     26  C   UNL     1      31.107 -23.453 -15.262  0.00  0.00    +0.139 C 
BRANCH  26  27
ATOM     27  O   UNL     1      29.760 -23.551 -15.088  0.00  0.00    -0.471 OA
ATOM     28  C   UNL     1      29.026 -24.263 -16.082  0.00  0.00    +0.252 C 
ENDBRANCH  26  27
ENDBRANCH   4  21
BRANCH   2  29
ATOM     29  C   UNL     1      35.277 -20.004 -20.960  0.00  0.00    +0.104 C 
ATOM     30  C   UNL     1      35.956 -20.858 -22.032  0.00  0.00    +0.024 C 
BRANCH  29  31
ATOM     31  C   UNL     1      34.101 -19.141 -21.490  0.00  0.00    +0.105 C 
ATOM     32  C   UNL     1      32.754 -19.594 -20.909  0.00  0.00    +0.031 C 
ATOM     33  C   UNL     1      34.305 -17.657 -21.159  0.00  0.00    +0.031 C 
BRANCH  31  34
ATOM     34  O   UNL     1      34.026 -19.233 -22.915  0.00  0.00    -0.385 OA
ATOM     35  H   UNL     1      34.852 -19.610 -23.258  0.00  0.00    +0.210 HD
ENDBRANCH  31  34
ENDBRANCH  29  31
ENDBRANCH   2  29
TORSDOF 6
ENDMDL
MODEL 4
REMARK VINA RESULT:      -7.4      2.731      6.406
REMARK  Name = 6540299
REMARK  6 active torsions:
REMARK  status: ('A' for Active; 'I' for Inactive)
REMARK    1  A    between atoms: N_2  and  C_29
REMARK    2  A    between atoms: N_4  and  C_21
REMARK    3  A    between atoms: N_6  and  C_15
REMARK    4  A    between atoms: C_26  and  O_27
REMARK    5  A    between atoms: C_29  and  C_31
REMARK    6  A    between atoms: C_31  and  O_34
REMARK                            x       y       z     vdW  Elec       q    Type
REMARK                         _______ _______ _______ _____ _____    ______ ____
ROOT
ATOM      1  O   UNL     1      32.601 -22.195 -19.568  0.00  0.00    -0.251 OA
ATOM      2  N   UNL     1      36.072 -22.989 -13.505  0.00  0.00    -0.267 N 
ATOM      3  N   UNL     1      34.809 -22.792 -15.471  0.00  0.00    -0.322 NA
ATOM      4  N   UNL     1      33.576 -22.597 -17.480  0.00  0.00    -0.196 N 
ATOM      5  N   UNL     1      37.197 -23.106 -15.561  0.00  0.00    -0.170 NA
ATOM      6  N   UNL     1      34.496 -20.971 -18.987  0.00  0.00    -0.267 N 
ATOM      7  C   UNL     1      36.025 -22.962 -14.884  0.00  0.00    +0.146 C 
ATOM      8  C   UNL     1      34.799 -22.770 -16.821  0.00  0.00    +0.208 C 
ATOM      9  C   UNL     1      35.931 -22.906 -17.598  0.00  0.00    +0.071 C 
ATOM     10  C   UNL     1      37.113 -23.074 -16.907  0.00  0.00    +0.116 C 
ATOM     11  C   UNL     1      33.507 -21.939 -18.772  0.00  0.00    +0.317 C 
ATOM     12  H   UNL     1      35.230 -22.883 -13.006  0.00  0.00    +0.159 HD
ATOM     13  H   UNL     1      35.134 -20.833 -18.251  0.00  0.00    +0.156 HD
ENDROOT
BRANCH   6  15
ATOM     14 CL   UNL     1      37.381 -20.370 -19.737  0.00  0.00    -0.081 Cl
ATOM     15  C   UNL     1      34.688 -20.170 -20.139  0.00  0.00    +0.062 C 
ATOM     16  C   UNL     1      35.963 -19.837 -20.567  0.00  0.00    +0.071 C 
ATOM     17  C   UNL     1      33.562 -19.729 -20.818  0.00  0.00    +0.016 C 
ATOM     18  C   UNL     1      36.117 -19.044 -21.705  0.00  0.00    +0.013 C 
ATOM     19  C   UNL     1      33.716 -18.936 -21.955  0.00  0.00    +0.001 C 
ATOM     20  C   UNL     1      34.994 -18.592 -22.398  0.00  0.00    +0.001 C 
ENDBRANCH   6  15
BRANCH   4  21
ATOM     21  C   UNL     1      32.349 -23.086 -16.856  0.00  0.00    +0.062 C 
ATOM     22  C   UNL     1      32.450 -24.155 -16.017  0.00  0.00    +0.018 C 
ATOM     23  C   UNL     1      31.186 -22.440 -17.156  0.00  0.00    +0.018 C 
ATOM     24  C   UNL     1      31.278 -24.622 -15.421  0.00  0.00    +0.038 C 
ATOM     25  C   UNL     1      30.015 -22.907 -16.559  0.00  0.00    +0.038 C 
ATOM     26  C   UNL     1      30.061 -23.998 -15.693  0.00  0.00    +0.139 C 
BRANCH  26  27
ATOM     27  O   UNL     1      28.918 -24.453 -15.110  0.00  0.00    -0.471 OA
ATOM     28  C   UNL     1      28.995 -25.695 -14.412  0.00  0.00    +0.252 C 
ENDBRANCH  26  27
ENDBRANCH   4  21
BRANCH   2  29
ATOM     29  C   UNL     1      37.301 -23.164 -12.750  0.00  0.00    +0.104 C 
ATOM     30  C   UNL     1      37.118 -22.461 -11.403  0.00  0.00    +0.024 C 
BRANCH  29  31
ATOM     31  C   UNL     1      37.658 -24.670 -12.634  0.00  0.00    +0.105 C 
ATOM     32  C   UNL     1      36.505 -25.568 -13.103  0.00  0.00    +0.031 C 
ATOM     33  C   UNL     1      38.910 -25.010 -13.452  0.00  0.00    +0.031 C 
BRANCH  31  34
ATOM     34  O   UNL     1      37.958 -25.001 -11.275  0.00  0.00    -0.385 OA
ATOM     35  H   UNL     1      38.540 -25.778 -11.253  0.00  0.00    +0.210 HD
ENDBRANCH  31  34
ENDBRANCH  29  31
ENDBRANCH   2  29
TORSDOF 6
ENDMDL
