MODEL 1
REMARK VINA RESULT:      -8.3      0.000      0.000
REMARK  Name = 23653514
REMARK  8 active torsions:
REMARK  status: ('A' for Active; 'I' for Inactive)
REMARK    1  A    between atoms: C_1  and  N_11
REMARK    2  A    between atoms: C_8  and  S_21
REMARK    3  A    between atoms: C_12  and  C_14
REMARK    4  A    between atoms: C_14  and  C_15
REMARK    5  A    between atoms: C_14  and  C_18
REMARK    6  A    between atoms: C_15  and  C_16
REMARK    7  A    between atoms: C_18  and  C_19
REMARK    8  A    between atoms: S_21  and  N_24
REMARK                            x       y       z     vdW  Elec       q    Type
REMARK                         _______ _______ _______ _____ _____    ______ ____
ROOT
ATOM      1  C   UNL     1      33.127 -23.802 -13.203  0.00  0.00    +0.080 C 
ATOM      2  C   UNL     1      32.081 -22.677 -13.333  0.00  0.00    +0.046 C 
ATOM      3  C   UNL     1      32.363 -25.132 -13.357  0.00  0.00    +0.046 C 
ATOM      4  C   UNL     1      31.046 -23.327 -14.199  0.00  0.00    -0.023 C 
ATOM      5  C   UNL     1      31.205 -24.717 -14.213  0.00  0.00    -0.024 C 
ATOM      6  C   UNL     1      30.009 -22.720 -14.890  0.00  0.00    +0.015 C 
ATOM      7  C   UNL     1      30.333 -25.530 -14.917  0.00  0.00    -0.003 C 
ATOM      8  C   UNL     1      29.132 -23.531 -15.612  0.00  0.00    +0.121 C 
ATOM      9  C   UNL     1      29.292 -24.926 -15.626  0.00  0.00    +0.020 C 
ENDROOT
BRANCH   1  11
ATOM     10  O   UNL     1      35.796 -24.860 -13.092  0.00  0.00    -0.275 OA
ATOM     11  N   UNL     1      34.151 -23.678 -14.220  0.00  0.00    -0.305 N 
ATOM     12  C   UNL     1      35.415 -24.225 -14.075  0.00  0.00    +0.222 C 
ATOM     13  H   UNL     1      33.940 -23.186 -15.046  0.00  0.00    +0.149 HD
BRANCH  12  14
ATOM     14  C   UNL     1      36.347 -23.983 -15.266  0.00  0.00    +0.076 C 
BRANCH  14  15
ATOM     15  C   UNL     1      37.796 -23.718 -14.815  0.00  0.00    +0.009 C 
BRANCH  15  16
ATOM     16  C   UNL     1      38.698 -24.946 -14.985  0.00  0.00    +0.000 C 
ATOM     17  C   UNL     1      39.181 -25.469 -13.640  0.00  0.00    +0.000 C 
ENDBRANCH  15  16
ENDBRANCH  14  15
BRANCH  14  18
ATOM     18  C   UNL     1      35.785 -22.846 -16.141  0.00  0.00    +0.009 C 
BRANCH  18  19
ATOM     19  C   UNL     1      36.879 -22.032 -16.839  0.00  0.00    +0.000 C 
ATOM     20  C   UNL     1      36.469 -21.651 -18.254  0.00  0.00    +0.000 C 
ENDBRANCH  18  19
ENDBRANCH  14  18
ENDBRANCH  12  14
ENDBRANCH   1  11
BRANCH   8  21
ATOM     21  S   UNL     1      27.815 -22.803 -16.501  0.00  0.00    +0.057 S 
ATOM     22  O   UNL     1      26.662 -22.710 -15.617  0.00  0.00    -0.153 OA
ATOM     23  O   UNL     1      28.314 -21.610 -17.169  0.00  0.00    -0.153 OA
BRANCH  21  24
ATOM     24  N   UNL     1      27.513 -24.006 -17.676  0.00  0.00    -0.203 NA
ATOM     25  H   UNL     1      27.012 -23.594 -18.463  0.00  0.00    +0.144 HD
ATOM     26  H   UNL     1      26.949 -24.749 -17.265  0.00  0.00    +0.144 HD
ENDBRANCH  21  24
ENDBRANCH   8  21
TORSDOF 8
ENDMDL
MODEL 2
REMARK VINA RESULT:      -8.1     11.881     14.894
REMARK  Name = 23653514
REMARK  8 active torsions:
REMARK  status: ('A' for Active; 'I' for Inactive)
REMARK    1  A    between atoms: C_1  and  N_11
REMARK    2  A    between atoms: C_8  and  S_21
REMARK    3  A    between atoms: C_12  and  C_14
REMARK    4  A    between atoms: C_14  and  C_15
REMARK    5  A    between atoms: C_14  and  C_18
REMARK    6  A    between atoms: C_15  and  C_16
REMARK    7  A    between atoms: C_18  and  C_19
REMARK    8  A    between atoms: S_21  and  N_24
REMARK                            x       y       z     vdW  Elec       q    Type
REMARK                         _______ _______ _______ _____ _____    ______ ____
ROOT
ATOM      1  C   UNL     1      32.265 -12.321 -23.219  0.00  0.00    +0.080 C 
ATOM      2  C   UNL     1      32.566 -13.643 -23.954  0.00  0.00    +0.046 C 
ATOM      3  C   UNL     1      31.957 -12.692 -21.755  0.00  0.00    +0.046 C 
ATOM      4  C   UNL     1      33.088 -14.495 -22.837  0.00  0.00    -0.023 C 
ATOM      5  C   UNL     1      32.743 -13.957 -21.593  0.00  0.00    -0.024 C 
ATOM      6  C   UNL     1      33.784 -15.689 -22.932  0.00  0.00    +0.015 C 
ATOM      7  C   UNL     1      33.086 -14.601 -20.416  0.00  0.00    -0.003 C 
ATOM      8  C   UNL     1      34.144 -16.340 -21.750  0.00  0.00    +0.121 C 
ATOM      9  C   UNL     1      33.799 -15.800 -20.501  0.00  0.00    +0.020 C 
ENDROOT
BRANCH   1  11
ATOM     10  O   UNL     1      32.199  -9.534 -23.914  0.00  0.00    -0.275 OA
ATOM     11  N   UNL     1      33.396 -11.419 -23.291  0.00  0.00    -0.305 N 
ATOM     12  C   UNL     1      33.264 -10.084 -23.637  0.00  0.00    +0.222 C 
ATOM     13  H   UNL     1      34.294 -11.768 -23.086  0.00  0.00    +0.149 HD
BRANCH  12  14
ATOM     14  C   UNL     1      34.581  -9.303 -23.652  0.00  0.00    +0.076 C 
BRANCH  14  15
ATOM     15  C   UNL     1      34.379  -7.831 -23.243  0.00  0.00    +0.009 C 
BRANCH  15  16
ATOM     16  C   UNL     1      34.500  -6.869 -24.430  0.00  0.00    +0.000 C 
ATOM     17  C   UNL     1      33.166  -6.209 -24.747  0.00  0.00    +0.000 C 
ENDBRANCH  15  16
ENDBRANCH  14  15
BRANCH  14  18
ATOM     18  C   UNL     1      35.251  -9.443 -25.034  0.00  0.00    +0.009 C 
BRANCH  18  19
ATOM     19  C   UNL     1      34.919 -10.767 -25.728  0.00  0.00    +0.000 C 
ATOM     20  C   UNL     1      35.644 -10.892 -27.059  0.00  0.00    +0.000 C 
ENDBRANCH  18  19
ENDBRANCH  14  18
ENDBRANCH  12  14
ENDBRANCH   1  11
BRANCH   8  21
ATOM     21  S   UNL     1      35.028 -17.845 -21.827  0.00  0.00    +0.057 S 
ATOM     22  O   UNL     1      35.812 -17.979 -20.607  0.00  0.00    -0.153 OA
ATOM     23  O   UNL     1      34.106 -18.902 -22.215  0.00  0.00    -0.153 OA
BRANCH  21  24
ATOM     24  N   UNL     1      36.087 -17.534 -23.131  0.00  0.00    -0.203 NA
ATOM     25  H   UNL     1      37.038 -17.788 -22.864  0.00  0.00    +0.144 HD
ATOM     26  H   UNL     1      36.053 -16.542 -23.367  0.00  0.00    +0.144 HD
ENDBRANCH  21  24
ENDBRANCH   8  21
TORSDOF 8
ENDMDL
MODEL 3
REMARK VINA RESULT:      -8.1      5.141      7.658
REMARK  Name = 23653514
REMARK  8 active torsions:
REMARK  status: ('A' for Active; 'I' for Inactive)
REMARK    1  A    between atoms: C_1  and  N_11
REMARK    2  A    between atoms: C_8  and  S_21
REMARK    3  A    between atoms: C_12  and  C_14
REMARK    4  A    between atoms: C_14  and  C_15
REMARK    5  A    between atoms: C_14  and  C_18
REMARK    6  A    between atoms: C_15  and  C_16
REMARK    7  A    between atoms: C_18  and  C_19
REMARK    8  A    between atoms: S_21  and  N_24
REMARK                            x       y       z     vdW  Elec       q    Type
REMARK                         _______ _______ _______ _____ _____    ______ ____
ROOT
ATOM      1  C   UNL     1      34.018 -22.235 -19.606  0.00  0.00    +0.080 C 
ATOM      2  C   UNL     1      33.081 -21.194 -20.249  0.00  0.00    +0.046 C 
ATOM      3  C   UNL     1      35.424 -21.977 -20.183  0.00  0.00    +0.046 C 
ATOM      4  C   UNL     1      34.031 -20.070 -20.534  0.00  0.00    -0.023 C 
ATOM      5  C   UNL     1      35.357 -20.514 -20.497  0.00  0.00    -0.024 C 
ATOM      6  C   UNL     1      33.725 -18.756 -20.848  0.00  0.00    +0.015 C 
ATOM      7  C   UNL     1      36.406 -19.654 -20.773  0.00  0.00    -0.003 C 
ATOM      8  C   UNL     1      34.777 -17.878 -21.115  0.00  0.00    +0.121 C 
ATOM      9  C   UNL     1      36.108 -18.323 -21.078  0.00  0.00    +0.020 C 
ENDROOT
BRANCH   1  11
ATOM     10  O   UNL     1      33.654 -24.344 -17.688  0.00  0.00    -0.275 OA
ATOM     11  N   UNL     1      34.026 -22.105 -18.162  0.00  0.00    -0.305 N 
ATOM     12  C   UNL     1      33.840 -23.186 -17.316  0.00  0.00    +0.222 C 
ATOM     13  H   UNL     1      34.168 -21.215 -17.769  0.00  0.00    +0.149 HD
BRANCH  12  14
ATOM     14  C   UNL     1      33.886 -22.835 -15.826  0.00  0.00    +0.076 C 
BRANCH  14  15
ATOM     15  C   UNL     1      35.283 -23.076 -15.223  0.00  0.00    +0.009 C 
BRANCH  15  16
ATOM     16  C   UNL     1      35.320 -24.296 -14.296  0.00  0.00    +0.000 C 
ATOM     17  C   UNL     1      36.038 -25.467 -14.950  0.00  0.00    +0.000 C 
ENDBRANCH  15  16
ENDBRANCH  14  15
BRANCH  14  18
ATOM     18  C   UNL     1      32.781 -23.607 -15.078  0.00  0.00    +0.009 C 
BRANCH  18  19
ATOM     19  C   UNL     1      31.456 -22.841 -15.013  0.00  0.00    +0.000 C 
ATOM     20  C   UNL     1      30.403 -23.478 -15.908  0.00  0.00    +0.000 C 
ENDBRANCH  18  19
ENDBRANCH  14  18
ENDBRANCH  12  14
ENDBRANCH   1  11
BRANCH   8  21
ATOM     21  S   UNL     1      34.433 -16.211 -21.509  0.00  0.00    +0.057 S 
ATOM     22  O   UNL     1      33.020 -16.101 -21.841  0.00  0.00    -0.153 OA
ATOM     23  O   UNL     1      35.002 -15.365 -20.470  0.00  0.00    -0.153 OA
BRANCH  21  24
ATOM     24  N   UNL     1      35.351 -16.019 -22.937  0.00  0.00    -0.203 NA
ATOM     25  H   UNL     1      34.863 -16.461 -23.717  0.00  0.00    +0.144 HD
ATOM     26  H   UNL     1      36.265 -16.455 -22.816  0.00  0.00    +0.144 HD
ENDBRANCH  21  24
ENDBRANCH   8  21
TORSDOF 8
ENDMDL
MODEL 4
REMARK VINA RESULT:      -8.1      0.962      2.533
REMARK  Name = 23653514
REMARK  8 active torsions:
REMARK  status: ('A' for Active; 'I' for Inactive)
REMARK    1  A    between atoms: C_1  and  N_11
REMARK    2  A    between atoms: C_8  and  S_21
REMARK    3  A    between atoms: C_12  and  C_14
REMARK    4  A    between atoms: C_14  and  C_15
REMARK    5  A    between atoms: C_14  and  C_18
REMARK    6  A    between atoms: C_15  and  C_16
REMARK    7  A    between atoms: C_18  and  C_19
REMARK    8  A    between atoms: S_21  and  N_24
REMARK                            x       y       z     vdW  Elec       q    Type
REMARK                         _______ _______ _______ _____ _____    ______ ____
ROOT
ATOM      1  C   UNL     1      32.952 -23.835 -13.105  0.00  0.00    +0.080 C 
ATOM      2  C   UNL     1      31.966 -22.685 -13.390  0.00  0.00    +0.046 C 
ATOM      3  C   UNL     1      32.141 -25.143 -13.200  0.00  0.00    +0.046 C 
ATOM      4  C   UNL     1      30.956 -23.364 -14.264  0.00  0.00    -0.023 C 
ATOM      5  C   UNL     1      31.055 -24.755 -14.157  0.00  0.00    -0.024 C 
ATOM      6  C   UNL     1      29.990 -22.776 -15.064  0.00  0.00    +0.015 C 
ATOM      7  C   UNL     1      30.190 -25.589 -14.845  0.00  0.00    -0.003 C 
ATOM      8  C   UNL     1      29.121 -23.609 -15.773  0.00  0.00    +0.121 C 
ATOM      9  C   UNL     1      29.221 -25.005 -15.665  0.00  0.00    +0.020 C 
ENDROOT
BRANCH   1  11
ATOM     10  O   UNL     1      35.735 -23.391 -12.548  0.00  0.00    -0.275 OA
ATOM     11  N   UNL     1      34.039 -23.836 -14.064  0.00  0.00    -0.305 N 
ATOM     12  C   UNL     1      35.355 -23.611 -13.698  0.00  0.00    +0.222 C 
ATOM     13  H   UNL     1      33.833 -24.004 -15.012  0.00  0.00    +0.149 HD
BRANCH  12  14
ATOM     14  C   UNL     1      36.350 -23.657 -14.861  0.00  0.00    +0.076 C 
BRANCH  14  15
ATOM     15  C   UNL     1      35.871 -22.817 -16.059  0.00  0.00    +0.009 C 
BRANCH  15  16
ATOM     16  C   UNL     1      37.019 -22.073 -16.752  0.00  0.00    +0.000 C 
ATOM     17  C   UNL     1      36.632 -21.643 -18.159  0.00  0.00    +0.000 C 
ENDBRANCH  15  16
ENDBRANCH  14  15
BRANCH  14  18
ATOM     18  C   UNL     1      36.632 -25.124 -15.244  0.00  0.00    +0.009 C 
BRANCH  18  19
ATOM     19  C   UNL     1      37.628 -25.807 -14.304  0.00  0.00    +0.000 C 
ATOM     20  C   UNL     1      39.029 -25.237 -14.471  0.00  0.00    +0.000 C 
ENDBRANCH  18  19
ENDBRANCH  14  18
ENDBRANCH  12  14
ENDBRANCH   1  11
BRANCH   8  21
ATOM     21  S   UNL     1      27.893 -22.906 -16.797  0.00  0.00    +0.057 S 
ATOM     22  O   UNL     1      28.397 -21.642 -17.316  0.00  0.00    -0.153 OA
ATOM     23  O   UNL     1      27.418 -23.929 -17.717  0.00  0.00    -0.153 OA
BRANCH  21  24
ATOM     24  N   UNL     1      26.665 -22.581 -15.655  0.00  0.00    -0.203 NA
ATOM     25  H   UNL     1      25.933 -23.288 -15.732  0.00  0.00    +0.144 HD
ATOM     26  H   UNL     1      26.268 -21.659 -15.834  0.00  0.00    +0.144 HD
ENDBRANCH  21  24
ENDBRANCH   8  21
TORSDOF 8
ENDMDL
MODEL 5
REMARK VINA RESULT:      -7.8     11.760     14.749
REMARK  Name = 23653514
REMARK  8 active torsions:
REMARK  status: ('A' for Active; 'I' for Inactive)
REMARK    1  A    between atoms: C_1  and  N_11
REMARK    2  A    between atoms: C_8  and  S_21
REMARK    3  A    between atoms: C_12  and  C_14
REMARK    4  A    between atoms: C_14  and  C_15
REMARK    5  A    between atoms: C_14  and  C_18
REMARK    6  A    between atoms: C_15  and  C_16
REMARK    7  A    between atoms: C_18  and  C_19
REMARK    8  A    between atoms: S_21  and  N_24
REMARK                            x       y       z     vdW  Elec       q    Type
REMARK                         _______ _______ _______ _____ _____    ______ ____
ROOT
ATOM      1  C   UNL     1      32.216 -12.510 -22.770  0.00  0.00    +0.080 C 
ATOM      2  C   UNL     1      32.138 -13.808 -23.598  0.00  0.00    +0.046 C 
ATOM      3  C   UNL     1      32.643 -12.921 -21.347  0.00  0.00    +0.046 C 
ATOM      4  C   UNL     1      33.133 -14.677 -22.889  0.00  0.00    -0.023 C 
ATOM      5  C   UNL     1      33.419 -14.174 -21.616  0.00  0.00    -0.024 C 
ATOM      6  C   UNL     1      33.706 -15.855 -23.338  0.00  0.00    +0.015 C 
ATOM      7  C   UNL     1      34.283 -14.839 -20.762  0.00  0.00    -0.003 C 
ATOM      8  C   UNL     1      34.589 -16.526 -22.489  0.00  0.00    +0.121 C 
ATOM      9  C   UNL     1      34.876 -16.022 -21.211  0.00  0.00    +0.020 C 
ENDROOT
BRANCH   1  11
ATOM     10  O   UNL     1      31.837  -9.695 -23.208  0.00  0.00    -0.275 OA
ATOM     11  N   UNL     1      33.173 -11.585 -23.345  0.00  0.00    -0.305 N 
ATOM     12  C   UNL     1      32.897 -10.239 -23.517  0.00  0.00    +0.222 C 
ATOM     13  H   UNL     1      34.053 -11.928 -23.624  0.00  0.00    +0.149 HD
BRANCH  12  14
ATOM     14  C   UNL     1      34.042  -9.435 -24.139  0.00  0.00    +0.076 C 
BRANCH  14  15
ATOM     15  C   UNL     1      35.282 -10.310 -24.401  0.00  0.00    +0.009 C 
BRANCH  15  16
ATOM     16  C   UNL     1      35.627 -10.407 -25.892  0.00  0.00    +0.000 C 
ATOM     17  C   UNL     1      34.777 -11.459 -26.590  0.00  0.00    +0.000 C 
ENDBRANCH  15  16
ENDBRANCH  14  15
BRANCH  14  18
ATOM     18  C   UNL     1      34.360  -8.215 -23.251  0.00  0.00    +0.009 C 
BRANCH  18  19
ATOM     19  C   UNL     1      34.325  -6.890 -24.020  0.00  0.00    +0.000 C 
ATOM     20  C   UNL     1      32.923  -6.300 -24.043  0.00  0.00    +0.000 C 
ENDBRANCH  18  19
ENDBRANCH  14  18
ENDBRANCH  12  14
ENDBRANCH   1  11
BRANCH   8  21
ATOM     21  S   UNL     1      35.337 -18.013 -23.020  0.00  0.00    +0.057 S 
ATOM     22  O   UNL     1      35.211 -18.097 -24.469  0.00  0.00    -0.153 OA
ATOM     23  O   UNL     1      36.649 -18.117 -22.400  0.00  0.00    -0.153 OA
BRANCH  21  24
ATOM     24  N   UNL     1      34.300 -19.170 -22.310  0.00  0.00    -0.203 NA
ATOM     25  H   UNL     1      33.499 -18.697 -21.891  0.00  0.00    +0.144 HD
ATOM     26  H   UNL     1      34.806 -19.685 -21.591  0.00  0.00    +0.144 HD
ENDBRANCH  21  24
ENDBRANCH   8  21
TORSDOF 8
ENDMDL
MODEL 6
REMARK VINA RESULT:      -7.8      4.576      8.031
REMARK  Name = 23653514
REMARK  8 active torsions:
REMARK  status: ('A' for Active; 'I' for Inactive)
REMARK    1  A    between atoms: C_1  and  N_11
REMARK    2  A    between atoms: C_8  and  S_21
REMARK    3  A    between atoms: C_12  and  C_14
REMARK    4  A    between atoms: C_14  and  C_15
REMARK    5  A    between atoms: C_14  and  C_18
REMARK    6  A    between atoms: C_15  and  C_16
REMARK    7  A    between atoms: C_18  and  C_19
REMARK    8  A    between atoms: S_21  and  N_24
REMARK                            x       y       z     vdW  Elec       q    Type
REMARK                         _______ _______ _______ _____ _____    ______ ____
ROOT
ATOM      1  C   UNL     1      34.172 -23.858 -15.631  0.00  0.00    +0.080 C 
ATOM      2  C   UNL     1      35.098 -25.059 -15.910  0.00  0.00    +0.046 C 
ATOM      3  C   UNL     1      34.555 -23.322 -14.238  0.00  0.00    +0.046 C 
ATOM      4  C   UNL     1      36.304 -24.705 -15.094  0.00  0.00    -0.023 C 
ATOM      5  C   UNL     1      35.997 -23.722 -14.147  0.00  0.00    -0.024 C 
ATOM      6  C   UNL     1      37.573 -25.256 -15.165  0.00  0.00    +0.015 C 
ATOM      7  C   UNL     1      36.950 -23.268 -13.252  0.00  0.00    -0.003 C 
ATOM      8  C   UNL     1      38.545 -24.796 -14.275  0.00  0.00    +0.121 C 
ATOM      9  C   UNL     1      38.236 -23.809 -13.325  0.00  0.00    +0.020 C 
ENDROOT
BRANCH   1  11
ATOM     10  O   UNL     1      33.513 -24.064 -18.421  0.00  0.00    -0.275 OA
ATOM     11  N   UNL     1      34.338 -22.831 -16.639  0.00  0.00    -0.305 N 
ATOM     12  C   UNL     1      33.989 -23.024 -17.966  0.00  0.00    +0.222 C 
ATOM     13  H   UNL     1      34.712 -21.961 -16.371  0.00  0.00    +0.149 HD
BRANCH  12  14
ATOM     14  C   UNL     1      34.241 -21.813 -18.868  0.00  0.00    +0.076 C 
BRANCH  14  15
ATOM     15  C   UNL     1      33.077 -21.577 -19.849  0.00  0.00    +0.009 C 
BRANCH  15  16
ATOM     16  C   UNL     1      32.837 -20.088 -20.127  0.00  0.00    +0.000 C 
ATOM     17  C   UNL     1      33.553 -19.639 -21.393  0.00  0.00    +0.000 C 
ENDBRANCH  15  16
ENDBRANCH  14  15
BRANCH  14  18
ATOM     18  C   UNL     1      35.594 -21.976 -19.587  0.00  0.00    +0.009 C 
BRANCH  18  19
ATOM     19  C   UNL     1      36.624 -20.921 -19.172  0.00  0.00    +0.000 C 
ATOM     20  C   UNL     1      36.890 -19.933 -20.297  0.00  0.00    +0.000 C 
ENDBRANCH  18  19
ENDBRANCH  14  18
ENDBRANCH  12  14
ENDBRANCH   1  11
BRANCH   8  21
ATOM     21  S   UNL     1      40.159 -25.462 -14.337  0.00  0.00    +0.057 S 
ATOM     22  O   UNL     1      41.105 -24.398 -14.030  0.00  0.00    -0.153 OA
ATOM     23  O   UNL     1      40.180 -26.695 -13.566  0.00  0.00    -0.153 OA
BRANCH  21  24
ATOM     24  N   UNL     1      40.286 -25.849 -15.996  0.00  0.00    -0.203 NA
ATOM     25  H   UNL     1      39.363 -26.085 -16.362  0.00  0.00    +0.144 HD
ATOM     26  H   UNL     1      40.912 -26.645 -16.114  0.00  0.00    +0.144 HD
ENDBRANCH  21  24
ENDBRANCH   8  21
TORSDOF 8
ENDMDL
MODEL 7
REMARK VINA RESULT:      -7.7      5.824      9.394
REMARK  Name = 23653514
REMARK  8 active torsions:
REMARK  status: ('A' for Active; 'I' for Inactive)
REMARK    1  A    between atoms: C_1  and  N_11
REMARK    2  A    between atoms: C_8  and  S_21
REMARK    3  A    between atoms: C_12  and  C_14
REMARK    4  A    between atoms: C_14  and  C_15
REMARK    5  A    between atoms: C_14  and  C_18
REMARK    6  A    between atoms: C_15  and  C_16
REMARK    7  A    between atoms: C_18  and  C_19
REMARK    8  A    between atoms: S_21  and  N_24
REMARK                            x       y       z     vdW  Elec       q    Type
REMARK                         _______ _______ _______ _____ _____    ______ ____
ROOT
ATOM      1  C   UNL     1      35.619 -20.033 -21.071  0.00  0.00    +0.080 C 
ATOM      2  C   UNL     1      36.788 -20.536 -20.201  0.00  0.00    +0.046 C 
ATOM      3  C   UNL     1      34.462 -21.032 -20.872  0.00  0.00    +0.046 C 
ATOM      4  C   UNL     1      36.061 -21.270 -19.115  0.00  0.00    -0.023 C 
ATOM      5  C   UNL     1      34.745 -21.551 -19.495  0.00  0.00    -0.024 C 
ATOM      6  C   UNL     1      36.558 -21.694 -17.894  0.00  0.00    +0.015 C 
ATOM      7  C   UNL     1      33.897 -22.262 -18.663  0.00  0.00    -0.003 C 
ATOM      8  C   UNL     1      35.706 -22.400 -17.042  0.00  0.00    +0.121 C 
ATOM      9  C   UNL     1      34.385 -22.682 -17.424  0.00  0.00    +0.020 C 
ENDROOT
BRANCH   1  11
ATOM     10  O   UNL     1      34.400 -18.041 -22.744  0.00  0.00    -0.275 OA
ATOM     11  N   UNL     1      35.216 -18.698 -20.676  0.00  0.00    -0.305 N 
ATOM     12  C   UNL     1      34.633 -17.804 -21.559  0.00  0.00    +0.222 C 
ATOM     13  H   UNL     1      35.362 -18.416 -19.745  0.00  0.00    +0.149 HD
BRANCH  12  14
ATOM     14  C   UNL     1      34.279 -16.448 -20.942  0.00  0.00    +0.076 C 
BRANCH  14  15
ATOM     15  C   UNL     1      32.757 -16.218 -20.897  0.00  0.00    +0.009 C 
BRANCH  15  16
ATOM     16  C   UNL     1      32.358 -15.125 -19.898  0.00  0.00    +0.000 C 
ATOM     17  C   UNL     1      32.280 -13.762 -20.570  0.00  0.00    +0.000 C 
ENDBRANCH  15  16
ENDBRANCH  14  15
BRANCH  14  18
ATOM     18  C   UNL     1      35.022 -15.327 -21.696  0.00  0.00    +0.009 C 
BRANCH  18  19
ATOM     19  C   UNL     1      34.574 -15.187 -23.153  0.00  0.00    +0.000 C 
ATOM     20  C   UNL     1      34.081 -13.778 -23.449  0.00  0.00    +0.000 C 
ENDBRANCH  18  19
ENDBRANCH  14  18
ENDBRANCH  12  14
ENDBRANCH   1  11
BRANCH   8  21
ATOM     21  S   UNL     1      36.294 -22.947 -15.490  0.00  0.00    +0.057 S 
ATOM     22  O   UNL     1      37.615 -22.373 -15.273  0.00  0.00    -0.153 OA
ATOM     23  O   UNL     1      35.245 -22.744 -14.502  0.00  0.00    -0.153 OA
BRANCH  21  24
ATOM     24  N   UNL     1      36.462 -24.622 -15.778  0.00  0.00    -0.203 NA
ATOM     25  H   UNL     1      35.641 -25.112 -15.424  0.00  0.00    +0.144 HD
ATOM     26  H   UNL     1      37.296 -24.968 -15.304  0.00  0.00    +0.144 HD
ENDBRANCH  21  24
ENDBRANCH   8  21
TORSDOF 8
ENDMDL
MODEL 8
REMARK VINA RESULT:      -7.7     11.914     14.844
REMARK  Name = 23653514
REMARK  8 active torsions:
REMARK  status: ('A' for Active; 'I' for Inactive)
REMARK    1  A    between atoms: C_1  and  N_11
REMARK    2  A    between atoms: C_8  and  S_21
REMARK    3  A    between atoms: C_12  and  C_14
REMARK    4  A    between atoms: C_14  and  C_15
REMARK    5  A    between atoms: C_14  and  C_18
REMARK    6  A    between atoms: C_15  and  C_16
REMARK    7  A    between atoms: C_18  and  C_19
REMARK    8  A    between atoms: S_21  and  N_24
REMARK                            x       y       z     vdW  Elec       q    Type
REMARK                         _______ _______ _______ _____ _____    ______ ____
ROOT
ATOM      1  C   UNL     1      31.959 -12.045 -22.337  0.00  0.00    +0.080 C 
ATOM      2  C   UNL     1      32.020 -13.099 -23.460  0.00  0.00    +0.046 C 
ATOM      3  C   UNL     1      32.094 -12.812 -21.006  0.00  0.00    +0.046 C 
ATOM      4  C   UNL     1      32.842 -14.175 -22.819  0.00  0.00    -0.023 C 
ATOM      5  C   UNL     1      32.884 -14.013 -21.430  0.00  0.00    -0.024 C 
ATOM      6  C   UNL     1      33.470 -15.247 -23.432  0.00  0.00    +0.015 C 
ATOM      7  C   UNL     1      33.554 -14.918 -20.624  0.00  0.00    -0.003 C 
ATOM      8  C   UNL     1      34.159 -16.158 -22.629  0.00  0.00    +0.121 C 
ATOM      9  C   UNL     1      34.202 -15.995 -21.235  0.00  0.00    +0.020 C 
ENDROOT
BRANCH   1  11
ATOM     10  O   UNL     1      31.782  -9.471 -23.600  0.00  0.00    -0.275 OA
ATOM     11  N   UNL     1      33.025 -11.074 -22.478  0.00  0.00    -0.305 N 
ATOM     12  C   UNL     1      32.843  -9.853 -23.106  0.00  0.00    +0.222 C 
ATOM     13  H   UNL     1      33.913 -11.290 -22.114  0.00  0.00    +0.149 HD
BRANCH  12  14
ATOM     14  C   UNL     1      34.094  -8.972 -23.148  0.00  0.00    +0.076 C 
BRANCH  14  15
ATOM     15  C   UNL     1      33.799  -7.535 -22.678  0.00  0.00    +0.009 C 
BRANCH  15  16
ATOM     16  C   UNL     1      33.152  -7.492 -21.289  0.00  0.00    +0.000 C 
ATOM     17  C   UNL     1      31.914  -6.607 -21.281  0.00  0.00    +0.000 C 
ENDBRANCH  15  16
ENDBRANCH  14  15
BRANCH  14  18
ATOM     18  C   UNL     1      34.711  -9.014 -24.561  0.00  0.00    +0.009 C 
BRANCH  18  19
ATOM     19  C   UNL     1      34.928 -10.440 -25.076  0.00  0.00    +0.000 C 
ATOM     20  C   UNL     1      35.657 -10.442 -26.411  0.00  0.00    +0.000 C 
ENDBRANCH  18  19
ENDBRANCH  14  18
ENDBRANCH  12  14
ENDBRANCH   1  11
BRANCH   8  21
ATOM     21  S   UNL     1      34.969 -17.519 -23.366  0.00  0.00    +0.057 S 
ATOM     22  O   UNL     1      34.298 -18.738 -22.937  0.00  0.00    -0.153 OA
ATOM     23  O   UNL     1      35.136 -17.244 -24.785  0.00  0.00    -0.153 OA
BRANCH  21  24
ATOM     24  N   UNL     1      36.498 -17.437 -22.607  0.00  0.00    -0.203 NA
ATOM     25  H   UNL     1      37.044 -18.263 -22.851  0.00  0.00    +0.144 HD
ATOM     26  H   UNL     1      36.374 -17.398 -21.595  0.00  0.00    +0.144 HD
ENDBRANCH  21  24
ENDBRANCH   8  21
TORSDOF 8
ENDMDL
MODEL 9
REMARK VINA RESULT:      -7.5      7.599     11.111
REMARK  Name = 23653514
REMARK  8 active torsions:
REMARK  status: ('A' for Active; 'I' for Inactive)
REMARK    1  A    between atoms: C_1  and  N_11
REMARK    2  A    between atoms: C_8  and  S_21
REMARK    3  A    between atoms: C_12  and  C_14
REMARK    4  A    between atoms: C_14  and  C_15
REMARK    5  A    between atoms: C_14  and  C_18
REMARK    6  A    between atoms: C_15  and  C_16
REMARK    7  A    between atoms: C_18  and  C_19
REMARK    8  A    between atoms: S_21  and  N_24
REMARK                            x       y       z     vdW  Elec       q    Type
REMARK                         _______ _______ _______ _____ _____    ______ ____
ROOT
ATOM      1  C   UNL     1      35.226 -17.808 -23.366  0.00  0.00    +0.080 C 
ATOM      2  C   UNL     1      36.456 -18.535 -22.788  0.00  0.00    +0.046 C 
ATOM      3  C   UNL     1      34.010 -18.716 -23.094  0.00  0.00    +0.046 C 
ATOM      4  C   UNL     1      35.837 -19.349 -21.693  0.00  0.00    -0.023 C 
ATOM      5  C   UNL     1      34.453 -19.452 -21.866  0.00  0.00    -0.024 C 
ATOM      6  C   UNL     1      36.475 -19.988 -20.642  0.00  0.00    +0.015 C 
ATOM      7  C   UNL     1      33.676 -20.195 -20.994  0.00  0.00    -0.003 C 
ATOM      8  C   UNL     1      35.698 -20.730 -19.750  0.00  0.00    +0.121 C 
ATOM      9  C   UNL     1      34.309 -20.833 -19.924  0.00  0.00    +0.020 C 
ENDROOT
BRANCH   1  11
ATOM     10  O   UNL     1      33.907 -15.519 -24.498  0.00  0.00    -0.275 OA
ATOM     11  N   UNL     1      35.047 -16.513 -22.741  0.00  0.00    -0.305 N 
ATOM     12  C   UNL     1      34.394 -15.465 -23.369  0.00  0.00    +0.222 C 
ATOM     13  H   UNL     1      35.404 -16.372 -21.834  0.00  0.00    +0.149 HD
BRANCH  12  14
ATOM     14  C   UNL     1      34.310 -14.183 -22.536  0.00  0.00    +0.076 C 
BRANCH  14  15
ATOM     15  C   UNL     1      34.201 -14.484 -21.029  0.00  0.00    +0.009 C 
BRANCH  15  16
ATOM     16  C   UNL     1      32.746 -14.578 -20.553  0.00  0.00    +0.000 C 
ATOM     17  C   UNL     1      32.243 -16.013 -20.588  0.00  0.00    +0.000 C 
ENDBRANCH  15  16
ENDBRANCH  14  15
BRANCH  14  18
ATOM     18  C   UNL     1      33.149 -13.308 -23.048  0.00  0.00    +0.009 C 
BRANCH  18  19
ATOM     19  C   UNL     1      33.615 -11.954 -23.591  0.00  0.00    +0.000 C 
ATOM     20  C   UNL     1      33.845 -12.009 -25.094  0.00  0.00    +0.000 C 
ENDBRANCH  18  19
ENDBRANCH  14  18
ENDBRANCH  12  14
ENDBRANCH   1  11
BRANCH   8  21
ATOM     21  S   UNL     1      36.465 -21.546 -18.408  0.00  0.00    +0.057 S 
ATOM     22  O   UNL     1      37.455 -22.472 -18.941  0.00  0.00    -0.153 OA
ATOM     23  O   UNL     1      36.861 -20.547 -17.427  0.00  0.00    -0.153 OA
BRANCH  21  24
ATOM     24  N   UNL     1      35.153 -22.443 -17.782  0.00  0.00    -0.203 NA
ATOM     25  H   UNL     1      35.006 -23.274 -18.354  0.00  0.00    +0.144 HD
ATOM     26  H   UNL     1      34.311 -21.868 -17.793  0.00  0.00    +0.144 HD
ENDBRANCH  21  24
ENDBRANCH   8  21
TORSDOF 8
ENDMDL
