MODEL 1
REMARK VINA RESULT:      -9.0      0.000      0.000
REMARK  Name = 16741209
REMARK  15 active torsions:
REMARK  status: ('A' for Active; 'I' for Inactive)
REMARK    1  A    between atoms: C_1  and  N_3
REMARK    2  A    between atoms: C_1  and  C_15
REMARK    3  A    between atoms: C_1  and  C_18
REMARK    4  A    between atoms: C_4  and  C_6
REMARK    5  A    between atoms: C_6  and  O_7
REMARK    6  A    between atoms: O_7  and  C_8
REMARK    7  A    between atoms: C_15  and  O_16
REMARK    8  A    between atoms: C_18  and  O_19
REMARK    9  A    between atoms: O_19  and  N_20
REMARK   10  A    between atoms: C_21  and  C_23
REMARK   11  A    between atoms: C_21  and  C_26
REMARK   12  A    between atoms: C_23  and  O_24
REMARK   13  A    between atoms: C_26  and  C_27
REMARK   14  A    between atoms: C_27  and  C_29
REMARK   15  A    between atoms: C_29  and  O_30
REMARK                            x       y       z     vdW  Elec       q    Type
REMARK                         _______ _______ _______ _____ _____    ______ ____
ROOT
ATOM      1  C   UNK A   1      38.645 -25.010 -14.644  0.00  0.00    +0.218 C 
ENDROOT
BRANCH   1   3
ATOM      2  O   UNK A   0      37.517 -22.354 -14.377  0.00  0.00    -0.271 OA
ATOM      3  N   UNK A   1      38.170 -24.152 -15.701  0.00  0.00    -0.291 N 
ATOM      4  C   UNK A   0      37.643 -22.889 -15.475  0.00  0.00    +0.267 C 
ATOM      5  H   UNK A   1      38.221 -24.479 -16.629  0.00  0.00    +0.150 HD
BRANCH   4   6
ATOM      6  C   UNK A   0      37.226 -22.215 -16.765  0.00  0.00    +0.289 C 
BRANCH   6   7
ATOM      7  O   UNK A   0      36.018 -22.762 -17.247  0.00  0.00    -0.466 OA
BRANCH   7   8
ATOM      8  C   UNK A   0      35.391 -22.094 -18.273  0.00  0.00    +0.139 C 
ATOM      9  C   UNK A   0      34.020 -22.245 -18.469  0.00  0.00    +0.037 C 
ATOM     10  C   UNK A   0      36.130 -21.263 -19.117  0.00  0.00    +0.037 C 
ATOM     11  C   UNK A   0      33.384 -21.568 -19.510  0.00  0.00    +0.003 C 
ATOM     12  C   UNK A   0      35.496 -20.585 -20.157  0.00  0.00    +0.003 C 
ATOM     13  C   UNK A   0      34.123 -20.737 -20.355  0.00  0.00    +0.000 C 
ENDBRANCH   7   8
ENDBRANCH   6   7
ENDBRANCH   4   6
ENDBRANCH   1   3
BRANCH   1  15
ATOM     14  O   UNK A   1      41.031 -24.886 -14.173  0.00  0.00    -0.248 OA
ATOM     15  C   UNK A   1      40.117 -25.265 -14.895  0.00  0.00    +0.336 C 
BRANCH  15  16
ATOM     16  O   UNK A   1      40.323 -25.933 -16.060  0.00  0.00    -0.479 OA
ATOM     17  H   UNK A   1      39.654 -26.488 -16.408  0.00  0.00    +0.295 HD
ENDBRANCH  15  16
ENDBRANCH   1  15
BRANCH   1  18
ATOM     18  C   UNK A   1      37.876 -26.322 -14.597  0.00  0.00    +0.269 C 
BRANCH  18  19
ATOM     19  O   UNK A   1      36.829 -26.216 -13.644  0.00  0.00    -0.375 OA
BRANCH  19  20
ATOM     20  N   UNK A   1      37.265 -25.379 -12.610  0.00  0.00    -0.081 NA
ATOM     21  C   UNK A   1      36.282 -24.681 -12.135  0.00  0.00    +0.172 C 
BRANCH  21  23
ATOM     22  O   UNK A   1      37.299 -22.765 -11.150  0.00  0.00    -0.244 OA
ATOM     23  C   UNK A   1      36.622 -23.762 -11.000  0.00  0.00    +0.355 C 
BRANCH  23  24
ATOM     24  O   UNK A   1      36.046 -24.211  -9.877  0.00  0.00    -0.476 OA
ATOM     25  H   UNK A   1      35.255 -24.711  -9.926  0.00  0.00    +0.295 HD
ENDBRANCH  23  24
ENDBRANCH  21  23
BRANCH  21  26
ATOM     26  C   UNK A   1      34.835 -24.720 -12.571  0.00  0.00    +0.068 C 
BRANCH  26  27
ATOM     27  C   UNK A   1      34.520 -23.572 -13.527  0.00  0.00    +0.116 C 
BRANCH  27  29
ATOM     28  O   UNK A   1      32.980 -23.796 -15.405  0.00  0.00    -0.250 OA
ATOM     29  C   UNK A   1      34.061 -24.044 -14.890  0.00  0.00    +0.314 C 
BRANCH  29  30
ATOM     30  O   UNK A   1      35.014 -24.799 -15.497  0.00  0.00    -0.480 OA
ATOM     31  H   UNK A   1      34.769 -25.430 -16.145  0.00  0.00    +0.295 HD
ENDBRANCH  29  30
ENDBRANCH  27  29
ENDBRANCH  26  27
ENDBRANCH  21  26
ENDBRANCH  19  20
ENDBRANCH  18  19
ENDBRANCH   1  18
TORSDOF 15
ENDMDL
MODEL 2
REMARK VINA RESULT:      -8.8      1.686      4.627
REMARK  Name = 16741209
REMARK  15 active torsions:
REMARK  status: ('A' for Active; 'I' for Inactive)
REMARK    1  A    between atoms: C_1  and  N_3
REMARK    2  A    between atoms: C_1  and  C_15
REMARK    3  A    between atoms: C_1  and  C_18
REMARK    4  A    between atoms: C_4  and  C_6
REMARK    5  A    between atoms: C_6  and  O_7
REMARK    6  A    between atoms: O_7  and  C_8
REMARK    7  A    between atoms: C_15  and  O_16
REMARK    8  A    between atoms: C_18  and  O_19
REMARK    9  A    between atoms: O_19  and  N_20
REMARK   10  A    between atoms: C_21  and  C_23
REMARK   11  A    between atoms: C_21  and  C_26
REMARK   12  A    between atoms: C_23  and  O_24
REMARK   13  A    between atoms: C_26  and  C_27
REMARK   14  A    between atoms: C_27  and  C_29
REMARK   15  A    between atoms: C_29  and  O_30
REMARK                            x       y       z     vdW  Elec       q    Type
REMARK                         _______ _______ _______ _____ _____    ______ ____
ROOT
ATOM      1  C   UNK A   1      33.231 -23.980 -14.707  0.00  0.00    +0.218 C 
ENDROOT
BRANCH   1   3
ATOM      2  O   UNK A   0      33.515 -23.974 -17.591  0.00  0.00    -0.271 OA
ATOM      3  N   UNK A   1      34.140 -23.184 -15.495  0.00  0.00    -0.291 N 
ATOM      4  C   UNK A   0      34.205 -23.250 -16.878  0.00  0.00    +0.267 C 
ATOM      5  H   UNK A   1      34.745 -22.564 -15.027  0.00  0.00    +0.150 HD
BRANCH   4   6
ATOM      6  C   UNK A   0      35.247 -22.305 -17.439  0.00  0.00    +0.289 C 
BRANCH   6   7
ATOM      7  O   UNK A   0      35.329 -22.429 -18.842  0.00  0.00    -0.466 OA
BRANCH   7   8
ATOM      8  C   UNK A   0      34.829 -21.391 -19.594  0.00  0.00    +0.139 C 
ATOM      9  C   UNK A   0      33.452 -21.202 -19.694  0.00  0.00    +0.037 C 
ATOM     10  C   UNK A   0      35.703 -20.527 -20.255  0.00  0.00    +0.037 C 
ATOM     11  C   UNK A   0      32.945 -20.150 -20.458  0.00  0.00    +0.003 C 
ATOM     12  C   UNK A   0      35.197 -19.474 -21.018  0.00  0.00    +0.003 C 
ATOM     13  C   UNK A   0      33.818 -19.286 -21.120  0.00  0.00    +0.000 C 
ENDBRANCH   7   8
ENDBRANCH   6   7
ENDBRANCH   4   6
ENDBRANCH   1   3
BRANCH   1  15
ATOM     14  O   UNK A   1      31.248 -22.607 -15.041  0.00  0.00    -0.248 OA
ATOM     15  C   UNK A   1      32.089 -23.078 -14.286  0.00  0.00    +0.336 C 
BRANCH  15  16
ATOM     16  O   UNK A   1      32.126 -22.801 -12.957  0.00  0.00    -0.479 OA
ATOM     17  H   UNK A   1      32.147 -23.499 -12.332  0.00  0.00    +0.295 HD
ENDBRANCH  15  16
ENDBRANCH   1  15
BRANCH   1  18
ATOM     18  C   UNK A   1      33.918 -24.577 -13.488  0.00  0.00    +0.269 C 
BRANCH  18  19
ATOM     19  O   UNK A   1      35.311 -24.679 -13.741  0.00  0.00    -0.375 OA
BRANCH  19  20
ATOM     20  N   UNK A   1      35.974 -23.791 -12.886  0.00  0.00    -0.081 NA
ATOM     21  C   UNK A   1      37.227 -24.103 -12.777  0.00  0.00    +0.172 C 
BRANCH  21  23
ATOM     22  O   UNK A   1      39.241 -23.375 -11.733  0.00  0.00    -0.244 OA
ATOM     23  C   UNK A   1      38.051 -23.204 -11.903  0.00  0.00    +0.355 C 
BRANCH  23  24
ATOM     24  O   UNK A   1      37.274 -22.230 -11.412  0.00  0.00    -0.476 OA
ATOM     25  H   UNK A   1      36.393 -22.418 -11.156  0.00  0.00    +0.295 HD
ENDBRANCH  23  24
ENDBRANCH  21  23
BRANCH  21  26
ATOM     26  C   UNK A   1      37.951 -25.242 -13.460  0.00  0.00    +0.068 C 
BRANCH  26  27
ATOM     27  C   UNK A   1      38.549 -24.791 -14.790  0.00  0.00    +0.116 C 
BRANCH  27  29
ATOM     28  O   UNK A   1      40.906 -24.873 -14.165  0.00  0.00    -0.250 OA
ATOM     29  C   UNK A   1      40.007 -25.167 -14.941  0.00  0.00    +0.314 C 
BRANCH  29  30
ATOM     30  O   UNK A   1      40.215 -25.892 -16.072  0.00  0.00    -0.480 OA
ATOM     31  H   UNK A   1      40.771 -25.557 -16.748  0.00  0.00    +0.295 HD
ENDBRANCH  29  30
ENDBRANCH  27  29
ENDBRANCH  26  27
ENDBRANCH  21  26
ENDBRANCH  19  20
ENDBRANCH  18  19
ENDBRANCH   1  18
TORSDOF 15
ENDMDL
MODEL 3
REMARK VINA RESULT:      -8.8      2.213      4.718
REMARK  Name = 16741209
REMARK  15 active torsions:
REMARK  status: ('A' for Active; 'I' for Inactive)
REMARK    1  A    between atoms: C_1  and  N_3
REMARK    2  A    between atoms: C_1  and  C_15
REMARK    3  A    between atoms: C_1  and  C_18
REMARK    4  A    between atoms: C_4  and  C_6
REMARK    5  A    between atoms: C_6  and  O_7
REMARK    6  A    between atoms: O_7  and  C_8
REMARK    7  A    between atoms: C_15  and  O_16
REMARK    8  A    between atoms: C_18  and  O_19
REMARK    9  A    between atoms: O_19  and  N_20
REMARK   10  A    between atoms: C_21  and  C_23
REMARK   11  A    between atoms: C_21  and  C_26
REMARK   12  A    between atoms: C_23  and  O_24
REMARK   13  A    between atoms: C_26  and  C_27
REMARK   14  A    between atoms: C_27  and  C_29
REMARK   15  A    between atoms: C_29  and  O_30
REMARK                            x       y       z     vdW  Elec       q    Type
REMARK                         _______ _______ _______ _____ _____    ______ ____
ROOT
ATOM      1  C   UNK A   1      32.178 -24.334 -14.547  0.00  0.00    +0.218 C 
ENDROOT
BRANCH   1   3
ATOM      2  O   UNK A   0      34.494 -24.181 -16.282  0.00  0.00    -0.271 OA
ATOM      3  N   UNK A   1      32.274 -23.664 -15.820  0.00  0.00    -0.291 N 
ATOM      4  C   UNK A   0      33.431 -23.644 -16.583  0.00  0.00    +0.267 C 
ATOM      5  H   UNK A   1      31.478 -23.196 -16.164  0.00  0.00    +0.150 HD
BRANCH   4   6
ATOM      6  C   UNK A   0      33.243 -22.870 -17.871  0.00  0.00    +0.289 C 
BRANCH   6   7
ATOM      7  O   UNK A   0      34.491 -22.568 -18.458  0.00  0.00    -0.466 OA
BRANCH   7   8
ATOM      8  C   UNK A   0      34.523 -21.537 -19.368  0.00  0.00    +0.139 C 
ATOM      9  C   UNK A   0      33.333 -20.979 -19.833  0.00  0.00    +0.037 C 
ATOM     10  C   UNK A   0      35.748 -21.049 -19.824  0.00  0.00    +0.037 C 
ATOM     11  C   UNK A   0      33.366 -19.934 -20.756  0.00  0.00    +0.003 C 
ATOM     12  C   UNK A   0      35.781 -20.003 -20.747  0.00  0.00    +0.003 C 
ATOM     13  C   UNK A   0      34.591 -19.445 -21.213  0.00  0.00    +0.000 C 
ENDBRANCH   7   8
ENDBRANCH   6   7
ENDBRANCH   4   6
ENDBRANCH   1   3
BRANCH   1  15
ATOM     14  O   UNK A   1      29.810 -23.819 -14.784  0.00  0.00    -0.248 OA
ATOM     15  C   UNK A   1      30.726 -24.284 -14.117  0.00  0.00    +0.336 C 
BRANCH  15  16
ATOM     16  O   UNK A   1      30.552 -24.778 -12.864  0.00  0.00    -0.479 OA
ATOM     17  H   UNK A   1      31.174 -24.583 -12.191  0.00  0.00    +0.295 HD
ENDBRANCH  15  16
ENDBRANCH   1  15
BRANCH   1  18
ATOM     18  C   UNK A   1      33.068 -23.681 -13.500  0.00  0.00    +0.269 C 
BRANCH  18  19
ATOM     19  O   UNK A   1      34.029 -24.623 -13.050  0.00  0.00    -0.375 OA
BRANCH  19  20
ATOM     20  N   UNK A   1      34.676 -24.086 -11.931  0.00  0.00    -0.081 NA
ATOM     21  C   UNK A   1      35.955 -24.014 -12.126  0.00  0.00    +0.172 C 
BRANCH  21  23
ATOM     22  O   UNK A   1      37.576 -22.550 -11.175  0.00  0.00    -0.244 OA
ATOM     23  C   UNK A   1      36.755 -23.428 -11.001  0.00  0.00    +0.355 C 
BRANCH  23  24
ATOM     24  O   UNK A   1      36.387 -24.002  -9.849  0.00  0.00    -0.476 OA
ATOM     25  H   UNK A   1      35.478 -24.131  -9.660  0.00  0.00    +0.295 HD
ENDBRANCH  23  24
ENDBRANCH  21  23
BRANCH  21  26
ATOM     26  C   UNK A   1      36.716 -24.418 -13.368  0.00  0.00    +0.068 C 
BRANCH  26  27
ATOM     27  C   UNK A   1      37.313 -25.815 -13.214  0.00  0.00    +0.116 C 
BRANCH  27  29
ATOM     28  O   UNK A   1      37.992 -27.374 -14.964  0.00  0.00    -0.250 OA
ATOM     29  C   UNK A   1      37.131 -26.676 -14.446  0.00  0.00    +0.314 C 
BRANCH  29  30
ATOM     30  O   UNK A   1      35.864 -26.585 -14.929  0.00  0.00    -0.480 OA
ATOM     31  H   UNK A   1      35.289 -25.916 -14.613  0.00  0.00    +0.295 HD
ENDBRANCH  29  30
ENDBRANCH  27  29
ENDBRANCH  26  27
ENDBRANCH  21  26
ENDBRANCH  19  20
ENDBRANCH  18  19
ENDBRANCH   1  18
TORSDOF 15
ENDMDL
MODEL 4
REMARK VINA RESULT:      -8.7      1.865      4.421
REMARK  Name = 16741209
REMARK  15 active torsions:
REMARK  status: ('A' for Active; 'I' for Inactive)
REMARK    1  A    between atoms: C_1  and  N_3
REMARK    2  A    between atoms: C_1  and  C_15
REMARK    3  A    between atoms: C_1  and  C_18
REMARK    4  A    between atoms: C_4  and  C_6
REMARK    5  A    between atoms: C_6  and  O_7
REMARK    6  A    between atoms: O_7  and  C_8
REMARK    7  A    between atoms: C_15  and  O_16
REMARK    8  A    between atoms: C_18  and  O_19
REMARK    9  A    between atoms: O_19  and  N_20
REMARK   10  A    between atoms: C_21  and  C_23
REMARK   11  A    between atoms: C_21  and  C_26
REMARK   12  A    between atoms: C_23  and  O_24
REMARK   13  A    between atoms: C_26  and  C_27
REMARK   14  A    between atoms: C_27  and  C_29
REMARK   15  A    between atoms: C_29  and  O_30
REMARK                            x       y       z     vdW  Elec       q    Type
REMARK                         _______ _______ _______ _____ _____    ______ ____
ROOT
ATOM      1  C   UNK A   1      32.860 -23.967 -14.990  0.00  0.00    +0.218 C 
ENDROOT
BRANCH   1   3
ATOM      2  O   UNK A   0      33.341 -23.979 -17.847  0.00  0.00    -0.271 OA
ATOM      3  N   UNK A   1      33.830 -23.185 -15.717  0.00  0.00    -0.291 N 
ATOM      4  C   UNK A   0      33.988 -23.259 -17.092  0.00  0.00    +0.267 C 
ATOM      5  H   UNK A   1      34.408 -22.568 -15.211  0.00  0.00    +0.150 HD
BRANCH   4   6
ATOM      6  C   UNK A   0      35.076 -22.328 -17.584  0.00  0.00    +0.289 C 
BRANCH   6   7
ATOM      7  O   UNK A   0      35.202 -22.404 -18.988  0.00  0.00    -0.466 OA
BRANCH   7   8
ATOM      8  C   UNK A   0      34.762 -21.324 -19.717  0.00  0.00    +0.139 C 
ATOM      9  C   UNK A   0      33.396 -21.070 -19.833  0.00  0.00    +0.037 C 
ATOM     10  C   UNK A   0      35.685 -20.482 -20.339  0.00  0.00    +0.037 C 
ATOM     11  C   UNK A   0      32.950 -19.975 -20.573  0.00  0.00    +0.003 C 
ATOM     12  C   UNK A   0      35.239 -19.386 -21.078  0.00  0.00    +0.003 C 
ATOM     13  C   UNK A   0      33.873 -19.132 -21.196  0.00  0.00    +0.000 C 
ENDBRANCH   7   8
ENDBRANCH   6   7
ENDBRANCH   4   6
ENDBRANCH   1   3
BRANCH   1  15
ATOM     14  O   UNK A   1      30.998 -22.415 -14.755  0.00  0.00    -0.248 OA
ATOM     15  C   UNK A   1      31.954 -22.997 -14.258  0.00  0.00    +0.336 C 
BRANCH  15  16
ATOM     16  O   UNK A   1      32.354 -22.802 -12.975  0.00  0.00    -0.479 OA
ATOM     17  H   UNK A   1      32.055 -23.375 -12.297  0.00  0.00    +0.295 HD
ENDBRANCH  15  16
ENDBRANCH   1  15
BRANCH   1  18
ATOM     18  C   UNK A   1      33.527 -24.919 -14.009  0.00  0.00    +0.269 C 
BRANCH  18  19
ATOM     19  O   UNK A   1      34.923 -24.665 -13.988  0.00  0.00    -0.375 OA
BRANCH  19  20
ATOM     20  N   UNK A   1      35.208 -23.894 -12.854  0.00  0.00    -0.081 NA
ATOM     21  C   UNK A   1      36.179 -24.416 -12.173  0.00  0.00    +0.172 C 
BRANCH  21  23
ATOM     22  O   UNK A   1      37.333 -22.700 -10.990  0.00  0.00    -0.244 OA
ATOM     23  C   UNK A   1      36.594 -23.663 -10.945  0.00  0.00    +0.355 C 
BRANCH  23  24
ATOM     24  O   UNK A   1      36.004 -24.205  -9.872  0.00  0.00    -0.476 OA
ATOM     25  H   UNK A   1      35.653 -25.072  -9.919  0.00  0.00    +0.295 HD
ENDBRANCH  23  24
ENDBRANCH  21  23
BRANCH  21  26
ATOM     26  C   UNK A   1      36.958 -25.670 -12.501  0.00  0.00    +0.068 C 
BRANCH  26  27
ATOM     27  C   UNK A   1      38.297 -25.329 -13.150  0.00  0.00    +0.116 C 
BRANCH  27  29
ATOM     28  O   UNK A   1      39.287 -26.746 -14.872  0.00  0.00    -0.250 OA
ATOM     29  C   UNK A   1      38.451 -25.919 -14.535  0.00  0.00    +0.314 C 
BRANCH  29  30
ATOM     30  O   UNK A   1      37.527 -25.411 -15.393  0.00  0.00    -0.480 OA
ATOM     31  H   UNK A   1      37.614 -25.554 -16.314  0.00  0.00    +0.295 HD
ENDBRANCH  29  30
ENDBRANCH  27  29
ENDBRANCH  26  27
ENDBRANCH  21  26
ENDBRANCH  19  20
ENDBRANCH  18  19
ENDBRANCH   1  18
TORSDOF 15
ENDMDL
MODEL 5
REMARK VINA RESULT:      -8.6      1.979      4.840
REMARK  Name = 16741209
REMARK  15 active torsions:
REMARK  status: ('A' for Active; 'I' for Inactive)
REMARK    1  A    between atoms: C_1  and  N_3
REMARK    2  A    between atoms: C_1  and  C_15
REMARK    3  A    between atoms: C_1  and  C_18
REMARK    4  A    between atoms: C_4  and  C_6
REMARK    5  A    between atoms: C_6  and  O_7
REMARK    6  A    between atoms: O_7  and  C_8
REMARK    7  A    between atoms: C_15  and  O_16
REMARK    8  A    between atoms: C_18  and  O_19
REMARK    9  A    between atoms: O_19  and  N_20
REMARK   10  A    between atoms: C_21  and  C_23
REMARK   11  A    between atoms: C_21  and  C_26
REMARK   12  A    between atoms: C_23  and  O_24
REMARK   13  A    between atoms: C_26  and  C_27
REMARK   14  A    between atoms: C_27  and  C_29
REMARK   15  A    between atoms: C_29  and  O_30
REMARK                            x       y       z     vdW  Elec       q    Type
REMARK                         _______ _______ _______ _____ _____    ______ ____
ROOT
ATOM      1  C   UNK A   1      33.307 -24.093 -15.126  0.00  0.00    +0.218 C 
ENDROOT
BRANCH   1   3
ATOM      2  O   UNK A   0      33.843 -24.095 -17.973  0.00  0.00    -0.271 OA
ATOM      3  N   UNK A   1      32.868 -23.123 -16.099  0.00  0.00    -0.291 N 
ATOM      4  C   UNK A   0      33.177 -23.208 -17.448  0.00  0.00    +0.267 C 
ATOM      5  H   UNK A   1      32.323 -22.362 -15.790  0.00  0.00    +0.150 HD
BRANCH   4   6
ATOM      6  C   UNK A   0      32.585 -22.057 -18.234  0.00  0.00    +0.289 C 
BRANCH   6   7
ATOM      7  O   UNK A   0      32.968 -22.129 -19.591  0.00  0.00    -0.466 OA
BRANCH   7   8
ATOM      8  C   UNK A   0      33.763 -21.115 -20.073  0.00  0.00    +0.139 C 
ATOM      9  C   UNK A   0      33.186 -20.024 -20.720  0.00  0.00    +0.037 C 
ATOM     10  C   UNK A   0      35.148 -21.180 -19.913  0.00  0.00    +0.037 C 
ATOM     11  C   UNK A   0      33.992 -18.996 -21.210  0.00  0.00    +0.003 C 
ATOM     12  C   UNK A   0      35.954 -20.152 -20.402  0.00  0.00    +0.003 C 
ATOM     13  C   UNK A   0      35.377 -19.061 -21.051  0.00  0.00    +0.000 C 
ENDBRANCH   7   8
ENDBRANCH   6   7
ENDBRANCH   4   6
ENDBRANCH   1   3
BRANCH   1  15
ATOM     14  O   UNK A   1      31.309 -24.161 -13.735  0.00  0.00    -0.248 OA
ATOM     15  C   UNK A   1      32.491 -23.872 -13.868  0.00  0.00    +0.336 C 
BRANCH  15  16
ATOM     16  O   UNK A   1      33.216 -23.260 -12.896  0.00  0.00    -0.479 OA
ATOM     17  H   UNK A   1      32.832 -23.095 -12.057  0.00  0.00    +0.295 HD
ENDBRANCH  15  16
ENDBRANCH   1  15
BRANCH   1  18
ATOM     18  C   UNK A   1      34.793 -23.959 -14.829  0.00  0.00    +0.269 C 
BRANCH  18  19
ATOM     19  O   UNK A   1      35.360 -25.253 -14.695  0.00  0.00    -0.375 OA
BRANCH  19  20
ATOM     20  N   UNK A   1      36.653 -25.220 -15.232  0.00  0.00    -0.081 NA
ATOM     21  C   UNK A   1      37.534 -25.524 -14.332  0.00  0.00    +0.172 C 
BRANCH  21  23
ATOM     22  O   UNK A   1      39.679 -26.513 -14.643  0.00  0.00    -0.244 OA
ATOM     23  C   UNK A   1      38.960 -25.547 -14.796  0.00  0.00    +0.355 C 
BRANCH  23  24
ATOM     24  O   UNK A   1      39.249 -24.386 -15.398  0.00  0.00    -0.476 OA
ATOM     25  H   UNK A   1      39.215 -23.586 -14.911  0.00  0.00    +0.295 HD
ENDBRANCH  23  24
ENDBRANCH  21  23
BRANCH  21  26
ATOM     26  C   UNK A   1      37.281 -25.893 -12.888  0.00  0.00    +0.068 C 
BRANCH  26  27
ATOM     27  C   UNK A   1      37.334 -24.660 -11.990  0.00  0.00    +0.116 C 
BRANCH  27  29
ATOM     28  O   UNK A   1      36.161 -24.069  -9.934  0.00  0.00    -0.250 OA
ATOM     29  C   UNK A   1      36.147 -24.554 -11.057  0.00  0.00    +0.314 C 
BRANCH  29  30
ATOM     30  O   UNK A   1      35.026 -25.074 -11.624  0.00  0.00    -0.480 OA
ATOM     31  H   UNK A   1      34.799 -25.971 -11.475  0.00  0.00    +0.295 HD
ENDBRANCH  29  30
ENDBRANCH  27  29
ENDBRANCH  26  27
ENDBRANCH  21  26
ENDBRANCH  19  20
ENDBRANCH  18  19
ENDBRANCH   1  18
TORSDOF 15
ENDMDL
MODEL 6
REMARK VINA RESULT:      -8.5      2.518      4.002
REMARK  Name = 16741209
REMARK  15 active torsions:
REMARK  status: ('A' for Active; 'I' for Inactive)
REMARK    1  A    between atoms: C_1  and  N_3
REMARK    2  A    between atoms: C_1  and  C_15
REMARK    3  A    between atoms: C_1  and  C_18
REMARK    4  A    between atoms: C_4  and  C_6
REMARK    5  A    between atoms: C_6  and  O_7
REMARK    6  A    between atoms: O_7  and  C_8
REMARK    7  A    between atoms: C_15  and  O_16
REMARK    8  A    between atoms: C_18  and  O_19
REMARK    9  A    between atoms: O_19  and  N_20
REMARK   10  A    between atoms: C_21  and  C_23
REMARK   11  A    between atoms: C_21  and  C_26
REMARK   12  A    between atoms: C_23  and  O_24
REMARK   13  A    between atoms: C_26  and  C_27
REMARK   14  A    between atoms: C_27  and  C_29
REMARK   15  A    between atoms: C_29  and  O_30
REMARK                            x       y       z     vdW  Elec       q    Type
REMARK                         _______ _______ _______ _____ _____    ______ ____
ROOT
ATOM      1  C   UNK A   1      36.485 -24.299 -14.178  0.00  0.00    +0.218 C 
ENDROOT
BRANCH   1   3
ATOM      2  O   UNK A   0      38.547 -23.086 -15.813  0.00  0.00    -0.271 OA
ATOM      3  N   UNK A   1      36.302 -23.407 -15.297  0.00  0.00    -0.291 N 
ATOM      4  C   UNK A   0      37.356 -22.873 -16.023  0.00  0.00    +0.267 C 
ATOM      5  H   UNK A   1      35.383 -23.165 -15.557  0.00  0.00    +0.150 HD
BRANCH   4   6
ATOM      6  C   UNK A   0      36.870 -21.973 -17.139  0.00  0.00    +0.289 C 
BRANCH   6   7
ATOM      7  O   UNK A   0      35.748 -22.537 -17.783  0.00  0.00    -0.466 OA
BRANCH   7   8
ATOM      8  C   UNK A   0      35.149 -21.789 -18.769  0.00  0.00    +0.139 C 
ATOM      9  C   UNK A   0      35.920 -20.959 -19.581  0.00  0.00    +0.037 C 
ATOM     10  C   UNK A   0      33.768 -21.863 -18.958  0.00  0.00    +0.037 C 
ATOM     11  C   UNK A   0      35.312 -20.199 -20.581  0.00  0.00    +0.003 C 
ATOM     12  C   UNK A   0      33.160 -21.105 -19.958  0.00  0.00    +0.003 C 
ATOM     13  C   UNK A   0      33.931 -20.273 -20.770  0.00  0.00    +0.000 C 
ENDBRANCH   7   8
ENDBRANCH   6   7
ENDBRANCH   4   6
ENDBRANCH   1   3
BRANCH   1  15
ATOM     14  O   UNK A   1      37.680 -26.280 -14.938  0.00  0.00    -0.248 OA
ATOM     15  C   UNK A   1      36.620 -25.701 -14.735  0.00  0.00    +0.336 C 
BRANCH  15  16
ATOM     16  O   UNK A   1      35.412 -26.244 -15.038  0.00  0.00    -0.479 OA
ATOM     17  H   UNK A   1      35.024 -26.876 -14.465  0.00  0.00    +0.295 HD
ENDBRANCH  15  16
ENDBRANCH   1  15
BRANCH   1  18
ATOM     18  C   UNK A   1      35.322 -24.222 -13.201  0.00  0.00    +0.269 C 
BRANCH  18  19
ATOM     19  O   UNK A   1      34.166 -23.765 -13.887  0.00  0.00    -0.375 OA
BRANCH  19  20
ATOM     20  N   UNK A   1      33.125 -24.667 -13.635  0.00  0.00    -0.081 NA
ATOM     21  C   UNK A   1      31.986 -24.174 -14.006  0.00  0.00    +0.172 C 
BRANCH  21  23
ATOM     22  O   UNK A   1      30.412 -25.837 -14.663  0.00  0.00    -0.244 OA
ATOM     23  C   UNK A   1      30.794 -25.062 -13.809  0.00  0.00    +0.355 C 
BRANCH  23  24
ATOM     24  O   UNK A   1      30.294 -24.868 -12.582  0.00  0.00    -0.476 OA
ATOM     25  H   UNK A   1      30.819 -25.050 -11.829  0.00  0.00    +0.295 HD
ENDBRANCH  23  24
ENDBRANCH  21  23
BRANCH  21  26
ATOM     26  C   UNK A   1      31.735 -22.827 -14.646  0.00  0.00    +0.068 C 
BRANCH  26  27
ATOM     27  C   UNK A   1      31.094 -22.985 -16.022  0.00  0.00    +0.116 C 
BRANCH  27  29
ATOM     28  O   UNK A   1      28.951 -22.310 -15.070  0.00  0.00    -0.250 OA
ATOM     29  C   UNK A   1      29.638 -22.572 -16.048  0.00  0.00    +0.314 C 
BRANCH  29  30
ATOM     30  O   UNK A   1      29.161 -22.522 -17.320  0.00  0.00    -0.480 OA
ATOM     31  H   UNK A   1      29.691 -22.824 -18.031  0.00  0.00    +0.295 HD
ENDBRANCH  29  30
ENDBRANCH  27  29
ENDBRANCH  26  27
ENDBRANCH  21  26
ENDBRANCH  19  20
ENDBRANCH  18  19
ENDBRANCH   1  18
TORSDOF 15
ENDMDL
MODEL 7
REMARK VINA RESULT:      -8.4      2.061      4.925
REMARK  Name = 16741209
REMARK  15 active torsions:
REMARK  status: ('A' for Active; 'I' for Inactive)
REMARK    1  A    between atoms: C_1  and  N_3
REMARK    2  A    between atoms: C_1  and  C_15
REMARK    3  A    between atoms: C_1  and  C_18
REMARK    4  A    between atoms: C_4  and  C_6
REMARK    5  A    between atoms: C_6  and  O_7
REMARK    6  A    between atoms: O_7  and  C_8
REMARK    7  A    between atoms: C_15  and  O_16
REMARK    8  A    between atoms: C_18  and  O_19
REMARK    9  A    between atoms: O_19  and  N_20
REMARK   10  A    between atoms: C_21  and  C_23
REMARK   11  A    between atoms: C_21  and  C_26
REMARK   12  A    between atoms: C_23  and  O_24
REMARK   13  A    between atoms: C_26  and  C_27
REMARK   14  A    between atoms: C_27  and  C_29
REMARK   15  A    between atoms: C_29  and  O_30
REMARK                            x       y       z     vdW  Elec       q    Type
REMARK                         _______ _______ _______ _____ _____    ______ ____
ROOT
ATOM      1  C   UNK A   1      33.017 -24.244 -14.431  0.00  0.00    +0.218 C 
ENDROOT
BRANCH   1   3
ATOM      2  O   UNK A   0      34.968 -24.006 -16.560  0.00  0.00    -0.271 OA
ATOM      3  N   UNK A   1      32.858 -23.558 -15.690  0.00  0.00    -0.291 N 
ATOM      4  C   UNK A   0      33.855 -23.497 -16.653  0.00  0.00    +0.267 C 
ATOM      5  H   UNK A   1      32.001 -23.110 -15.874  0.00  0.00    +0.150 HD
BRANCH   4   6
ATOM      6  C   UNK A   0      33.412 -22.715 -17.871  0.00  0.00    +0.289 C 
BRANCH   6   7
ATOM      7  O   UNK A   0      34.479 -22.568 -18.784  0.00  0.00    -0.466 OA
BRANCH   7   8
ATOM      8  C   UNK A   0      34.455 -21.464 -19.604  0.00  0.00    +0.139 C 
ATOM      9  C   UNK A   0      33.237 -20.894 -19.972  0.00  0.00    +0.037 C 
ATOM     10  C   UNK A   0      35.651 -20.915 -20.068  0.00  0.00    +0.037 C 
ATOM     11  C   UNK A   0      33.212 -19.775 -20.804  0.00  0.00    +0.003 C 
ATOM     12  C   UNK A   0      35.627 -19.796 -20.899  0.00  0.00    +0.003 C 
ATOM     13  C   UNK A   0      34.409 -19.226 -21.269  0.00  0.00    +0.000 C 
ENDBRANCH   7   8
ENDBRANCH   6   7
ENDBRANCH   4   6
ENDBRANCH   1   3
BRANCH   1  15
ATOM     14  O   UNK A   1      31.263 -25.126 -12.992  0.00  0.00    -0.248 OA
ATOM     15  C   UNK A   1      31.666 -24.250 -13.746  0.00  0.00    +0.336 C 
BRANCH  15  16
ATOM     16  O   UNK A   1      30.912 -23.179 -14.104  0.00  0.00    -0.479 OA
ATOM     17  H   UNK A   1      31.133 -22.323 -13.792  0.00  0.00    +0.295 HD
ENDBRANCH  15  16
ENDBRANCH   1  15
BRANCH   1  18
ATOM     18  C   UNK A   1      34.058 -23.569 -13.551  0.00  0.00    +0.269 C 
BRANCH  18  19
ATOM     19  O   UNK A   1      34.954 -24.551 -13.052  0.00  0.00    -0.375 OA
BRANCH  19  20
ATOM     20  N   UNK A   1      35.488 -25.248 -14.142  0.00  0.00    -0.081 NA
ATOM     21  C   UNK A   1      36.619 -25.798 -13.830  0.00  0.00    +0.172 C 
BRANCH  21  23
ATOM     22  O   UNK A   1      38.380 -27.088 -14.782  0.00  0.00    -0.244 OA
ATOM     23  C   UNK A   1      37.278 -26.597 -14.915  0.00  0.00    +0.355 C 
BRANCH  23  24
ATOM     24  O   UNK A   1      36.454 -26.681 -15.967  0.00  0.00    -0.476 OA
ATOM     25  H   UNK A   1      35.568 -26.387 -15.892  0.00  0.00    +0.295 HD
ENDBRANCH  23  24
ENDBRANCH  21  23
BRANCH  21  26
ATOM     26  C   UNK A   1      37.321 -25.754 -12.492  0.00  0.00    +0.068 C 
BRANCH  26  27
ATOM     27  C   UNK A   1      38.270 -24.561 -12.409  0.00  0.00    +0.116 C 
BRANCH  27  29
ATOM     28  O   UNK A   1      37.919 -22.206 -11.882  0.00  0.00    -0.250 OA
ATOM     29  C   UNK A   1      37.680 -23.385 -11.662  0.00  0.00    +0.314 C 
BRANCH  29  30
ATOM     30  O   UNK A   1      36.826 -23.797 -10.688  0.00  0.00    -0.480 OA
ATOM     31  H   UNK A   1      36.754 -23.311  -9.891  0.00  0.00    +0.295 HD
ENDBRANCH  29  30
ENDBRANCH  27  29
ENDBRANCH  26  27
ENDBRANCH  21  26
ENDBRANCH  19  20
ENDBRANCH  18  19
ENDBRANCH   1  18
TORSDOF 15
ENDMDL
MODEL 8
REMARK VINA RESULT:      -8.2      2.430      4.523
REMARK  Name = 16741209
REMARK  15 active torsions:
REMARK  status: ('A' for Active; 'I' for Inactive)
REMARK    1  A    between atoms: C_1  and  N_3
REMARK    2  A    between atoms: C_1  and  C_15
REMARK    3  A    between atoms: C_1  and  C_18
REMARK    4  A    between atoms: C_4  and  C_6
REMARK    5  A    between atoms: C_6  and  O_7
REMARK    6  A    between atoms: O_7  and  C_8
REMARK    7  A    between atoms: C_15  and  O_16
REMARK    8  A    between atoms: C_18  and  O_19
REMARK    9  A    between atoms: O_19  and  N_20
REMARK   10  A    between atoms: C_21  and  C_23
REMARK   11  A    between atoms: C_21  and  C_26
REMARK   12  A    between atoms: C_23  and  O_24
REMARK   13  A    between atoms: C_26  and  C_27
REMARK   14  A    between atoms: C_27  and  C_29
REMARK   15  A    between atoms: C_29  and  O_30
REMARK                            x       y       z     vdW  Elec       q    Type
REMARK                         _______ _______ _______ _____ _____    ______ ____
ROOT
ATOM      1  C   UNK A   1      35.439 -22.829 -17.013  0.00  0.00    +0.218 C 
ENDROOT
BRANCH   1   3
ATOM      2  O   UNK A   0      34.189 -23.328 -19.579  0.00  0.00    -0.271 OA
ATOM      3  N   UNK A   1      34.989 -21.850 -17.971  0.00  0.00    -0.291 N 
ATOM      4  C   UNK A   0      34.399 -22.186 -19.181  0.00  0.00    +0.267 C 
ATOM      5  H   UNK A   1      35.107 -20.896 -17.757  0.00  0.00    +0.150 HD
BRANCH   4   6
ATOM      6  C   UNK A   0      34.026 -20.959 -19.985  0.00  0.00    +0.289 C 
BRANCH   6   7
ATOM      7  O   UNK A   0      35.156 -20.141 -20.201  0.00  0.00    -0.466 OA
BRANCH   7   8
ATOM      8  C   UNK A   0      35.084 -19.229 -21.228  0.00  0.00    +0.139 C 
ATOM      9  C   UNK A   0      34.900 -19.666 -22.538  0.00  0.00    +0.037 C 
ATOM     10  C   UNK A   0      35.192 -17.864 -20.956  0.00  0.00    +0.037 C 
ATOM     11  C   UNK A   0      34.828 -18.741 -23.580  0.00  0.00    +0.003 C 
ATOM     12  C   UNK A   0      35.119 -16.939 -21.996  0.00  0.00    +0.003 C 
ATOM     13  C   UNK A   0      34.937 -17.376 -23.308  0.00  0.00    +0.000 C 
ENDBRANCH   7   8
ENDBRANCH   6   7
ENDBRANCH   4   6
ENDBRANCH   1   3
BRANCH   1  15
ATOM     14  O   UNK A   1      33.182 -23.507 -16.400  0.00  0.00    -0.248 OA
ATOM     15  C   UNK A   1      34.286 -23.098 -16.067  0.00  0.00    +0.336 C 
BRANCH  15  16
ATOM     16  O   UNK A   1      34.602 -22.785 -14.783  0.00  0.00    -0.479 OA
ATOM     17  H   UNK A   1      33.938 -22.789 -14.121  0.00  0.00    +0.295 HD
ENDBRANCH  15  16
ENDBRANCH   1  15
BRANCH   1  18
ATOM     18  C   UNK A   1      36.659 -22.344 -16.245  0.00  0.00    +0.269 C 
BRANCH  18  19
ATOM     19  O   UNK A   1      37.295 -23.455 -15.630  0.00  0.00    -0.375 OA
BRANCH  19  20
ATOM     20  N   UNK A   1      37.343 -23.220 -14.251  0.00  0.00    -0.081 NA
ATOM     21  C   UNK A   1      37.962 -24.181 -13.640  0.00  0.00    +0.172 C 
BRANCH  21  23
ATOM     22  O   UNK A   1      38.946 -23.319 -11.649  0.00  0.00    -0.244 OA
ATOM     23  C   UNK A   1      38.100 -24.028 -12.154  0.00  0.00    +0.355 C 
BRANCH  23  24
ATOM     24  O   UNK A   1      37.153 -24.752 -11.544  0.00  0.00    -0.476 OA
ATOM     25  H   UNK A   1      37.380 -25.554 -11.116  0.00  0.00    +0.295 HD
ENDBRANCH  23  24
ENDBRANCH  21  23
BRANCH  21  26
ATOM     26  C   UNK A   1      38.588 -25.409 -14.261  0.00  0.00    +0.068 C 
BRANCH  26  27
ATOM     27  C   UNK A   1      37.663 -26.617 -14.137  0.00  0.00    +0.116 C 
BRANCH  27  29
ATOM     28  O   UNK A   1      36.686 -27.359 -16.246  0.00  0.00    -0.250 OA
ATOM     29  C   UNK A   1      36.619 -26.679 -15.231  0.00  0.00    +0.314 C 
BRANCH  29  30
ATOM     30  O   UNK A   1      35.562 -25.871 -14.951  0.00  0.00    -0.480 OA
ATOM     31  H   UNK A   1      35.555 -24.987 -15.261  0.00  0.00    +0.295 HD
ENDBRANCH  29  30
ENDBRANCH  27  29
ENDBRANCH  26  27
ENDBRANCH  21  26
ENDBRANCH  19  20
ENDBRANCH  18  19
ENDBRANCH   1  18
TORSDOF 15
ENDMDL
MODEL 9
REMARK VINA RESULT:      -8.2     10.125     14.136
REMARK  Name = 16741209
REMARK  15 active torsions:
REMARK  status: ('A' for Active; 'I' for Inactive)
REMARK    1  A    between atoms: C_1  and  N_3
REMARK    2  A    between atoms: C_1  and  C_15
REMARK    3  A    between atoms: C_1  and  C_18
REMARK    4  A    between atoms: C_4  and  C_6
REMARK    5  A    between atoms: C_6  and  O_7
REMARK    6  A    between atoms: O_7  and  C_8
REMARK    7  A    between atoms: C_15  and  O_16
REMARK    8  A    between atoms: C_18  and  O_19
REMARK    9  A    between atoms: O_19  and  N_20
REMARK   10  A    between atoms: C_21  and  C_23
REMARK   11  A    between atoms: C_21  and  C_26
REMARK   12  A    between atoms: C_23  and  O_24
REMARK   13  A    between atoms: C_26  and  C_27
REMARK   14  A    between atoms: C_27  and  C_29
REMARK   15  A    between atoms: C_29  and  O_30
REMARK                            x       y       z     vdW  Elec       q    Type
REMARK                         _______ _______ _______ _____ _____    ______ ____
ROOT
ATOM      1  C   UNK A   1      33.170 -14.278 -24.380  0.00  0.00    +0.218 C 
ENDROOT
BRANCH   1   3
ATOM      2  O   UNK A   0      32.226 -14.987 -21.733  0.00  0.00    -0.271 OA
ATOM      3  N   UNK A   1      33.813 -15.149 -23.427  0.00  0.00    -0.291 N 
ATOM      4  C   UNK A   0      33.282 -15.430 -22.177  0.00  0.00    +0.267 C 
ATOM      5  H   UNK A   1      34.671 -15.563 -23.676  0.00  0.00    +0.150 HD
BRANCH   4   6
ATOM      6  C   UNK A   0      34.167 -16.373 -21.390  0.00  0.00    +0.289 C 
BRANCH   6   7
ATOM      7  O   UNK A   0      34.359 -17.581 -22.093  0.00  0.00    -0.466 OA
BRANCH   7   8
ATOM      8  C   UNK A   0      34.372 -18.742 -21.355  0.00  0.00    +0.139 C 
ATOM      9  C   UNK A   0      33.173 -19.310 -20.927  0.00  0.00    +0.037 C 
ATOM     10  C   UNK A   0      35.586 -19.351 -21.036  0.00  0.00    +0.037 C 
ATOM     11  C   UNK A   0      33.186 -20.486 -20.177  0.00  0.00    +0.003 C 
ATOM     12  C   UNK A   0      35.600 -20.528 -20.287  0.00  0.00    +0.003 C 
ATOM     13  C   UNK A   0      34.400 -21.096 -19.857  0.00  0.00    +0.000 C 
ENDBRANCH   7   8
ENDBRANCH   6   7
ENDBRANCH   4   6
ENDBRANCH   1   3
BRANCH   1  15
ATOM     14  O   UNK A   1      33.950 -15.876 -26.044  0.00  0.00    -0.248 OA
ATOM     15  C   UNK A   1      33.167 -14.993 -25.716  0.00  0.00    +0.336 C 
BRANCH  15  16
ATOM     16  O   UNK A   1      32.211 -14.507 -26.548  0.00  0.00    -0.479 OA
ATOM     17  H   UNK A   1      31.579 -13.892 -26.231  0.00  0.00    +0.295 HD
ENDBRANCH  15  16
ENDBRANCH   1  15
BRANCH   1  18
ATOM     18  C   UNK A   1      33.886 -12.941 -24.492  0.00  0.00    +0.269 C 
BRANCH  18  19
ATOM     19  O   UNK A   1      33.176 -11.967 -23.741  0.00  0.00    -0.375 OA
BRANCH  19  20
ATOM     20  N   UNK A   1      33.868 -10.754 -23.838  0.00  0.00    -0.081 NA
ATOM     21  C   UNK A   1      33.146  -9.774 -23.393  0.00  0.00    +0.172 C 
BRANCH  21  23
ATOM     22  O   UNK A   1      33.175  -7.400 -23.193  0.00  0.00    -0.244 OA
ATOM     23  C   UNK A   1      33.792  -8.421 -23.422  0.00  0.00    +0.355 C 
BRANCH  23  24
ATOM     24  O   UNK A   1      35.095  -8.557 -23.699  0.00  0.00    -0.476 OA
ATOM     25  H   UNK A   1      35.728  -8.048 -23.233  0.00  0.00    +0.295 HD
ENDBRANCH  23  24
ENDBRANCH  21  23
BRANCH  21  26
ATOM     26  C   UNK A   1      31.750  -9.852 -22.816  0.00  0.00    +0.068 C 
BRANCH  26  27
ATOM     27  C   UNK A   1      31.791  -9.948 -21.293  0.00  0.00    +0.116 C 
BRANCH  27  29
ATOM     28  O   UNK A   1      31.611 -11.713 -19.618  0.00  0.00    -0.250 OA
ATOM     29  C   UNK A   1      31.512 -11.345 -20.780  0.00  0.00    +0.314 C 
BRANCH  29  30
ATOM     30  O   UNK A   1      31.126 -12.172 -21.787  0.00  0.00    -0.480 OA
ATOM     31  H   UNK A   1      31.741 -12.427 -22.446  0.00  0.00    +0.295 HD
ENDBRANCH  29  30
ENDBRANCH  27  29
ENDBRANCH  26  27
ENDBRANCH  21  26
ENDBRANCH  19  20
ENDBRANCH  18  19
ENDBRANCH   1  18
TORSDOF 15
ENDMDL
