MODEL 1
REMARK VINA RESULT:      -9.5      0.000      0.000
REMARK  Name = 6006216
REMARK  7 active torsions:
REMARK  status: ('A' for Active; 'I' for Inactive)
REMARK    1  A    between atoms: C_2  and  C_6
REMARK    2  A    between atoms: C_3  and  C_17
REMARK    3  A    between atoms: C_9  and  C_13
REMARK    4  A    between atoms: C_13  and  O_14
REMARK    5  A    between atoms: C_16  and  N_20
REMARK    6  A    between atoms: C_16  and  C_21
REMARK    7  A    between atoms: C_21  and  C_22
REMARK                            x       y       z     vdW  Elec       q    Type
REMARK                         _______ _______ _______ _____ _____    ______ ____
ROOT
ATOM      1  O   UNL     1      33.456 -22.911 -16.672  0.00  0.00    -0.453 OA
ATOM      2  C   UNL     1      33.167 -23.716 -15.614  0.00  0.00    +0.145 C 
ATOM      3  C   UNL     1      34.803 -22.821 -16.718  0.00  0.00    +0.147 C 
ATOM      4  C   UNL     1      34.324 -24.133 -14.996  0.00  0.00    +0.041 C 
ATOM      5  C   UNL     1      35.389 -23.546 -15.719  0.00  0.00    +0.041 C 
ENDROOT
BRANCH   2   6
ATOM      6  C   UNL     1      31.771 -23.949 -15.380  0.00  0.00    +0.035 C 
ATOM      7  C   UNL     1      30.809 -23.368 -16.211  0.00  0.00    +0.009 C 
ATOM      8  C   UNL     1      31.363 -24.763 -14.318  0.00  0.00    +0.003 C 
ATOM      9  C   UNL     1      29.452 -23.597 -15.982  0.00  0.00    +0.076 C 
ATOM     10  C   UNL     1      30.007 -24.991 -14.089  0.00  0.00    +0.000 C 
ATOM     11  C   UNL     1      29.051 -24.409 -14.921  0.00  0.00    +0.006 C 
BRANCH   9  13
ATOM     12  O   UNL     1      28.214 -21.782 -16.930  0.00  0.00    -0.245 OA
ATOM     13  C   UNL     1      28.456 -22.990 -16.851  0.00  0.00    +0.338 C 
BRANCH  13  14
ATOM     14  O   UNL     1      27.789 -23.912 -17.600  0.00  0.00    -0.477 OA
ATOM     15  H   UNL     1      27.147 -24.464 -17.201  0.00  0.00    +0.295 HD
ENDBRANCH  13  14
ENDBRANCH   9  13
ENDBRANCH   2   6
BRANCH   3  17
ATOM     16  C   UNL     1      35.084 -22.030 -19.001  0.00  0.00    +0.124 C 
ATOM     17  C   UNL     1      35.467 -22.046 -17.716  0.00  0.00    +0.057 C 
BRANCH  16  20
ATOM     18  O   UNL     1      34.046 -23.977 -19.550  0.00  0.00    -0.126 OA
ATOM     19  O   UNL     1      32.820 -22.190 -19.152  0.00  0.00    -0.126 OA
ATOM     20  N   UNL     1      33.896 -22.788 -19.252  0.00  0.00    +0.054 N 
ENDBRANCH  16  20
BRANCH  16  21
ATOM     21  C   UNL     1      35.609 -21.312 -20.205  0.00  0.00    +0.051 C 
BRANCH  21  22
ATOM     22  C   UNL     1      34.789 -20.066 -20.557  0.00  0.00    +0.006 C 
ATOM     23  C   UNL     1      35.663 -18.981 -21.165  0.00  0.00    +0.000 C 
ENDBRANCH  21  22
ENDBRANCH  16  21
ENDBRANCH   3  17
TORSDOF 7
ENDMDL
MODEL 2
REMARK VINA RESULT:      -9.5      3.262      4.996
REMARK  Name = 6006216
REMARK  7 active torsions:
REMARK  status: ('A' for Active; 'I' for Inactive)
REMARK    1  A    between atoms: C_2  and  C_6
REMARK    2  A    between atoms: C_3  and  C_17
REMARK    3  A    between atoms: C_9  and  C_13
REMARK    4  A    between atoms: C_13  and  O_14
REMARK    5  A    between atoms: C_16  and  N_20
REMARK    6  A    between atoms: C_16  and  C_21
REMARK    7  A    between atoms: C_21  and  C_22
REMARK                            x       y       z     vdW  Elec       q    Type
REMARK                         _______ _______ _______ _____ _____    ______ ____
ROOT
ATOM      1  O   UNL     1      33.778 -24.826 -14.836  0.00  0.00    -0.453 OA
ATOM      2  C   UNL     1      32.960 -23.853 -15.319  0.00  0.00    +0.145 C 
ATOM      3  C   UNL     1      35.040 -24.379 -15.018  0.00  0.00    +0.147 C 
ATOM      4  C   UNL     1      33.699 -22.798 -15.802  0.00  0.00    +0.041 C 
ATOM      5  C   UNL     1      35.056 -23.145 -15.604  0.00  0.00    +0.041 C 
ENDROOT
BRANCH   2   6
ATOM      6  C   UNL     1      31.554 -24.126 -15.224  0.00  0.00    +0.035 C 
ATOM      7  C   UNL     1      30.648 -23.462 -16.056  0.00  0.00    +0.009 C 
ATOM      8  C   UNL     1      31.081 -25.061 -14.298  0.00  0.00    +0.003 C 
ATOM      9  C   UNL     1      29.282 -23.729 -15.963  0.00  0.00    +0.076 C 
ATOM     10  C   UNL     1      29.716 -25.328 -14.204  0.00  0.00    +0.000 C 
ATOM     11  C   UNL     1      28.816 -24.662 -15.037  0.00  0.00    +0.006 C 
BRANCH   9  13
ATOM     12  O   UNL     1      28.141 -21.818 -16.839  0.00  0.00    -0.245 OA
ATOM     13  C   UNL     1      28.345 -23.035 -16.831  0.00  0.00    +0.338 C 
BRANCH  13  14
ATOM     14  O   UNL     1      27.688 -23.884 -17.670  0.00  0.00    -0.477 OA
ATOM     15  H   UNL     1      28.156 -24.570 -18.103  0.00  0.00    +0.295 HD
ENDBRANCH  13  14
ENDBRANCH   9  13
ENDBRANCH   2   6
BRANCH   3  17
ATOM     16  C   UNL     1      36.674 -25.128 -13.379  0.00  0.00    +0.124 C 
ATOM     17  C   UNL     1      36.172 -25.154 -14.621  0.00  0.00    +0.057 C 
BRANCH  16  20
ATOM     18  O   UNL     1      36.220 -23.131 -12.389  0.00  0.00    -0.126 OA
ATOM     19  O   UNL     1      35.011 -24.890 -11.846  0.00  0.00    -0.126 OA
ATOM     20  N   UNL     1      35.912 -24.324 -12.471  0.00  0.00    +0.054 N 
ENDBRANCH  16  20
BRANCH  16  21
ATOM     21  C   UNL     1      37.827 -25.835 -12.737  0.00  0.00    +0.051 C 
BRANCH  21  22
ATOM     22  C   UNL     1      39.177 -25.193 -13.073  0.00  0.00    +0.006 C 
ATOM     23  C   UNL     1      39.819 -25.854 -14.283  0.00  0.00    +0.000 C 
ENDBRANCH  21  22
ENDBRANCH  16  21
ENDBRANCH   3  17
TORSDOF 7
ENDMDL
MODEL 3
REMARK VINA RESULT:      -9.5      9.277     13.191
REMARK  Name = 6006216
REMARK  7 active torsions:
REMARK  status: ('A' for Active; 'I' for Inactive)
REMARK    1  A    between atoms: C_2  and  C_6
REMARK    2  A    between atoms: C_3  and  C_17
REMARK    3  A    between atoms: C_9  and  C_13
REMARK    4  A    between atoms: C_13  and  O_14
REMARK    5  A    between atoms: C_16  and  N_20
REMARK    6  A    between atoms: C_16  and  C_21
REMARK    7  A    between atoms: C_21  and  C_22
REMARK                            x       y       z     vdW  Elec       q    Type
REMARK                         _______ _______ _______ _____ _____    ______ ____
ROOT
ATOM      1  O   UNL     1      34.295 -11.925 -23.494  0.00  0.00    -0.453 OA
ATOM      2  C   UNL     1      33.716 -13.077 -23.923  0.00  0.00    +0.145 C 
ATOM      3  C   UNL     1      34.335 -11.103 -24.565  0.00  0.00    +0.147 C 
ATOM      4  C   UNL     1      33.390 -12.985 -25.257  0.00  0.00    +0.041 C 
ATOM      5  C   UNL     1      33.796 -11.695 -25.672  0.00  0.00    +0.041 C 
ENDROOT
BRANCH   2   6
ATOM      6  C   UNL     1      33.573 -14.103 -22.930  0.00  0.00    +0.035 C 
ATOM      7  C   UNL     1      34.501 -15.146 -22.853  0.00  0.00    +0.009 C 
ATOM      8  C   UNL     1      32.503 -14.066 -22.029  0.00  0.00    +0.003 C 
ATOM      9  C   UNL     1      34.361 -16.142 -21.886  0.00  0.00    +0.076 C 
ATOM     10  C   UNL     1      32.362 -15.061 -21.064  0.00  0.00    +0.000 C 
ATOM     11  C   UNL     1      33.292 -16.099 -20.992  0.00  0.00    +0.006 C 
BRANCH   9  13
ATOM     12  O   UNL     1      35.582 -17.890 -20.803  0.00  0.00    -0.245 OA
ATOM     13  C   UNL     1      35.330 -17.223 -21.811  0.00  0.00    +0.338 C 
BRANCH  13  14
ATOM     14  O   UNL     1      35.957 -17.442 -23.000  0.00  0.00    -0.477 OA
ATOM     15  H   UNL     1      36.340 -18.277 -23.181  0.00  0.00    +0.295 HD
ENDBRANCH  13  14
ENDBRANCH   9  13
ENDBRANCH   2   6
BRANCH   3  17
ATOM     16  C   UNL     1      34.226  -8.756 -23.935  0.00  0.00    +0.124 C 
ATOM     17  C   UNL     1      34.886  -9.789 -24.479  0.00  0.00    +0.057 C 
BRANCH  16  20
ATOM     18  O   UNL     1      31.993  -9.134 -24.135  0.00  0.00    -0.126 OA
ATOM     19  O   UNL     1      32.946  -9.386 -22.165  0.00  0.00    -0.126 OA
ATOM     20  N   UNL     1      32.962  -9.119 -23.370  0.00  0.00    +0.054 N 
ENDBRANCH  16  20
BRANCH  16  21
ATOM     21  C   UNL     1      34.587  -7.317 -23.735  0.00  0.00    +0.051 C 
BRANCH  21  22
ATOM     22  C   UNL     1      34.390  -6.475 -25.000  0.00  0.00    +0.006 C 
ATOM     23  C   UNL     1      33.016  -5.825 -25.025  0.00  0.00    +0.000 C 
ENDBRANCH  21  22
ENDBRANCH  16  21
ENDBRANCH   3  17
TORSDOF 7
ENDMDL
MODEL 4
REMARK VINA RESULT:      -9.3      6.128     10.604
REMARK  Name = 6006216
REMARK  7 active torsions:
REMARK  status: ('A' for Active; 'I' for Inactive)
REMARK    1  A    between atoms: C_2  and  C_6
REMARK    2  A    between atoms: C_3  and  C_17
REMARK    3  A    between atoms: C_9  and  C_13
REMARK    4  A    between atoms: C_13  and  O_14
REMARK    5  A    between atoms: C_16  and  N_20
REMARK    6  A    between atoms: C_16  and  C_21
REMARK    7  A    between atoms: C_21  and  C_22
REMARK                            x       y       z     vdW  Elec       q    Type
REMARK                         _______ _______ _______ _____ _____    ______ ____
ROOT
ATOM      1  O   UNL     1      33.869 -17.126 -22.527  0.00  0.00    -0.453 OA
ATOM      2  C   UNL     1      34.163 -16.236 -23.512  0.00  0.00    +0.145 C 
ATOM      3  C   UNL     1      34.411 -18.303 -22.910  0.00  0.00    +0.147 C 
ATOM      4  C   UNL     1      34.887 -16.845 -24.511  0.00  0.00    +0.041 C 
ATOM      5  C   UNL     1      35.047 -18.194 -24.115  0.00  0.00    +0.041 C 
ENDROOT
BRANCH   2   6
ATOM      6  C   UNL     1      33.675 -14.903 -23.305  0.00  0.00    +0.035 C 
ATOM      7  C   UNL     1      34.108 -13.857 -24.124  0.00  0.00    +0.009 C 
ATOM      8  C   UNL     1      32.758 -14.641 -22.281  0.00  0.00    +0.003 C 
ATOM      9  C   UNL     1      33.631 -12.561 -23.923  0.00  0.00    +0.076 C 
ATOM     10  C   UNL     1      32.282 -13.347 -22.079  0.00  0.00    +0.000 C 
ATOM     11  C   UNL     1      32.718 -12.306 -22.900  0.00  0.00    +0.006 C 
BRANCH   9  13
ATOM     12  O   UNL     1      34.003 -11.455 -26.011  0.00  0.00    -0.245 OA
ATOM     13  C   UNL     1      34.086 -11.478 -24.779  0.00  0.00    +0.338 C 
BRANCH  13  14
ATOM     14  O   UNL     1      34.630 -10.450 -24.072  0.00  0.00    -0.477 OA
ATOM     15  H   UNL     1      35.278 -10.623 -23.418  0.00  0.00    +0.295 HD
ENDBRANCH  13  14
ENDBRANCH   9  13
ENDBRANCH   2   6
BRANCH   3  17
ATOM     16  C   UNL     1      35.159 -19.774 -21.124  0.00  0.00    +0.124 C 
ATOM     17  C   UNL     1      34.296 -19.476 -22.105  0.00  0.00    +0.057 C 
BRANCH  16  20
ATOM     18  O   UNL     1      37.303 -19.026 -21.242  0.00  0.00    -0.126 OA
ATOM     19  O   UNL     1      35.758 -17.707 -20.391  0.00  0.00    -0.126 OA
ATOM     20  N   UNL     1      36.146 -18.761 -20.903  0.00  0.00    +0.054 N 
ENDBRANCH  16  20
BRANCH  16  21
ATOM     21  C   UNL     1      35.245 -20.921 -20.165  0.00  0.00    +0.051 C 
BRANCH  21  22
ATOM     22  C   UNL     1      33.875 -21.348 -19.628  0.00  0.00    +0.006 C 
ATOM     23  C   UNL     1      33.995 -22.535 -18.685  0.00  0.00    +0.000 C 
ENDBRANCH  21  22
ENDBRANCH  16  21
ENDBRANCH   3  17
TORSDOF 7
ENDMDL
MODEL 5
REMARK VINA RESULT:      -9.3     10.142     13.315
REMARK  Name = 6006216
REMARK  7 active torsions:
REMARK  status: ('A' for Active; 'I' for Inactive)
REMARK    1  A    between atoms: C_2  and  C_6
REMARK    2  A    between atoms: C_3  and  C_17
REMARK    3  A    between atoms: C_9  and  C_13
REMARK    4  A    between atoms: C_13  and  O_14
REMARK    5  A    between atoms: C_16  and  N_20
REMARK    6  A    between atoms: C_16  and  C_21
REMARK    7  A    between atoms: C_21  and  C_22
REMARK                            x       y       z     vdW  Elec       q    Type
REMARK                         _______ _______ _______ _____ _____    ______ ____
ROOT
ATOM      1  O   UNL     1      32.073 -12.057 -22.701  0.00  0.00    -0.453 OA
ATOM      2  C   UNL     1      32.437 -12.960 -21.753  0.00  0.00    +0.145 C 
ATOM      3  C   UNL     1      31.387 -11.090 -22.054  0.00  0.00    +0.147 C 
ATOM      4  C   UNL     1      31.984 -12.568 -20.514  0.00  0.00    +0.041 C 
ATOM      5  C   UNL     1      31.299 -11.347 -20.715  0.00  0.00    +0.041 C 
ENDROOT
BRANCH   2   6
ATOM      6  C   UNL     1      33.188 -14.087 -22.230  0.00  0.00    +0.035 C 
ATOM      7  C   UNL     1      33.152 -14.437 -23.583  0.00  0.00    +0.009 C 
ATOM      8  C   UNL     1      33.962 -14.842 -21.343  0.00  0.00    +0.003 C 
ATOM      9  C   UNL     1      33.884 -15.531 -24.046  0.00  0.00    +0.076 C 
ATOM     10  C   UNL     1      34.693 -15.936 -21.805  0.00  0.00    +0.000 C 
ATOM     11  C   UNL     1      34.654 -16.280 -23.156  0.00  0.00    +0.006 C 
BRANCH   9  13
ATOM     12  O   UNL     1      33.010 -15.489 -26.272  0.00  0.00    -0.245 OA
ATOM     13  C   UNL     1      33.844 -15.889 -25.454  0.00  0.00    +0.338 C 
BRANCH  13  14
ATOM     14  O   UNL     1      34.850 -16.738 -25.803  0.00  0.00    -0.477 OA
ATOM     15  H   UNL     1      35.732 -16.546 -25.554  0.00  0.00    +0.295 HD
ENDBRANCH  13  14
ENDBRANCH   9  13
ENDBRANCH   2   6
BRANCH   3  17
ATOM     16  C   UNL     1      31.531  -8.827 -22.935  0.00  0.00    +0.124 C 
ATOM     17  C   UNL     1      30.846  -9.964 -22.747  0.00  0.00    +0.057 C 
BRANCH  16  20
ATOM     18  O   UNL     1      33.079  -8.494 -21.302  0.00  0.00    -0.126 OA
ATOM     19  O   UNL     1      33.729  -9.322 -23.237  0.00  0.00    -0.126 OA
ATOM     20  N   UNL     1      32.879  -8.886 -22.456  0.00  0.00    +0.054 N 
ENDBRANCH  16  20
BRANCH  16  21
ATOM     21  C   UNL     1      31.186  -7.539 -23.614  0.00  0.00    +0.051 C 
BRANCH  21  22
ATOM     22  C   UNL     1      30.775  -6.440 -22.629  0.00  0.00    +0.006 C 
ATOM     23  C   UNL     1      31.669  -5.216 -22.759  0.00  0.00    +0.000 C 
ENDBRANCH  21  22
ENDBRANCH  16  21
ENDBRANCH   3  17
TORSDOF 7
ENDMDL
MODEL 6
REMARK VINA RESULT:      -9.3      8.356     12.888
REMARK  Name = 6006216
REMARK  7 active torsions:
REMARK  status: ('A' for Active; 'I' for Inactive)
REMARK    1  A    between atoms: C_2  and  C_6
REMARK    2  A    between atoms: C_3  and  C_17
REMARK    3  A    between atoms: C_9  and  C_13
REMARK    4  A    between atoms: C_13  and  O_14
REMARK    5  A    between atoms: C_16  and  N_20
REMARK    6  A    between atoms: C_16  and  C_21
REMARK    7  A    between atoms: C_21  and  C_22
REMARK                            x       y       z     vdW  Elec       q    Type
REMARK                         _______ _______ _______ _____ _____    ______ ____
ROOT
ATOM      1  O   UNL     1      34.364 -13.633 -23.512  0.00  0.00    -0.453 OA
ATOM      2  C   UNL     1      33.662 -12.841 -24.365  0.00  0.00    +0.145 C 
ATOM      3  C   UNL     1      34.124 -14.905 -23.897  0.00  0.00    +0.147 C 
ATOM      4  C   UNL     1      32.982 -13.606 -25.284  0.00  0.00    +0.041 C 
ATOM      5  C   UNL     1      33.285 -14.953 -24.975  0.00  0.00    +0.041 C 
ENDROOT
BRANCH   2   6
ATOM      6  C   UNL     1      33.777 -11.429 -24.133  0.00  0.00    +0.035 C 
ATOM      7  C   UNL     1      32.882 -10.779 -23.279  0.00  0.00    +0.009 C 
ATOM      8  C   UNL     1      34.790 -10.694 -24.759  0.00  0.00    +0.003 C 
ATOM      9  C   UNL     1      32.996  -9.407 -23.053  0.00  0.00    +0.076 C 
ATOM     10  C   UNL     1      34.904  -9.323 -24.534  0.00  0.00    +0.000 C 
ATOM     11  C   UNL     1      34.007  -8.679 -23.681  0.00  0.00    +0.006 C 
BRANCH   9  13
ATOM     12  O   UNL     1      32.018  -8.871 -20.937  0.00  0.00    -0.245 OA
ATOM     13  C   UNL     1      32.062  -8.736 -22.163  0.00  0.00    +0.338 C 
BRANCH  13  14
ATOM     14  O   UNL     1      31.209  -7.912 -22.832  0.00  0.00    -0.477 OA
ATOM     15  H   UNL     1      31.490  -7.482 -23.615  0.00  0.00    +0.295 HD
ENDBRANCH  13  14
ENDBRANCH   9  13
ENDBRANCH   2   6
BRANCH   3  17
ATOM     16  C   UNL     1      34.464 -16.288 -21.926  0.00  0.00    +0.124 C 
ATOM     17  C   UNL     1      34.707 -16.016 -23.215  0.00  0.00    +0.057 C 
BRANCH  16  20
ATOM     18  O   UNL     1      33.930 -14.529 -20.587  0.00  0.00    -0.126 OA
ATOM     19  O   UNL     1      32.313 -15.624 -21.606  0.00  0.00    -0.126 OA
ATOM     20  N   UNL     1      33.497 -15.416 -21.329  0.00  0.00    +0.054 N 
ENDBRANCH  16  20
BRANCH  16  21
ATOM     21  C   UNL     1      34.946 -17.371 -21.011  0.00  0.00    +0.051 C 
BRANCH  21  22
ATOM     22  C   UNL     1      34.732 -18.774 -21.589  0.00  0.00    +0.006 C 
ATOM     23  C   UNL     1      33.534 -19.459 -20.950  0.00  0.00    +0.000 C 
ENDBRANCH  21  22
ENDBRANCH  16  21
ENDBRANCH   3  17
TORSDOF 7
ENDMDL
MODEL 7
REMARK VINA RESULT:      -9.2      5.785     10.284
REMARK  Name = 6006216
REMARK  7 active torsions:
REMARK  status: ('A' for Active; 'I' for Inactive)
REMARK    1  A    between atoms: C_2  and  C_6
REMARK    2  A    between atoms: C_3  and  C_17
REMARK    3  A    between atoms: C_9  and  C_13
REMARK    4  A    between atoms: C_13  and  O_14
REMARK    5  A    between atoms: C_16  and  N_20
REMARK    6  A    between atoms: C_16  and  C_21
REMARK    7  A    between atoms: C_21  and  C_22
REMARK                            x       y       z     vdW  Elec       q    Type
REMARK                         _______ _______ _______ _____ _____    ______ ____
ROOT
ATOM      1  O   UNL     1      33.877 -16.899 -22.908  0.00  0.00    -0.453 OA
ATOM      2  C   UNL     1      34.160 -16.073 -23.950  0.00  0.00    +0.145 C 
ATOM      3  C   UNL     1      34.339 -18.118 -23.259  0.00  0.00    +0.147 C 
ATOM      4  C   UNL     1      34.797 -16.765 -24.954  0.00  0.00    +0.041 C 
ATOM      5  C   UNL     1      34.912 -18.100 -24.499  0.00  0.00    +0.041 C 
ENDROOT
BRANCH   2   6
ATOM      6  C   UNL     1      33.748 -14.708 -23.786  0.00  0.00    +0.035 C 
ATOM      7  C   UNL     1      33.021 -14.321 -22.656  0.00  0.00    +0.009 C 
ATOM      8  C   UNL     1      34.076 -13.754 -24.754  0.00  0.00    +0.003 C 
ATOM      9  C   UNL     1      32.623 -12.994 -22.497  0.00  0.00    +0.076 C 
ATOM     10  C   UNL     1      33.678 -12.427 -24.596  0.00  0.00    +0.000 C 
ATOM     11  C   UNL     1      32.952 -12.047 -23.467  0.00  0.00    +0.006 C 
BRANCH   9  13
ATOM     12  O   UNL     1      32.144 -12.900 -20.155  0.00  0.00    -0.245 OA
ATOM     13  C   UNL     1      31.867 -12.598 -21.320  0.00  0.00    +0.338 C 
BRANCH  13  14
ATOM     14  O   UNL     1      30.784 -11.832 -21.631  0.00  0.00    -0.477 OA
ATOM     15  H   UNL     1      30.465 -11.808 -22.511  0.00  0.00    +0.295 HD
ENDBRANCH  13  14
ENDBRANCH   9  13
ENDBRANCH   2   6
BRANCH   3  17
ATOM     16  C   UNL     1      35.039 -19.469 -21.361  0.00  0.00    +0.124 C 
ATOM     17  C   UNL     1      34.211 -19.245 -22.391  0.00  0.00    +0.057 C 
BRANCH  16  20
ATOM     18  O   UNL     1      37.094 -18.563 -21.715  0.00  0.00    -0.126 OA
ATOM     19  O   UNL     1      35.652 -17.476 -20.453  0.00  0.00    -0.126 OA
ATOM     20  N   UNL     1      35.999 -18.425 -21.162  0.00  0.00    +0.054 N 
ENDBRANCH  16  20
BRANCH  16  21
ATOM     21  C   UNL     1      35.105 -20.555 -20.333  0.00  0.00    +0.051 C 
BRANCH  21  22
ATOM     22  C   UNL     1      33.722 -20.973 -19.823  0.00  0.00    +0.006 C 
ATOM     23  C   UNL     1      33.798 -22.247 -18.996  0.00  0.00    +0.000 C 
ENDBRANCH  21  22
ENDBRANCH  16  21
ENDBRANCH   3  17
TORSDOF 7
ENDMDL
MODEL 8
REMARK VINA RESULT:      -9.2      3.410      6.718
REMARK  Name = 6006216
REMARK  7 active torsions:
REMARK  status: ('A' for Active; 'I' for Inactive)
REMARK    1  A    between atoms: C_2  and  C_6
REMARK    2  A    between atoms: C_3  and  C_17
REMARK    3  A    between atoms: C_9  and  C_13
REMARK    4  A    between atoms: C_13  and  O_14
REMARK    5  A    between atoms: C_16  and  N_20
REMARK    6  A    between atoms: C_16  and  C_21
REMARK    7  A    between atoms: C_21  and  C_22
REMARK                            x       y       z     vdW  Elec       q    Type
REMARK                         _______ _______ _______ _____ _____    ______ ____
ROOT
ATOM      1  O   UNL     1      35.744 -23.686 -16.536  0.00  0.00    -0.453 OA
ATOM      2  C   UNL     1      34.759 -22.881 -17.013  0.00  0.00    +0.145 C 
ATOM      3  C   UNL     1      35.207 -24.360 -15.496  0.00  0.00    +0.147 C 
ATOM      4  C   UNL     1      33.605 -23.044 -16.281  0.00  0.00    +0.041 C 
ATOM      5  C   UNL     1      33.902 -24.010 -15.291  0.00  0.00    +0.041 C 
ENDROOT
BRANCH   2   6
ATOM      6  C   UNL     1      35.119 -22.064 -18.137  0.00  0.00    +0.035 C 
ATOM      7  C   UNL     1      34.131 -21.543 -18.977  0.00  0.00    +0.009 C 
ATOM      8  C   UNL     1      36.464 -21.783 -18.399  0.00  0.00    +0.003 C 
ATOM      9  C   UNL     1      34.483 -20.748 -20.068  0.00  0.00    +0.076 C 
ATOM     10  C   UNL     1      36.817 -20.990 -19.490  0.00  0.00    +0.000 C 
ATOM     11  C   UNL     1      35.826 -20.472 -20.325  0.00  0.00    +0.006 C 
BRANCH   9  13
ATOM     12  O   UNL     1      32.248 -20.478 -20.875  0.00  0.00    -0.245 OA
ATOM     13  C   UNL     1      33.450 -20.208 -20.938  0.00  0.00    +0.338 C 
BRANCH  13  14
ATOM     14  O   UNL     1      33.950 -19.342 -21.862  0.00  0.00    -0.477 OA
ATOM     15  H   UNL     1      33.455 -19.139 -22.630  0.00  0.00    +0.295 HD
ENDBRANCH  13  14
ENDBRANCH   9  13
ENDBRANCH   2   6
BRANCH   3  17
ATOM     16  C   UNL     1      36.848 -24.950 -13.800  0.00  0.00    +0.124 C 
ATOM     17  C   UNL     1      35.967 -25.308 -14.746  0.00  0.00    +0.057 C 
BRANCH  16  20
ATOM     18  O   UNL     1      37.626 -22.867 -14.274  0.00  0.00    -0.126 OA
ATOM     19  O   UNL     1      36.166 -23.115 -12.643  0.00  0.00    -0.126 OA
ATOM     20  N   UNL     1      36.882 -23.540 -13.554  0.00  0.00    +0.054 N 
ENDBRANCH  16  20
BRANCH  16  21
ATOM     21  C   UNL     1      37.743 -25.743 -12.899  0.00  0.00    +0.051 C 
BRANCH  21  22
ATOM     22  C   UNL     1      39.231 -25.485 -13.166  0.00  0.00    +0.006 C 
ATOM     23  C   UNL     1      39.605 -25.834 -14.598  0.00  0.00    +0.000 C 
ENDBRANCH  21  22
ENDBRANCH  16  21
ENDBRANCH   3  17
TORSDOF 7
ENDMDL
MODEL 9
REMARK VINA RESULT:      -9.0      9.895     13.558
REMARK  Name = 6006216
REMARK  7 active torsions:
REMARK  status: ('A' for Active; 'I' for Inactive)
REMARK    1  A    between atoms: C_2  and  C_6
REMARK    2  A    between atoms: C_3  and  C_17
REMARK    3  A    between atoms: C_9  and  C_13
REMARK    4  A    between atoms: C_13  and  O_14
REMARK    5  A    between atoms: C_16  and  N_20
REMARK    6  A    between atoms: C_16  and  C_21
REMARK    7  A    between atoms: C_21  and  C_22
REMARK                            x       y       z     vdW  Elec       q    Type
REMARK                         _______ _______ _______ _____ _____    ______ ____
ROOT
ATOM      1  O   UNL     1      32.024 -11.344 -22.897  0.00  0.00    -0.453 OA
ATOM      2  C   UNL     1      32.187 -12.343 -21.990  0.00  0.00    +0.145 C 
ATOM      3  C   UNL     1      31.366 -10.356 -22.253  0.00  0.00    +0.147 C 
ATOM      4  C   UNL     1      31.637 -11.990 -20.780  0.00  0.00    +0.041 C 
ATOM      5  C   UNL     1      31.101 -10.692 -20.955  0.00  0.00    +0.041 C 
ENDROOT
BRANCH   2   6
ATOM      6  C   UNL     1      32.874 -13.508 -22.472  0.00  0.00    +0.035 C 
ATOM      7  C   UNL     1      33.511 -14.372 -21.577  0.00  0.00    +0.009 C 
ATOM      8  C   UNL     1      32.908 -13.787 -23.842  0.00  0.00    +0.003 C 
ATOM      9  C   UNL     1      34.177 -15.504 -22.046  0.00  0.00    +0.076 C 
ATOM     10  C   UNL     1      33.574 -14.918 -24.311  0.00  0.00    +0.000 C 
ATOM     11  C   UNL     1      34.208 -15.778 -23.414  0.00  0.00    +0.006 C 
BRANCH   9  13
ATOM     12  O   UNL     1      35.262 -17.528 -21.376  0.00  0.00    -0.245 OA
ATOM     13  C   UNL     1      34.837 -16.400 -21.110  0.00  0.00    +0.338 C 
BRANCH  13  14
ATOM     14  O   UNL     1      34.951 -15.859 -19.866  0.00  0.00    -0.477 OA
ATOM     15  H   UNL     1      34.868 -14.934 -19.747  0.00  0.00    +0.295 HD
ENDBRANCH  13  14
ENDBRANCH   9  13
ENDBRANCH   2   6
BRANCH   3  17
ATOM     16  C   UNL     1      31.839  -8.075 -22.952  0.00  0.00    +0.124 C 
ATOM     17  C   UNL     1      31.021  -9.136 -22.909  0.00  0.00    +0.057 C 
BRANCH  16  20
ATOM     18  O   UNL     1      33.223  -8.107 -21.147  0.00  0.00    -0.126 OA
ATOM     19  O   UNL     1      34.016  -8.714 -23.111  0.00  0.00    -0.126 OA
ATOM     20  N   UNL     1      33.120  -8.317 -22.360  0.00  0.00    +0.054 N 
ENDBRANCH  16  20
BRANCH  16  21
ATOM     21  C   UNL     1      31.704  -6.716 -23.566  0.00  0.00    +0.051 C 
BRANCH  21  22
ATOM     22  C   UNL     1      31.767  -5.589 -22.529  0.00  0.00    +0.006 C 
ATOM     23  C   UNL     1      30.419  -5.376 -21.859  0.00  0.00    +0.000 C 
ENDBRANCH  21  22
ENDBRANCH  16  21
ENDBRANCH   3  17
TORSDOF 7
ENDMDL
