MODEL 1
REMARK VINA RESULT:     -10.2      0.000      0.000
REMARK  Name = 25150856
REMARK  7 active torsions:
REMARK  status: ('A' for Active; 'I' for Inactive)
REMARK    1  A    between atoms: C_2  and  C_10
REMARK    2  A    between atoms: C_3  and  C_18
REMARK    3  A    between atoms: C_5  and  O_26
REMARK    4  A    between atoms: N_17  and  C_20
REMARK    5  A    between atoms: C_20  and  C_21
REMARK    6  A    between atoms: C_21  and  C_23
REMARK    7  A    between atoms: C_23  and  O_24
REMARK                            x       y       z     vdW  Elec       q    Type
REMARK                         _______ _______ _______ _____ _____    ______ ____
ROOT
ATOM      1  I   UNL     1      29.805 -24.527 -15.177  0.00  0.00    -0.039 I 
ATOM      2  C   UNL     1      33.725 -23.195 -16.473  0.00  0.00    +0.003 C 
ATOM      3  C   UNL     1      34.073 -24.188 -14.298  0.00  0.00    +0.087 C 
ATOM      4  C   UNL     1      34.580 -23.548 -15.429  0.00  0.00    +0.008 C 
ATOM      5  C   UNL     1      32.710 -24.475 -14.211  0.00  0.00    +0.143 C 
ATOM      6  C   UNL     1      32.362 -23.483 -16.386  0.00  0.00    +0.009 C 
ATOM      7  C   UNL     1      31.855 -24.123 -15.255  0.00  0.00    +0.064 C 
ENDROOT
BRANCH   2  10
ATOM      8  F   UNL     1      36.450 -22.566 -16.740  0.00  0.00    -0.204 F 
ATOM      9  F   UNL     1      35.741 -20.635 -20.997  0.00  0.00    -0.204 F 
ATOM     10  C   UNL     1      34.251 -22.531 -17.645  0.00  0.00    +0.028 C 
ATOM     11  C   UNL     1      35.611 -22.239 -17.734  0.00  0.00    +0.142 C 
ATOM     12  C   UNL     1      33.393 -22.183 -18.689  0.00  0.00    +0.005 C 
ATOM     13  C   UNL     1      36.115 -21.598 -18.867  0.00  0.00    +0.059 C 
ATOM     14  C   UNL     1      33.897 -21.543 -19.822  0.00  0.00    +0.030 C 
ATOM     15  C   UNL     1      35.257 -21.251 -19.911  0.00  0.00    +0.142 C 
ENDBRANCH   2  10
BRANCH   3  18
ATOM     16  O   UNL     1      34.793 -24.122 -12.067  0.00  0.00    -0.270 OA
ATOM     17  N   UNL     1      36.058 -25.388 -13.543  0.00  0.00    -0.300 N 
ATOM     18  C   UNL     1      35.004 -24.551 -13.198  0.00  0.00    +0.249 C 
ATOM     19  H   UNL     1      36.144 -25.679 -14.479  0.00  0.00    +0.150 HD
BRANCH  17  20
ATOM     20  C   UNL     1      37.028 -25.847 -12.586  0.00  0.00    +0.101 C 
BRANCH  20  21
ATOM     21  C   UNL     1      38.456 -25.666 -13.086  0.00  0.00    +0.131 C 
BRANCH  21  23
ATOM     22  O   UNL     1      38.593 -23.996 -14.856  0.00  0.00    -0.250 OA
ATOM     23  C   UNL     1      38.522 -25.167 -14.513  0.00  0.00    +0.316 C 
BRANCH  23  24
ATOM     24  O   UNL     1      38.500 -26.199 -15.398  0.00  0.00    -0.480 OA
ATOM     25  H   UNL     1      39.302 -26.527 -15.755  0.00  0.00    +0.295 HD
ENDBRANCH  23  24
ENDBRANCH  21  23
ENDBRANCH  20  21
ENDBRANCH  17  20
ENDBRANCH   3  18
BRANCH   5  26
ATOM     26  O   UNL     1      32.235 -25.102 -13.095  0.00  0.00    -0.505 OA
ATOM     27  H   UNL     1      31.438 -24.811 -12.697  0.00  0.00    +0.292 HD
ENDBRANCH   5  26
TORSDOF 7
ENDMDL
MODEL 2
REMARK VINA RESULT:      -9.9      2.958      5.261
REMARK  Name = 25150856
REMARK  7 active torsions:
REMARK  status: ('A' for Active; 'I' for Inactive)
REMARK    1  A    between atoms: C_2  and  C_10
REMARK    2  A    between atoms: C_3  and  C_18
REMARK    3  A    between atoms: C_5  and  O_26
REMARK    4  A    between atoms: N_17  and  C_20
REMARK    5  A    between atoms: C_20  and  C_21
REMARK    6  A    between atoms: C_21  and  C_23
REMARK    7  A    between atoms: C_23  and  O_24
REMARK                            x       y       z     vdW  Elec       q    Type
REMARK                         _______ _______ _______ _____ _____    ______ ____
ROOT
ATOM      1  I   UNL     1      36.876 -25.038 -13.397  0.00  0.00    -0.039 I 
ATOM      2  C   UNL     1      34.494 -23.095 -16.458  0.00  0.00    +0.003 C 
ATOM      3  C   UNL     1      32.907 -23.869 -14.807  0.00  0.00    +0.087 C 
ATOM      4  C   UNL     1      33.178 -23.220 -16.012  0.00  0.00    +0.008 C 
ATOM      5  C   UNL     1      33.954 -24.393 -14.048  0.00  0.00    +0.143 C 
ATOM      6  C   UNL     1      35.540 -23.620 -15.698  0.00  0.00    +0.009 C 
ATOM      7  C   UNL     1      35.270 -24.268 -14.493  0.00  0.00    +0.064 C 
ENDROOT
BRANCH   2  10
ATOM      8  F   UNL     1      37.054 -22.134 -17.101  0.00  0.00    -0.204 F 
ATOM      9  F   UNL     1      35.554 -20.502 -21.279  0.00  0.00    -0.204 F 
ATOM     10  C   UNL     1      34.772 -22.422 -17.707  0.00  0.00    +0.028 C 
ATOM     11  C   UNL     1      36.059 -21.961 -17.984  0.00  0.00    +0.142 C 
ATOM     12  C   UNL     1      33.749 -22.234 -18.637  0.00  0.00    +0.005 C 
ATOM     13  C   UNL     1      36.323 -21.313 -19.191  0.00  0.00    +0.059 C 
ATOM     14  C   UNL     1      34.013 -21.586 -19.844  0.00  0.00    +0.030 C 
ATOM     15  C   UNL     1      35.300 -21.126 -20.121  0.00  0.00    +0.142 C 
ENDBRANCH   2  10
BRANCH   3  18
ATOM     16  O   UNL     1      31.189 -23.588 -13.237  0.00  0.00    -0.270 OA
ATOM     17  N   UNL     1      30.610 -24.545 -15.269  0.00  0.00    -0.300 N 
ATOM     18  C   UNL     1      31.497 -23.991 -14.356  0.00  0.00    +0.249 C 
ATOM     19  H   UNL     1      30.954 -24.840 -16.143  0.00  0.00    +0.150 HD
BRANCH  17  20
ATOM     20  C   UNL     1      29.209 -24.707 -14.989  0.00  0.00    +0.101 C 
BRANCH  20  21
ATOM     21  C   UNL     1      28.400 -23.479 -15.388  0.00  0.00    +0.131 C 
BRANCH  21  23
ATOM     22  O   UNL     1      27.678 -23.590 -17.712  0.00  0.00    -0.250 OA
ATOM     23  C   UNL     1      28.466 -23.185 -16.870  0.00  0.00    +0.316 C 
BRANCH  23  24
ATOM     24  O   UNL     1      29.527 -22.390 -17.169  0.00  0.00    -0.480 OA
ATOM     25  H   UNL     1      29.463 -21.764 -17.864  0.00  0.00    +0.295 HD
ENDBRANCH  23  24
ENDBRANCH  21  23
ENDBRANCH  20  21
ENDBRANCH  17  20
ENDBRANCH   3  18
BRANCH   5  26
ATOM     26  O   UNL     1      33.667 -25.025 -12.872  0.00  0.00    -0.505 OA
ATOM     27  H   UNL     1      33.051 -25.730 -12.857  0.00  0.00    +0.292 HD
ENDBRANCH   5  26
TORSDOF 7
ENDMDL
MODEL 3
REMARK VINA RESULT:      -9.8      1.685      2.679
REMARK  Name = 25150856
REMARK  7 active torsions:
REMARK  status: ('A' for Active; 'I' for Inactive)
REMARK    1  A    between atoms: C_2  and  C_10
REMARK    2  A    between atoms: C_3  and  C_18
REMARK    3  A    between atoms: C_5  and  O_26
REMARK    4  A    between atoms: N_17  and  C_20
REMARK    5  A    between atoms: C_20  and  C_21
REMARK    6  A    between atoms: C_21  and  C_23
REMARK    7  A    between atoms: C_23  and  O_24
REMARK                            x       y       z     vdW  Elec       q    Type
REMARK                         _______ _______ _______ _____ _____    ______ ____
ROOT
ATOM      1  I   UNL     1      29.928 -23.432 -15.909  0.00  0.00    -0.039 I 
ATOM      2  C   UNL     1      33.609 -22.296 -17.905  0.00  0.00    +0.003 C 
ATOM      3  C   UNL     1      34.295 -23.607 -15.995  0.00  0.00    +0.087 C 
ATOM      4  C   UNL     1      34.620 -22.865 -17.131  0.00  0.00    +0.008 C 
ATOM      5  C   UNL     1      32.959 -23.778 -15.632  0.00  0.00    +0.143 C 
ATOM      6  C   UNL     1      32.272 -22.468 -17.543  0.00  0.00    +0.009 C 
ATOM      7  C   UNL     1      31.948 -23.209 -16.407  0.00  0.00    +0.064 C 
ENDROOT
BRANCH   2  10
ATOM      8  F   UNL     1      36.249 -22.072 -18.840  0.00  0.00    -0.204 F 
ATOM      9  F   UNL     1      34.897 -19.330 -22.447  0.00  0.00    -0.204 F 
ATOM     10  C   UNL     1      33.947 -21.528 -19.083  0.00  0.00    +0.028 C 
ATOM     11  C   UNL     1      35.271 -21.444 -19.510  0.00  0.00    +0.142 C 
ATOM     12  C   UNL     1      32.942 -20.868 -19.793  0.00  0.00    +0.005 C 
ATOM     13  C   UNL     1      35.593 -20.702 -20.647  0.00  0.00    +0.059 C 
ATOM     14  C   UNL     1      33.264 -20.126 -20.929  0.00  0.00    +0.030 C 
ATOM     15  C   UNL     1      34.588 -20.043 -21.357  0.00  0.00    +0.142 C 
ENDBRANCH   2  10
BRANCH   3  18
ATOM     16  O   UNL     1      35.891 -25.263 -15.542  0.00  0.00    -0.270 OA
ATOM     17  N   UNL     1      35.788 -23.474 -14.070  0.00  0.00    -0.300 N 
ATOM     18  C   UNL     1      35.391 -24.200 -15.186  0.00  0.00    +0.249 C 
ATOM     19  H   UNL     1      35.324 -22.631 -13.865  0.00  0.00    +0.150 HD
BRANCH  17  20
ATOM     20  C   UNL     1      36.850 -23.905 -13.202  0.00  0.00    +0.101 C 
BRANCH  20  21
ATOM     21  C   UNL     1      36.690 -23.362 -11.788  0.00  0.00    +0.131 C 
BRANCH  21  23
ATOM     22  O   UNL     1      35.939 -24.335  -9.684  0.00  0.00    -0.250 OA
ATOM     23  C   UNL     1      35.858 -24.262 -10.901  0.00  0.00    +0.316 C 
BRANCH  23  24
ATOM     24  O   UNL     1      34.977 -24.996 -11.631  0.00  0.00    -0.480 OA
ATOM     25  H   UNL     1      34.820 -25.894 -11.412  0.00  0.00    +0.295 HD
ENDBRANCH  23  24
ENDBRANCH  21  23
ENDBRANCH  20  21
ENDBRANCH  17  20
ENDBRANCH   3  18
BRANCH   5  26
ATOM     26  O   UNL     1      32.663 -24.506 -14.517  0.00  0.00    -0.505 OA
ATOM     27  H   UNL     1      31.892 -24.313 -14.021  0.00  0.00    +0.292 HD
ENDBRANCH   5  26
TORSDOF 7
ENDMDL
MODEL 4
REMARK VINA RESULT:      -9.7      1.546      2.267
REMARK  Name = 25150856
REMARK  7 active torsions:
REMARK  status: ('A' for Active; 'I' for Inactive)
REMARK    1  A    between atoms: C_2  and  C_10
REMARK    2  A    between atoms: C_3  and  C_18
REMARK    3  A    between atoms: C_5  and  O_26
REMARK    4  A    between atoms: N_17  and  C_20
REMARK    5  A    between atoms: C_20  and  C_21
REMARK    6  A    between atoms: C_21  and  C_23
REMARK    7  A    between atoms: C_23  and  O_24
REMARK                            x       y       z     vdW  Elec       q    Type
REMARK                         _______ _______ _______ _____ _____    ______ ____
ROOT
ATOM      1  I   UNL     1      31.484 -24.353 -14.982  0.00  0.00    -0.039 I 
ATOM      2  C   UNL     1      34.430 -22.472 -17.551  0.00  0.00    +0.003 C 
ATOM      3  C   UNL     1      35.694 -23.461 -15.745  0.00  0.00    +0.087 C 
ATOM      4  C   UNL     1      35.653 -22.731 -16.933  0.00  0.00    +0.008 C 
ATOM      5  C   UNL     1      34.511 -23.932 -15.175  0.00  0.00    +0.143 C 
ATOM      6  C   UNL     1      33.247 -22.943 -16.981  0.00  0.00    +0.009 C 
ATOM      7  C   UNL     1      33.288 -23.673 -15.794  0.00  0.00    +0.064 C 
ENDROOT
BRANCH   2  10
ATOM      8  F   UNL     1      36.759 -21.779 -18.962  0.00  0.00    -0.204 F 
ATOM      9  F   UNL     1      34.255 -19.550 -22.297  0.00  0.00    -0.204 F 
ATOM     10  C   UNL     1      34.388 -21.714 -18.783  0.00  0.00    +0.028 C 
ATOM     11  C   UNL     1      35.570 -21.393 -19.449  0.00  0.00    +0.142 C 
ATOM     12  C   UNL     1      33.160 -21.304 -19.304  0.00  0.00    +0.005 C 
ATOM     13  C   UNL     1      35.526 -20.662 -20.636  0.00  0.00    +0.059 C 
ATOM     14  C   UNL     1      33.116 -20.574 -20.491  0.00  0.00    +0.030 C 
ATOM     15  C   UNL     1      34.298 -20.253 -21.158  0.00  0.00    +0.142 C 
ENDBRANCH   2  10
BRANCH   3  18
ATOM     16  O   UNL     1      37.611 -22.793 -14.571  0.00  0.00    -0.270 OA
ATOM     17  N   UNL     1      37.458 -25.035 -15.145  0.00  0.00    -0.300 N 
ATOM     18  C   UNL     1      37.010 -23.721 -15.106  0.00  0.00    +0.249 C 
ATOM     19  H   UNL     1      36.905 -25.711 -15.599  0.00  0.00    +0.150 HD
BRANCH  17  20
ATOM     20  C   UNL     1      38.700 -25.449 -14.550  0.00  0.00    +0.101 C 
BRANCH  20  21
ATOM     21  C   UNL     1      38.561 -25.703 -13.054  0.00  0.00    +0.131 C 
BRANCH  21  23
ATOM     22  O   UNL     1      36.466 -25.606 -11.813  0.00  0.00    -0.250 OA
ATOM     23  C   UNL     1      37.168 -26.142 -12.657  0.00  0.00    +0.316 C 
BRANCH  23  24
ATOM     24  O   UNL     1      36.770 -27.227 -13.373  0.00  0.00    -0.480 OA
ATOM     25  H   UNL     1      35.886 -27.289 -13.678  0.00  0.00    +0.295 HD
ENDBRANCH  23  24
ENDBRANCH  21  23
ENDBRANCH  20  21
ENDBRANCH  17  20
ENDBRANCH   3  18
BRANCH   5  26
ATOM     26  O   UNL     1      34.574 -24.644 -14.013  0.00  0.00    -0.505 OA
ATOM     27  H   UNL     1      33.949 -25.321 -13.843  0.00  0.00    +0.292 HD
ENDBRANCH   5  26
TORSDOF 7
ENDMDL
MODEL 5
REMARK VINA RESULT:      -9.6      3.903      6.587
REMARK  Name = 25150856
REMARK  7 active torsions:
REMARK  status: ('A' for Active; 'I' for Inactive)
REMARK    1  A    between atoms: C_2  and  C_10
REMARK    2  A    between atoms: C_3  and  C_18
REMARK    3  A    between atoms: C_5  and  O_26
REMARK    4  A    between atoms: N_17  and  C_20
REMARK    5  A    between atoms: C_20  and  C_21
REMARK    6  A    between atoms: C_21  and  C_23
REMARK    7  A    between atoms: C_23  and  O_24
REMARK                            x       y       z     vdW  Elec       q    Type
REMARK                         _______ _______ _______ _____ _____    ______ ____
ROOT
ATOM      1  I   UNL     1      37.684 -25.005 -13.075  0.00  0.00    -0.039 I 
ATOM      2  C   UNL     1      34.055 -23.809 -15.129  0.00  0.00    +0.003 C 
ATOM      3  C   UNL     1      35.854 -22.729 -16.327  0.00  0.00    +0.087 C 
ATOM      4  C   UNL     1      34.492 -22.983 -16.164  0.00  0.00    +0.008 C 
ATOM      5  C   UNL     1      36.779 -23.300 -15.452  0.00  0.00    +0.143 C 
ATOM      6  C   UNL     1      34.980 -24.380 -14.254  0.00  0.00    +0.009 C 
ATOM      7  C   UNL     1      36.342 -24.125 -14.417  0.00  0.00    +0.064 C 
ENDROOT
BRANCH   2  10
ATOM      8  F   UNL     1      32.131 -22.871 -16.949  0.00  0.00    -0.204 F 
ATOM      9  F   UNL     1      28.613 -24.831 -14.470  0.00  0.00    -0.204 F 
ATOM     10  C   UNL     1      32.643 -24.073 -14.961  0.00  0.00    +0.028 C 
ATOM     11  C   UNL     1      31.723 -23.587 -15.890  0.00  0.00    +0.142 C 
ATOM     12  C   UNL     1      32.201 -24.815 -13.865  0.00  0.00    +0.005 C 
ATOM     13  C   UNL     1      30.362 -23.843 -15.724  0.00  0.00    +0.059 C 
ATOM     14  C   UNL     1      30.840 -25.072 -13.700  0.00  0.00    +0.030 C 
ATOM     15  C   UNL     1      29.920 -24.586 -14.629  0.00  0.00    +0.142 C 
ENDBRANCH   2  10
BRANCH   3  18
ATOM     16  O   UNL     1      37.195 -21.035 -17.238  0.00  0.00    -0.270 OA
ATOM     17  N   UNL     1      35.644 -22.022 -18.652  0.00  0.00    -0.300 N 
ATOM     18  C   UNL     1      36.293 -21.844 -17.437  0.00  0.00    +0.249 C 
ATOM     19  H   UNL     1      34.931 -22.697 -18.713  0.00  0.00    +0.150 HD
BRANCH  17  20
ATOM     20  C   UNL     1      35.973 -21.259 -19.826  0.00  0.00    +0.101 C 
BRANCH  20  21
ATOM     21  C   UNL     1      34.781 -20.466 -20.346  0.00  0.00    +0.131 C 
BRANCH  21  23
ATOM     22  O   UNL     1      33.248 -22.293 -19.846  0.00  0.00    -0.250 OA
ATOM     23  C   UNL     1      33.453 -21.096 -19.990  0.00  0.00    +0.316 C 
BRANCH  23  24
ATOM     24  O   UNL     1      32.485 -20.155 -19.836  0.00  0.00    -0.480 OA
ATOM     25  H   UNL     1      31.935 -19.924 -20.559  0.00  0.00    +0.295 HD
ENDBRANCH  23  24
ENDBRANCH  21  23
ENDBRANCH  20  21
ENDBRANCH  17  20
ENDBRANCH   3  18
BRANCH   5  26
ATOM     26  O   UNL     1      38.107 -23.036 -15.629  0.00  0.00    -0.505 OA
ATOM     27  H   UNL     1      38.601 -23.520 -16.261  0.00  0.00    +0.292 HD
ENDBRANCH   5  26
TORSDOF 7
ENDMDL
MODEL 6
REMARK VINA RESULT:      -9.5      3.660      6.406
REMARK  Name = 25150856
REMARK  7 active torsions:
REMARK  status: ('A' for Active; 'I' for Inactive)
REMARK    1  A    between atoms: C_2  and  C_10
REMARK    2  A    between atoms: C_3  and  C_18
REMARK    3  A    between atoms: C_5  and  O_26
REMARK    4  A    between atoms: N_17  and  C_20
REMARK    5  A    between atoms: C_20  and  C_21
REMARK    6  A    between atoms: C_21  and  C_23
REMARK    7  A    between atoms: C_23  and  O_24
REMARK                            x       y       z     vdW  Elec       q    Type
REMARK                         _______ _______ _______ _____ _____    ______ ____
ROOT
ATOM      1  I   UNL     1      30.443 -23.510 -14.266  0.00  0.00    -0.039 I 
ATOM      2  C   UNL     1      34.627 -23.851 -15.360  0.00  0.00    +0.003 C 
ATOM      3  C   UNL     1      33.503 -23.089 -17.359  0.00  0.00    +0.087 C 
ATOM      4  C   UNL     1      34.673 -23.467 -16.701  0.00  0.00    +0.008 C 
ATOM      5  C   UNL     1      32.286 -23.095 -16.677  0.00  0.00    +0.143 C 
ATOM      6  C   UNL     1      33.410 -23.857 -14.678  0.00  0.00    +0.009 C 
ATOM      7  C   UNL     1      32.240 -23.479 -15.337  0.00  0.00    +0.064 C 
ENDROOT
BRANCH   2  10
ATOM      8  F   UNL     1      35.800 -26.378 -15.724  0.00  0.00    -0.204 F 
ATOM      9  F   UNL     1      39.307 -25.348 -12.725  0.00  0.00    -0.204 F 
ATOM     10  C   UNL     1      35.841 -24.242 -14.679  0.00  0.00    +0.028 C 
ATOM     11  C   UNL     1      36.387 -25.508 -14.890  0.00  0.00    +0.142 C 
ATOM     12  C   UNL     1      36.466 -23.350 -13.807  0.00  0.00    +0.005 C 
ATOM     13  C   UNL     1      37.559 -25.882 -14.230  0.00  0.00    +0.059 C 
ATOM     14  C   UNL     1      37.637 -23.723 -13.147  0.00  0.00    +0.030 C 
ATOM     15  C   UNL     1      38.184 -24.989 -13.359  0.00  0.00    +0.142 C 
ENDBRANCH   2  10
BRANCH   3  18
ATOM     16  O   UNL     1      34.058 -23.467 -19.605  0.00  0.00    -0.270 OA
ATOM     17  N   UNL     1      33.068 -21.433 -19.096  0.00  0.00    -0.300 N 
ATOM     18  C   UNL     1      33.579 -22.687 -18.787  0.00  0.00    +0.249 C 
ATOM     19  H   UNL     1      32.705 -20.878 -18.369  0.00  0.00    +0.150 HD
BRANCH  17  20
ATOM     20  C   UNL     1      33.047 -20.912 -20.436  0.00  0.00    +0.101 C 
BRANCH  20  21
ATOM     21  C   UNL     1      33.793 -19.588 -20.548  0.00  0.00    +0.131 C 
BRANCH  21  23
ATOM     22  O   UNL     1      36.116 -18.857 -20.654  0.00  0.00    -0.250 OA
ATOM     23  C   UNL     1      35.294 -19.762 -20.632  0.00  0.00    +0.316 C 
BRANCH  23  24
ATOM     24  O   UNL     1      35.637 -21.076 -20.673  0.00  0.00    -0.480 OA
ATOM     25  H   UNL     1      36.318 -21.366 -21.248  0.00  0.00    +0.295 HD
ENDBRANCH  23  24
ENDBRANCH  21  23
ENDBRANCH  20  21
ENDBRANCH  17  20
ENDBRANCH   3  18
BRANCH   5  26
ATOM     26  O   UNL     1      31.153 -22.723 -17.340  0.00  0.00    -0.505 OA
ATOM     27  H   UNL     1      30.806 -21.860 -17.228  0.00  0.00    +0.292 HD
ENDBRANCH   5  26
TORSDOF 7
ENDMDL
MODEL 7
REMARK VINA RESULT:      -9.3      3.603      6.363
REMARK  Name = 25150856
REMARK  7 active torsions:
REMARK  status: ('A' for Active; 'I' for Inactive)
REMARK    1  A    between atoms: C_2  and  C_10
REMARK    2  A    between atoms: C_3  and  C_18
REMARK    3  A    between atoms: C_5  and  O_26
REMARK    4  A    between atoms: N_17  and  C_20
REMARK    5  A    between atoms: C_20  and  C_21
REMARK    6  A    between atoms: C_21  and  C_23
REMARK    7  A    between atoms: C_23  and  O_24
REMARK                            x       y       z     vdW  Elec       q    Type
REMARK                         _______ _______ _______ _____ _____    ______ ____
ROOT
ATOM      1  I   UNL     1      30.579 -23.418 -14.173  0.00  0.00    -0.039 I 
ATOM      2  C   UNL     1      34.674 -24.099 -15.432  0.00  0.00    +0.003 C 
ATOM      3  C   UNL     1      33.547 -23.207 -17.375  0.00  0.00    +0.087 C 
ATOM      4  C   UNL     1      34.704 -23.696 -16.768  0.00  0.00    +0.008 C 
ATOM      5  C   UNL     1      32.360 -23.121 -16.647  0.00  0.00    +0.143 C 
ATOM      6  C   UNL     1      33.487 -24.013 -14.704  0.00  0.00    +0.009 C 
ATOM      7  C   UNL     1      32.331 -23.523 -15.311  0.00  0.00    +0.064 C 
ENDROOT
BRANCH   2  10
ATOM      8  F   UNL     1      36.197 -22.554 -13.646  0.00  0.00    -0.204 F 
ATOM      9  F   UNL     1      39.299 -26.067 -13.017  0.00  0.00    -0.204 F 
ATOM     10  C   UNL     1      35.874 -24.606 -14.804  0.00  0.00    +0.028 C 
ATOM     11  C   UNL     1      36.598 -23.803 -13.924  0.00  0.00    +0.142 C 
ATOM     12  C   UNL     1      36.307 -25.903 -15.081  0.00  0.00    +0.005 C 
ATOM     13  C   UNL     1      37.755 -24.296 -13.320  0.00  0.00    +0.059 C 
ATOM     14  C   UNL     1      37.463 -26.397 -14.477  0.00  0.00    +0.030 C 
ATOM     15  C   UNL     1      38.187 -25.594 -13.596  0.00  0.00    +0.142 C 
ENDBRANCH   2  10
BRANCH   3  18
ATOM     16  O   UNL     1      34.041 -23.570 -19.638  0.00  0.00    -0.270 OA
ATOM     17  N   UNL     1      33.126 -21.514 -19.079  0.00  0.00    -0.300 N 
ATOM     18  C   UNL     1      33.605 -22.787 -18.799  0.00  0.00    +0.249 C 
ATOM     19  H   UNL     1      32.796 -20.958 -18.337  0.00  0.00    +0.150 HD
BRANCH  17  20
ATOM     20  C   UNL     1      33.093 -20.973 -20.412  0.00  0.00    +0.101 C 
BRANCH  20  21
ATOM     21  C   UNL     1      33.871 -19.667 -20.520  0.00  0.00    +0.131 C 
BRANCH  21  23
ATOM     22  O   UNL     1      36.212 -18.990 -20.549  0.00  0.00    -0.250 OA
ATOM     23  C   UNL     1      35.369 -19.875 -20.564  0.00  0.00    +0.316 C 
BRANCH  23  24
ATOM     24  O   UNL     1      35.683 -21.197 -20.614  0.00  0.00    -0.480 OA
ATOM     25  H   UNL     1      36.574 -21.463 -20.732  0.00  0.00    +0.295 HD
ENDBRANCH  23  24
ENDBRANCH  21  23
ENDBRANCH  20  21
ENDBRANCH  17  20
ENDBRANCH   3  18
BRANCH   5  26
ATOM     26  O   UNL     1      31.240 -22.640 -17.260  0.00  0.00    -0.505 OA
ATOM     27  H   UNL     1      30.887 -23.083 -18.007  0.00  0.00    +0.292 HD
ENDBRANCH   5  26
TORSDOF 7
ENDMDL
MODEL 8
REMARK VINA RESULT:      -9.2      1.666      2.057
REMARK  Name = 25150856
REMARK  7 active torsions:
REMARK  status: ('A' for Active; 'I' for Inactive)
REMARK    1  A    between atoms: C_2  and  C_10
REMARK    2  A    between atoms: C_3  and  C_18
REMARK    3  A    between atoms: C_5  and  O_26
REMARK    4  A    between atoms: N_17  and  C_20
REMARK    5  A    between atoms: C_20  and  C_21
REMARK    6  A    between atoms: C_21  and  C_23
REMARK    7  A    between atoms: C_23  and  O_24
REMARK                            x       y       z     vdW  Elec       q    Type
REMARK                         _______ _______ _______ _____ _____    ______ ____
ROOT
ATOM      1  I   UNL     1      30.107 -23.418 -15.789  0.00  0.00    -0.039 I 
ATOM      2  C   UNL     1      33.742 -22.357 -17.904  0.00  0.00    +0.003 C 
ATOM      3  C   UNL     1      34.451 -23.789 -16.092  0.00  0.00    +0.087 C 
ATOM      4  C   UNL     1      34.759 -23.009 -17.206  0.00  0.00    +0.008 C 
ATOM      5  C   UNL     1      33.126 -23.916 -15.674  0.00  0.00    +0.143 C 
ATOM      6  C   UNL     1      32.417 -22.484 -17.487  0.00  0.00    +0.009 C 
ATOM      7  C   UNL     1      32.109 -23.264 -16.372  0.00  0.00    +0.064 C 
ENDROOT
BRANCH   2  10
ATOM      8  F   UNL     1      36.377 -22.042 -18.828  0.00  0.00    -0.204 F 
ATOM      9  F   UNL     1      34.962 -19.235 -22.361  0.00  0.00    -0.204 F 
ATOM     10  C   UNL     1      34.062 -21.548 -19.060  0.00  0.00    +0.028 C 
ATOM     11  C   UNL     1      35.385 -21.420 -19.482  0.00  0.00    +0.142 C 
ATOM     12  C   UNL     1      33.043 -20.894 -19.752  0.00  0.00    +0.005 C 
ATOM     13  C   UNL     1      35.689 -20.639 -20.598  0.00  0.00    +0.059 C 
ATOM     14  C   UNL     1      33.347 -20.113 -20.868  0.00  0.00    +0.030 C 
ATOM     15  C   UNL     1      34.670 -19.986 -21.291  0.00  0.00    +0.142 C 
ENDBRANCH   2  10
BRANCH   3  18
ATOM     16  O   UNL     1      35.571 -25.698 -15.318  0.00  0.00    -0.270 OA
ATOM     17  N   UNL     1      36.514 -23.644 -14.798  0.00  0.00    -0.300 N 
ATOM     18  C   UNL     1      35.553 -24.471 -15.365  0.00  0.00    +0.249 C 
ATOM     19  H   UNL     1      36.411 -22.669 -14.888  0.00  0.00    +0.150 HD
BRANCH  17  20
ATOM     20  C   UNL     1      37.653 -24.154 -14.083  0.00  0.00    +0.101 C 
BRANCH  20  21
ATOM     21  C   UNL     1      38.850 -24.378 -14.999  0.00  0.00    +0.131 C 
BRANCH  21  23
ATOM     22  O   UNL     1      38.985 -26.771 -14.557  0.00  0.00    -0.250 OA
ATOM     23  C   UNL     1      39.542 -25.700 -14.751  0.00  0.00    +0.316 C 
BRANCH  23  24
ATOM     24  O   UNL     1      40.894 -25.562 -14.777  0.00  0.00    -0.480 OA
ATOM     25  H   UNL     1      41.278 -24.708 -14.813  0.00  0.00    +0.295 HD
ENDBRANCH  23  24
ENDBRANCH  21  23
ENDBRANCH  20  21
ENDBRANCH  17  20
ENDBRANCH   3  18
BRANCH   5  26
ATOM     26  O   UNL     1      32.847 -24.683 -14.580  0.00  0.00    -0.505 OA
ATOM     27  H   UNL     1      32.771 -25.613 -14.667  0.00  0.00    +0.292 HD
ENDBRANCH   5  26
TORSDOF 7
ENDMDL
MODEL 9
REMARK VINA RESULT:      -8.9     12.794     15.126
REMARK  Name = 25150856
REMARK  7 active torsions:
REMARK  status: ('A' for Active; 'I' for Inactive)
REMARK    1  A    between atoms: C_2  and  C_10
REMARK    2  A    between atoms: C_3  and  C_18
REMARK    3  A    between atoms: C_5  and  O_26
REMARK    4  A    between atoms: N_17  and  C_20
REMARK    5  A    between atoms: C_20  and  C_21
REMARK    6  A    between atoms: C_21  and  C_23
REMARK    7  A    between atoms: C_23  and  O_24
REMARK                            x       y       z     vdW  Elec       q    Type
REMARK                         _______ _______ _______ _____ _____    ______ ____
ROOT
ATOM      1  I   UNL     1      31.133 -10.709 -19.105  0.00  0.00    -0.039 I 
ATOM      2  C   UNL     1      32.616  -9.508 -23.001  0.00  0.00    +0.003 C 
ATOM      3  C   UNL     1      32.834 -11.914 -22.947  0.00  0.00    +0.087 C 
ATOM      4  C   UNL     1      32.990 -10.702 -23.619  0.00  0.00    +0.008 C 
ATOM      5  C   UNL     1      32.304 -11.933 -21.656  0.00  0.00    +0.143 C 
ATOM      6  C   UNL     1      32.087  -9.527 -21.710  0.00  0.00    +0.009 C 
ATOM      7  C   UNL     1      31.930 -10.740 -21.039  0.00  0.00    +0.064 C 
ENDROOT
BRANCH   2  10
ATOM      8  F   UNL     1      30.429  -7.888 -23.696  0.00  0.00    -0.204 F 
ATOM      9  F   UNL     1      33.259  -4.666 -25.691  0.00  0.00    -0.204 F 
ATOM     10  C   UNL     1      32.779  -8.252 -23.698  0.00  0.00    +0.028 C 
ATOM     11  C   UNL     1      31.664  -7.480 -24.023  0.00  0.00    +0.142 C 
ATOM     12  C   UNL     1      34.057  -7.813 -24.047  0.00  0.00    +0.005 C 
ATOM     13  C   UNL     1      31.826  -6.269 -24.696  0.00  0.00    +0.059 C 
ATOM     14  C   UNL     1      34.219  -6.601 -24.719  0.00  0.00    +0.030 C 
ATOM     15  C   UNL     1      33.104  -5.829 -25.044  0.00  0.00    +0.142 C 
ENDBRANCH   2  10
BRANCH   3  18
ATOM     16  O   UNL     1      32.795 -13.422 -24.742  0.00  0.00    -0.270 OA
ATOM     17  N   UNL     1      34.139 -13.975 -22.935  0.00  0.00    -0.300 N 
ATOM     18  C   UNL     1      33.242 -13.171 -23.626  0.00  0.00    +0.249 C 
ATOM     19  H   UNL     1      34.441 -13.688 -22.043  0.00  0.00    +0.150 HD
BRANCH  17  20
ATOM     20  C   UNL     1      34.646 -15.210 -23.470  0.00  0.00    +0.101 C 
BRANCH  20  21
ATOM     21  C   UNL     1      34.810 -16.276 -22.394  0.00  0.00    +0.131 C 
BRANCH  21  23
ATOM     22  O   UNL     1      34.942 -15.391 -20.128  0.00  0.00    -0.250 OA
ATOM     23  C   UNL     1      34.275 -15.841 -21.047  0.00  0.00    +0.316 C 
BRANCH  23  24
ATOM     24  O   UNL     1      32.928 -16.004 -20.975  0.00  0.00    -0.480 OA
ATOM     25  H   UNL     1      32.373 -15.265 -20.822  0.00  0.00    +0.295 HD
ENDBRANCH  23  24
ENDBRANCH  21  23
ENDBRANCH  20  21
ENDBRANCH  17  20
ENDBRANCH   3  18
BRANCH   5  26
ATOM     26  O   UNL     1      32.160 -13.130 -21.017  0.00  0.00    -0.505 OA
ATOM     27  H   UNL     1      31.382 -13.310 -20.527  0.00  0.00    +0.292 HD
ENDBRANCH   5  26
TORSDOF 7
ENDMDL
