MODEL 1
REMARK VINA RESULT:      -8.7      0.000      0.000
REMARK  Name = 445132
REMARK  8 active torsions:
REMARK  status: ('A' for Active; 'I' for Inactive)
REMARK    1  A    between atoms: C_2  and  O_16
REMARK    2  A    between atoms: C_3  and  O_18
REMARK    3  A    between atoms: C_4  and  N_9
REMARK    4  A    between atoms: C_5  and  C_20
REMARK    5  A    between atoms: C_20  and  O_21
REMARK    6  A    between atoms: O_21  and  P_22
REMARK    7  A    between atoms: P_22  and  O_24
REMARK    8  A    between atoms: P_22  and  O_26
REMARK                            x       y       z     vdW  Elec       q    Type
REMARK                         _______ _______ _______ _____ _____    ______ ____
ROOT
ATOM      1  O   UNL     1      32.006 -25.454 -14.406  0.00  0.00    -0.333 OA
ATOM      2  C   UNL     1      31.692 -23.296 -13.482  0.00  0.00    +0.187 C 
ATOM      3  C   UNL     1      30.384 -24.054 -13.396  0.00  0.00    +0.171 C 
ATOM      4  C   UNL     1      32.695 -24.417 -13.689  0.00  0.00    +0.231 C 
ATOM      5  C   UNL     1      30.591 -25.164 -14.418  0.00  0.00    +0.176 C 
ENDROOT
BRANCH   4   9
ATOM      6  O   UNL     1      32.522 -23.195 -16.203  0.00  0.00    -0.274 OA
ATOM      7  O   UNL     1      35.268 -24.749 -12.774  0.00  0.00    -0.252 OA
ATOM      8  O   UNL     1      37.235 -22.882 -16.458  0.00  0.00    -0.274 OA
ATOM      9  N   UNL     1      33.835 -24.000 -14.453  0.00  0.00    -0.188 N 
ATOM     10  N   UNL     1      36.207 -23.811 -14.629  0.00  0.00    -0.239 N 
ATOM     11  C   UNL     1      33.634 -23.395 -15.710  0.00  0.00    +0.244 C 
ATOM     12  C   UNL     1      35.112 -24.222 -13.879  0.00  0.00    +0.317 C 
ATOM     13  C   UNL     1      34.858 -22.982 -16.476  0.00  0.00    +0.171 C 
ATOM     14  C   UNL     1      36.205 -23.212 -15.870  0.00  0.00    +0.239 C 
ATOM     15  H   UNL     1      37.091 -23.968 -14.226  0.00  0.00    +0.159 HD
ENDBRANCH   4   9
BRANCH   2  16
ATOM     16  O   UNL     1      31.951 -22.541 -12.316  0.00  0.00    -0.378 OA
ATOM     17  H   UNL     1      31.293 -21.833 -12.236  0.00  0.00    +0.211 HD
ENDBRANCH   2  16
BRANCH   3  18
ATOM     18  O   UNL     1      30.248 -24.661 -12.111  0.00  0.00    -0.379 OA
ATOM     19  H   UNL     1      30.301 -23.978 -11.424  0.00  0.00    +0.211 HD
ENDBRANCH   3  18
BRANCH   5  20
ATOM     20  C   UNL     1      30.203 -24.757 -15.833  0.00  0.00    +0.186 C 
BRANCH  20  21
ATOM     21  O   UNL     1      28.853 -24.327 -15.828  0.00  0.00    -0.271 OA
BRANCH  21  22
ATOM     22  P   UNL     1      28.485 -22.924 -16.548  0.00  0.00    +0.473 P 
ATOM     23  O   UNL     1      27.762 -21.937 -15.679  0.00  0.00    -0.227 OA
BRANCH  22  24
ATOM     24  O   UNL     1      27.699 -23.375 -17.886  0.00  0.00    -0.303 OA
ATOM     25  H   UNL     1      27.695 -24.342 -17.949  0.00  0.00    +0.222 HD
ENDBRANCH  22  24
BRANCH  22  26
ATOM     26  O   UNL     1      29.916 -22.421 -17.109  0.00  0.00    -0.303 OA
ATOM     27  H   UNL     1      29.873 -22.338 -18.075  0.00  0.00    +0.222 HD
ENDBRANCH  22  26
ENDBRANCH  21  22
ENDBRANCH  20  21
ENDBRANCH   5  20
TORSDOF 8
ENDMDL
MODEL 2
REMARK VINA RESULT:      -8.6      2.993      6.531
REMARK  Name = 445132
REMARK  8 active torsions:
REMARK  status: ('A' for Active; 'I' for Inactive)
REMARK    1  A    between atoms: C_2  and  O_16
REMARK    2  A    between atoms: C_3  and  O_18
REMARK    3  A    between atoms: C_4  and  N_9
REMARK    4  A    between atoms: C_5  and  C_20
REMARK    5  A    between atoms: C_20  and  O_21
REMARK    6  A    between atoms: O_21  and  P_22
REMARK    7  A    between atoms: P_22  and  O_24
REMARK    8  A    between atoms: P_22  and  O_26
REMARK                            x       y       z     vdW  Elec       q    Type
REMARK                         _______ _______ _______ _____ _____    ______ ____
ROOT
ATOM      1  O   UNL     1      35.786 -24.960 -15.711  0.00  0.00    -0.333 OA
ATOM      2  C   UNL     1      36.278 -22.676 -15.321  0.00  0.00    +0.187 C 
ATOM      3  C   UNL     1      37.411 -23.516 -14.770  0.00  0.00    +0.171 C 
ATOM      4  C   UNL     1      35.593 -23.648 -16.265  0.00  0.00    +0.231 C 
ATOM      5  C   UNL     1      36.760 -24.887 -14.647  0.00  0.00    +0.176 C 
ENDROOT
BRANCH   4   9
ATOM      6  O   UNL     1      33.785 -23.846 -14.136  0.00  0.00    -0.274 OA
ATOM      7  O   UNL     1      34.445 -22.904 -18.652  0.00  0.00    -0.252 OA
ATOM      8  O   UNL     1      30.200 -22.621 -16.970  0.00  0.00    -0.274 OA
ATOM      9  N   UNL     1      34.186 -23.396 -16.388  0.00  0.00    -0.188 N 
ATOM     10  N   UNL     1      32.344 -22.776 -17.772  0.00  0.00    -0.239 N 
ATOM     11  C   UNL     1      33.365 -23.526 -15.251  0.00  0.00    +0.244 C 
ATOM     12  C   UNL     1      33.709 -23.019 -17.668  0.00  0.00    +0.317 C 
ATOM     13  C   UNL     1      31.897 -23.260 -15.430  0.00  0.00    +0.171 C 
ATOM     14  C   UNL     1      31.393 -22.857 -16.778  0.00  0.00    +0.239 C 
ATOM     15  H   UNL     1      32.018 -22.514 -18.663  0.00  0.00    +0.159 HD
ENDBRANCH   4   9
BRANCH   2  16
ATOM     16  O   UNL     1      36.743 -21.514 -15.978  0.00  0.00    -0.378 OA
ATOM     17  H   UNL     1      35.992 -20.936 -16.182  0.00  0.00    +0.211 HD
ENDBRANCH   2  16
BRANCH   3  18
ATOM     18  O   UNL     1      38.465 -23.615 -15.728  0.00  0.00    -0.379 OA
ATOM     19  H   UNL     1      38.192 -23.182 -16.552  0.00  0.00    +0.211 HD
ENDBRANCH   3  18
BRANCH   5  20
ATOM     20  C   UNL     1      36.034 -25.092 -13.325  0.00  0.00    +0.186 C 
BRANCH  20  21
ATOM     21  O   UNL     1      36.882 -24.671 -12.271  0.00  0.00    -0.271 OA
BRANCH  21  22
ATOM     22  P   UNL     1      36.282 -23.675 -11.145  0.00  0.00    +0.473 P 
ATOM     23  O   UNL     1      36.191 -24.258  -9.766  0.00  0.00    -0.227 OA
BRANCH  22  24
ATOM     24  O   UNL     1      34.880 -23.179 -11.780  0.00  0.00    -0.303 OA
ATOM     25  H   UNL     1      34.167 -23.317 -11.138  0.00  0.00    +0.222 HD
ENDBRANCH  22  24
BRANCH  22  26
ATOM     26  O   UNL     1      37.230 -22.371 -11.275  0.00  0.00    -0.303 OA
ATOM     27  H   UNL     1      36.691 -21.570 -11.183  0.00  0.00    +0.222 HD
ENDBRANCH  22  26
ENDBRANCH  21  22
ENDBRANCH  20  21
ENDBRANCH   5  20
TORSDOF 8
ENDMDL
MODEL 3
REMARK VINA RESULT:      -8.5      3.820      7.304
REMARK  Name = 445132
REMARK  8 active torsions:
REMARK  status: ('A' for Active; 'I' for Inactive)
REMARK    1  A    between atoms: C_2  and  O_16
REMARK    2  A    between atoms: C_3  and  O_18
REMARK    3  A    between atoms: C_4  and  N_9
REMARK    4  A    between atoms: C_5  and  C_20
REMARK    5  A    between atoms: C_20  and  O_21
REMARK    6  A    between atoms: O_21  and  P_22
REMARK    7  A    between atoms: P_22  and  O_24
REMARK    8  A    between atoms: P_22  and  O_26
REMARK                            x       y       z     vdW  Elec       q    Type
REMARK                         _______ _______ _______ _____ _____    ______ ____
ROOT
ATOM      1  O   UNL     1      36.840 -23.286 -13.958  0.00  0.00    -0.333 OA
ATOM      2  C   UNL     1      35.536 -24.886 -12.795  0.00  0.00    +0.187 C 
ATOM      3  C   UNL     1      36.971 -24.998 -12.325  0.00  0.00    +0.171 C 
ATOM      4  C   UNL     1      35.520 -23.510 -13.437  0.00  0.00    +0.231 C 
ATOM      5  C   UNL     1      37.729 -24.305 -13.449  0.00  0.00    +0.176 C 
ENDROOT
BRANCH   4   9
ATOM      6  O   UNL     1      32.743 -23.596 -13.079  0.00  0.00    -0.274 OA
ATOM      7  O   UNL     1      36.308 -23.211 -16.056  0.00  0.00    -0.252 OA
ATOM      8  O   UNL     1      32.054 -23.122 -17.735  0.00  0.00    -0.274 OA
ATOM      9  N   UNL     1      34.573 -23.416 -14.511  0.00  0.00    -0.188 N 
ATOM     10  N   UNL     1      34.170 -23.172 -16.850  0.00  0.00    -0.239 N 
ATOM     11  C   UNL     1      33.196 -23.472 -14.219  0.00  0.00    +0.244 C 
ATOM     12  C   UNL     1      35.097 -23.263 -15.820  0.00  0.00    +0.317 C 
ATOM     13  C   UNL     1      32.244 -23.377 -15.377  0.00  0.00    +0.171 C 
ATOM     14  C   UNL     1      32.796 -23.212 -16.757  0.00  0.00    +0.239 C 
ATOM     15  H   UNL     1      34.539 -23.066 -17.756  0.00  0.00    +0.159 HD
ENDBRANCH   4   9
BRANCH   2  16
ATOM     16  O   UNL     1      34.613 -25.001 -11.731  0.00  0.00    -0.378 OA
ATOM     17  H   UNL     1      33.947 -25.670 -11.951  0.00  0.00    +0.211 HD
ENDBRANCH   2  16
BRANCH   3  18
ATOM     18  O   UNL     1      37.162 -24.237 -11.133  0.00  0.00    -0.379 OA
ATOM     19  H   UNL     1      36.397 -24.356 -10.548  0.00  0.00    +0.211 HD
ENDBRANCH   3  18
BRANCH   5  20
ATOM     20  C   UNL     1      38.086 -25.239 -14.598  0.00  0.00    +0.186 C 
BRANCH  20  21
ATOM     21  O   UNL     1      39.004 -26.209 -14.126  0.00  0.00    -0.271 OA
BRANCH  21  22
ATOM     22  P   UNL     1      40.564 -26.062 -14.535  0.00  0.00    +0.473 P 
ATOM     23  O   UNL     1      41.464 -27.134 -13.996  0.00  0.00    -0.227 OA
BRANCH  22  24
ATOM     24  O   UNL     1      40.937 -24.554 -14.086  0.00  0.00    -0.303 OA
ATOM     25  H   UNL     1      40.964 -23.981 -14.868  0.00  0.00    +0.222 HD
ENDBRANCH  22  24
BRANCH  22  26
ATOM     26  O   UNL     1      40.506 -25.964 -16.149  0.00  0.00    -0.303 OA
ATOM     27  H   UNL     1      40.023 -26.727 -16.501  0.00  0.00    +0.222 HD
ENDBRANCH  22  26
ENDBRANCH  21  22
ENDBRANCH  20  21
ENDBRANCH   5  20
TORSDOF 8
ENDMDL
MODEL 4
REMARK VINA RESULT:      -8.5      3.785      7.293
REMARK  Name = 445132
REMARK  8 active torsions:
REMARK  status: ('A' for Active; 'I' for Inactive)
REMARK    1  A    between atoms: C_2  and  O_16
REMARK    2  A    between atoms: C_3  and  O_18
REMARK    3  A    between atoms: C_4  and  N_9
REMARK    4  A    between atoms: C_5  and  C_20
REMARK    5  A    between atoms: C_20  and  O_21
REMARK    6  A    between atoms: O_21  and  P_22
REMARK    7  A    between atoms: P_22  and  O_24
REMARK    8  A    between atoms: P_22  and  O_26
REMARK                            x       y       z     vdW  Elec       q    Type
REMARK                         _______ _______ _______ _____ _____    ______ ____
ROOT
ATOM      1  O   UNL     1      36.786 -23.238 -13.930  0.00  0.00    -0.333 OA
ATOM      2  C   UNL     1      35.505 -24.897 -12.825  0.00  0.00    +0.187 C 
ATOM      3  C   UNL     1      36.934 -24.981 -12.333  0.00  0.00    +0.171 C 
ATOM      4  C   UNL     1      35.463 -23.508 -13.437  0.00  0.00    +0.231 C 
ATOM      5  C   UNL     1      37.693 -24.244 -13.428  0.00  0.00    +0.176 C 
ENDROOT
BRANCH   4   9
ATOM      6  O   UNL     1      36.226 -23.309 -16.125  0.00  0.00    -0.274 OA
ATOM      7  O   UNL     1      32.741 -23.527 -13.038  0.00  0.00    -0.252 OA
ATOM      8  O   UNL     1      31.694 -23.169 -17.477  0.00  0.00    -0.274 OA
ATOM      9  N   UNL     1      34.533 -23.416 -14.526  0.00  0.00    -0.188 N 
ATOM     10  N   UNL     1      32.264 -23.348 -15.262  0.00  0.00    -0.239 N 
ATOM     11  C   UNL     1      35.025 -23.318 -15.842  0.00  0.00    +0.244 C 
ATOM     12  C   UNL     1      33.154 -23.436 -14.198  0.00  0.00    +0.317 C 
ATOM     13  C   UNL     1      34.013 -23.216 -16.948  0.00  0.00    +0.171 C 
ATOM     14  C   UNL     1      32.559 -23.242 -16.604  0.00  0.00    +0.239 C 
ATOM     15  H   UNL     1      31.308 -23.363 -15.029  0.00  0.00    +0.159 HD
ENDBRANCH   4   9
BRANCH   2  16
ATOM     16  O   UNL     1      34.568 -25.059 -11.780  0.00  0.00    -0.378 OA
ATOM     17  H   UNL     1      34.253 -25.977 -11.768  0.00  0.00    +0.211 HD
ENDBRANCH   2  16
BRANCH   3  18
ATOM     18  O   UNL     1      37.085 -24.242 -11.121  0.00  0.00    -0.379 OA
ATOM     19  H   UNL     1      36.777 -24.780 -10.375  0.00  0.00    +0.211 HD
ENDBRANCH   3  18
BRANCH   5  20
ATOM     20  C   UNL     1      38.094 -25.143 -14.590  0.00  0.00    +0.186 C 
BRANCH  20  21
ATOM     21  O   UNL     1      38.970 -26.146 -14.107  0.00  0.00    -0.271 OA
BRANCH  21  22
ATOM     22  P   UNL     1      40.543 -26.044 -14.480  0.00  0.00    +0.473 P 
ATOM     23  O   UNL     1      41.405 -27.119 -13.887  0.00  0.00    -0.227 OA
BRANCH  22  24
ATOM     24  O   UNL     1      40.938 -24.533 -14.066  0.00  0.00    -0.303 OA
ATOM     25  H   UNL     1      41.904 -24.439 -14.064  0.00  0.00    +0.222 HD
ENDBRANCH  22  24
BRANCH  22  26
ATOM     26  O   UNL     1      40.528 -25.995 -16.097  0.00  0.00    -0.303 OA
ATOM     27  H   UNL     1      39.838 -25.383 -16.395  0.00  0.00    +0.222 HD
ENDBRANCH  22  26
ENDBRANCH  21  22
ENDBRANCH  20  21
ENDBRANCH   5  20
TORSDOF 8
ENDMDL
MODEL 5
REMARK VINA RESULT:      -8.4      3.099      4.230
REMARK  Name = 445132
REMARK  8 active torsions:
REMARK  status: ('A' for Active; 'I' for Inactive)
REMARK    1  A    between atoms: C_2  and  O_16
REMARK    2  A    between atoms: C_3  and  O_18
REMARK    3  A    between atoms: C_4  and  N_9
REMARK    4  A    between atoms: C_5  and  C_20
REMARK    5  A    between atoms: C_20  and  O_21
REMARK    6  A    between atoms: O_21  and  P_22
REMARK    7  A    between atoms: P_22  and  O_24
REMARK    8  A    between atoms: P_22  and  O_26
REMARK                            x       y       z     vdW  Elec       q    Type
REMARK                         _______ _______ _______ _____ _____    ______ ____
ROOT
ATOM      1  O   UNL     1      34.836 -25.283 -15.060  0.00  0.00    -0.333 OA
ATOM      2  C   UNL     1      34.940 -24.024 -13.056  0.00  0.00    +0.187 C 
ATOM      3  C   UNL     1      33.537 -23.924 -13.619  0.00  0.00    +0.171 C 
ATOM      4  C   UNL     1      35.483 -25.244 -13.777  0.00  0.00    +0.231 C 
ATOM      5  C   UNL     1      33.746 -24.335 -15.070  0.00  0.00    +0.176 C 
ENDROOT
BRANCH   4   9
ATOM      6  O   UNL     1      36.703 -23.832 -15.866  0.00  0.00    -0.274 OA
ATOM      7  O   UNL     1      37.251 -26.509 -12.090  0.00  0.00    -0.252 OA
ATOM      8  O   UNL     1      40.988 -25.125 -14.336  0.00  0.00    -0.274 OA
ATOM      9  N   UNL     1      36.903 -25.179 -13.974  0.00  0.00    -0.188 N 
ATOM     10  N   UNL     1      39.088 -25.797 -13.241  0.00  0.00    -0.239 N 
ATOM     11  C   UNL     1      37.412 -24.440 -15.060  0.00  0.00    +0.244 C 
ATOM     12  C   UNL     1      37.715 -25.870 -13.040  0.00  0.00    +0.317 C 
ATOM     13  C   UNL     1      38.904 -24.407 -15.229  0.00  0.00    +0.171 C 
ATOM     14  C   UNL     1      39.761 -25.131 -14.242  0.00  0.00    +0.239 C 
ATOM     15  H   UNL     1      39.647 -26.278 -12.589  0.00  0.00    +0.159 HD
ENDBRANCH   4   9
BRANCH   2  16
ATOM     16  O   UNL     1      34.943 -24.176 -11.651  0.00  0.00    -0.378 OA
ATOM     17  H   UNL     1      34.287 -24.843 -11.396  0.00  0.00    +0.211 HD
ENDBRANCH   2  16
BRANCH   3  18
ATOM     18  O   UNL     1      32.687 -24.893 -13.006  0.00  0.00    -0.379 OA
ATOM     19  H   UNL     1      32.876 -25.769 -13.379  0.00  0.00    +0.211 HD
ENDBRANCH   3  18
BRANCH   5  20
ATOM     20  C   UNL     1      34.137 -23.174 -15.974  0.00  0.00    +0.186 C 
BRANCH  20  21
ATOM     21  O   UNL     1      33.266 -23.155 -17.091  0.00  0.00    -0.271 OA
BRANCH  21  22
ATOM     22  P   UNL     1      33.845 -22.645 -18.515  0.00  0.00    +0.473 P 
ATOM     23  O   UNL     1      33.088 -21.508 -19.136  0.00  0.00    -0.227 OA
BRANCH  22  24
ATOM     24  O   UNL     1      33.920 -23.994 -19.403  0.00  0.00    -0.303 OA
ATOM     25  H   UNL     1      34.827 -24.337 -19.393  0.00  0.00    +0.222 HD
ENDBRANCH  22  24
BRANCH  22  26
ATOM     26  O   UNL     1      35.396 -22.332 -18.183  0.00  0.00    -0.303 OA
ATOM     27  H   UNL     1      35.953 -23.040 -18.543  0.00  0.00    +0.222 HD
ENDBRANCH  22  26
ENDBRANCH  21  22
ENDBRANCH  20  21
ENDBRANCH   5  20
TORSDOF 8
ENDMDL
MODEL 6
REMARK VINA RESULT:      -8.4      7.543      9.795
REMARK  Name = 445132
REMARK  8 active torsions:
REMARK  status: ('A' for Active; 'I' for Inactive)
REMARK    1  A    between atoms: C_2  and  O_16
REMARK    2  A    between atoms: C_3  and  O_18
REMARK    3  A    between atoms: C_4  and  N_9
REMARK    4  A    between atoms: C_5  and  C_20
REMARK    5  A    between atoms: C_20  and  O_21
REMARK    6  A    between atoms: O_21  and  P_22
REMARK    7  A    between atoms: P_22  and  O_24
REMARK    8  A    between atoms: P_22  and  O_26
REMARK                            x       y       z     vdW  Elec       q    Type
REMARK                         _______ _______ _______ _____ _____    ______ ____
ROOT
ATOM      1  O   UNL     1      35.352 -17.817 -20.645  0.00  0.00    -0.333 OA
ATOM      2  C   UNL     1      34.475 -18.771 -22.628  0.00  0.00    +0.187 C 
ATOM      3  C   UNL     1      34.783 -17.311 -22.888  0.00  0.00    +0.171 C 
ATOM      4  C   UNL     1      35.296 -19.050 -21.381  0.00  0.00    +0.231 C 
ATOM      5  C   UNL     1      34.857 -16.745 -21.476  0.00  0.00    +0.176 C 
ENDROOT
BRANCH   4   9
ATOM      6  O   UNL     1      36.775 -20.978 -19.989  0.00  0.00    -0.274 OA
ATOM      7  O   UNL     1      32.575 -19.239 -21.017  0.00  0.00    -0.252 OA
ATOM      8  O   UNL     1      32.806 -22.858 -18.229  0.00  0.00    -0.274 OA
ATOM      9  N   UNL     1      34.707 -20.061 -20.552  0.00  0.00    -0.188 N 
ATOM     10  N   UNL     1      32.737 -21.043 -19.631  0.00  0.00    -0.239 N 
ATOM     11  C   UNL     1      35.545 -20.985 -19.896  0.00  0.00    +0.244 C 
ATOM     12  C   UNL     1      33.293 -20.060 -20.439  0.00  0.00    +0.317 C 
ATOM     13  C   UNL     1      34.882 -22.030 -19.044  0.00  0.00    +0.171 C 
ATOM     14  C   UNL     1      33.392 -22.026 -18.922  0.00  0.00    +0.239 C 
ATOM     15  H   UNL     1      31.755 -21.037 -19.556  0.00  0.00    +0.159 HD
ENDBRANCH   4   9
BRANCH   2  16
ATOM     16  O   UNL     1      34.840 -19.597 -23.715  0.00  0.00    -0.378 OA
ATOM     17  H   UNL     1      34.099 -20.181 -23.940  0.00  0.00    +0.211 HD
ENDBRANCH   2  16
BRANCH   3  18
ATOM     18  O   UNL     1      36.074 -17.176 -23.483  0.00  0.00    -0.379 OA
ATOM     19  H   UNL     1      36.252 -16.238 -23.657  0.00  0.00    +0.211 HD
ENDBRANCH   3  18
BRANCH   5  20
ATOM     20  C   UNL     1      33.504 -16.309 -20.932  0.00  0.00    +0.186 C 
BRANCH  20  21
ATOM     21  O   UNL     1      32.817 -15.592 -21.942  0.00  0.00    -0.271 OA
BRANCH  21  22
ATOM     22  P   UNL     1      32.886 -13.974 -21.926  0.00  0.00    +0.473 P 
ATOM     23  O   UNL     1      32.601 -13.342 -20.596  0.00  0.00    -0.227 OA
BRANCH  22  24
ATOM     24  O   UNL     1      31.897 -13.536 -23.127  0.00  0.00    -0.303 OA
ATOM     25  H   UNL     1      31.469 -12.695 -22.904  0.00  0.00    +0.222 HD
ENDBRANCH  22  24
BRANCH  22  26
ATOM     26  O   UNL     1      34.357 -13.670 -22.527  0.00  0.00    -0.303 OA
ATOM     27  H   UNL     1      34.319 -12.881 -23.089  0.00  0.00    +0.222 HD
ENDBRANCH  22  26
ENDBRANCH  21  22
ENDBRANCH  20  21
ENDBRANCH   5  20
TORSDOF 8
ENDMDL
MODEL 7
REMARK VINA RESULT:      -8.3      7.549      9.661
REMARK  Name = 445132
REMARK  8 active torsions:
REMARK  status: ('A' for Active; 'I' for Inactive)
REMARK    1  A    between atoms: C_2  and  O_16
REMARK    2  A    between atoms: C_3  and  O_18
REMARK    3  A    between atoms: C_4  and  N_9
REMARK    4  A    between atoms: C_5  and  C_20
REMARK    5  A    between atoms: C_20  and  O_21
REMARK    6  A    between atoms: O_21  and  P_22
REMARK    7  A    between atoms: P_22  and  O_24
REMARK    8  A    between atoms: P_22  and  O_26
REMARK                            x       y       z     vdW  Elec       q    Type
REMARK                         _______ _______ _______ _____ _____    ______ ____
ROOT
ATOM      1  O   UNL     1      35.384 -17.618 -20.640  0.00  0.00    -0.333 OA
ATOM      2  C   UNL     1      34.595 -18.604 -22.644  0.00  0.00    +0.187 C 
ATOM      3  C   UNL     1      34.710 -17.108 -22.853  0.00  0.00    +0.171 C 
ATOM      4  C   UNL     1      35.469 -18.821 -21.422  0.00  0.00    +0.231 C 
ATOM      5  C   UNL     1      34.740 -16.589 -21.422  0.00  0.00    +0.176 C 
ENDROOT
BRANCH   4   9
ATOM      6  O   UNL     1      32.776 -19.471 -21.006  0.00  0.00    -0.274 OA
ATOM      7  O   UNL     1      37.241 -20.511 -20.167  0.00  0.00    -0.252 OA
ATOM      8  O   UNL     1      34.005 -23.150 -18.299  0.00  0.00    -0.274 OA
ATOM      9  N   UNL     1      35.030 -19.928 -20.622  0.00  0.00    -0.188 N 
ATOM     10  N   UNL     1      35.595 -21.800 -19.255  0.00  0.00    -0.239 N 
ATOM     11  C   UNL     1      33.648 -20.165 -20.478  0.00  0.00    +0.244 C 
ATOM     12  C   UNL     1      36.035 -20.730 -20.025  0.00  0.00    +0.317 C 
ATOM     13  C   UNL     1      33.237 -21.331 -19.626  0.00  0.00    +0.171 C 
ATOM     14  C   UNL     1      34.295 -22.180 -18.999  0.00  0.00    +0.239 C 
ATOM     15  H   UNL     1      36.297 -22.354 -18.843  0.00  0.00    +0.159 HD
ENDBRANCH   4   9
BRANCH   2  16
ATOM     16  O   UNL     1      35.039 -19.337 -23.768  0.00  0.00    -0.378 OA
ATOM     17  H   UNL     1      35.769 -18.863 -24.196  0.00  0.00    +0.211 HD
ENDBRANCH   2  16
BRANCH   3  18
ATOM     18  O   UNL     1      35.961 -16.789 -23.462  0.00  0.00    -0.379 OA
ATOM     19  H   UNL     1      36.681 -17.188 -22.948  0.00  0.00    +0.211 HD
ENDBRANCH   3  18
BRANCH   5  20
ATOM     20  C   UNL     1      33.353 -16.349 -20.841  0.00  0.00    +0.186 C 
BRANCH  20  21
ATOM     21  O   UNL     1      32.596 -15.592 -21.769  0.00  0.00    -0.271 OA
BRANCH  21  22
ATOM     22  P   UNL     1      32.717 -13.978 -21.732  0.00  0.00    +0.473 P 
ATOM     23  O   UNL     1      32.552 -13.361 -20.374  0.00  0.00    -0.227 OA
BRANCH  22  24
ATOM     24  O   UNL     1      31.654 -13.489 -22.847  0.00  0.00    -0.303 OA
ATOM     25  H   UNL     1      31.026 -14.205 -23.033  0.00  0.00    +0.222 HD
ENDBRANCH  22  24
BRANCH  22  26
ATOM     26  O   UNL     1      34.146 -13.706 -22.437  0.00  0.00    -0.303 OA
ATOM     27  H   UNL     1      34.657 -13.080 -21.902  0.00  0.00    +0.222 HD
ENDBRANCH  22  26
ENDBRANCH  21  22
ENDBRANCH  20  21
ENDBRANCH   5  20
TORSDOF 8
ENDMDL
MODEL 8
REMARK VINA RESULT:      -8.2      3.084      4.495
REMARK  Name = 445132
REMARK  8 active torsions:
REMARK  status: ('A' for Active; 'I' for Inactive)
REMARK    1  A    between atoms: C_2  and  O_16
REMARK    2  A    between atoms: C_3  and  O_18
REMARK    3  A    between atoms: C_4  and  N_9
REMARK    4  A    between atoms: C_5  and  C_20
REMARK    5  A    between atoms: C_20  and  O_21
REMARK    6  A    between atoms: O_21  and  P_22
REMARK    7  A    between atoms: P_22  and  O_24
REMARK    8  A    between atoms: P_22  and  O_26
REMARK                            x       y       z     vdW  Elec       q    Type
REMARK                         _______ _______ _______ _____ _____    ______ ____
ROOT
ATOM      1  O   UNL     1      34.816 -25.250 -15.082  0.00  0.00    -0.333 OA
ATOM      2  C   UNL     1      34.904 -24.030 -13.053  0.00  0.00    +0.187 C 
ATOM      3  C   UNL     1      33.508 -23.915 -13.627  0.00  0.00    +0.171 C 
ATOM      4  C   UNL     1      35.452 -25.238 -13.793  0.00  0.00    +0.231 C 
ATOM      5  C   UNL     1      33.730 -24.299 -15.084  0.00  0.00    +0.176 C 
ENDROOT
BRANCH   4   9
ATOM      6  O   UNL     1      37.302 -26.380 -12.027  0.00  0.00    -0.274 OA
ATOM      7  O   UNL     1      36.591 -23.969 -15.952  0.00  0.00    -0.252 OA
ATOM      8  O   UNL     1      40.899 -24.865 -14.701  0.00  0.00    -0.274 OA
ATOM      9  N   UNL     1      36.873 -25.172 -13.975  0.00  0.00    -0.188 N 
ATOM     10  N   UNL     1      38.723 -24.438 -15.291  0.00  0.00    -0.239 N 
ATOM     11  C   UNL     1      37.716 -25.781 -13.024  0.00  0.00    +0.244 C 
ATOM     12  C   UNL     1      37.345 -24.492 -15.126  0.00  0.00    +0.317 C 
ATOM     13  C   UNL     1      39.197 -25.679 -13.253  0.00  0.00    +0.171 C 
ATOM     14  C   UNL     1      39.694 -24.966 -14.468  0.00  0.00    +0.239 C 
ATOM     15  H   UNL     1      39.045 -23.965 -16.092  0.00  0.00    +0.159 HD
ENDBRANCH   4   9
BRANCH   2  16
ATOM     16  O   UNL     1      34.894 -24.209 -11.651  0.00  0.00    -0.378 OA
ATOM     17  H   UNL     1      34.802 -23.347 -11.216  0.00  0.00    +0.211 HD
ENDBRANCH   2  16
BRANCH   3  18
ATOM     18  O   UNL     1      32.650 -24.894 -13.041  0.00  0.00    -0.379 OA
ATOM     19  H   UNL     1      32.522 -25.626 -13.665  0.00  0.00    +0.211 HD
ENDBRANCH   3  18
BRANCH   5  20
ATOM     20  C   UNL     1      34.132 -23.121 -15.961  0.00  0.00    +0.186 C 
BRANCH  20  21
ATOM     21  O   UNL     1      33.245 -23.053 -17.064  0.00  0.00    -0.271 OA
BRANCH  21  22
ATOM     22  P   UNL     1      33.839 -22.626 -18.509  0.00  0.00    +0.473 P 
ATOM     23  O   UNL     1      33.109 -21.504 -19.187  0.00  0.00    -0.227 OA
BRANCH  22  24
ATOM     24  O   UNL     1      33.884 -24.018 -19.330  0.00  0.00    -0.303 OA
ATOM     25  H   UNL     1      33.010 -24.436 -19.307  0.00  0.00    +0.222 HD
ENDBRANCH  22  24
BRANCH  22  26
ATOM     26  O   UNL     1      35.396 -22.334 -18.187  0.00  0.00    -0.303 OA
ATOM     27  H   UNL     1      35.949 -22.734 -18.876  0.00  0.00    +0.222 HD
ENDBRANCH  22  26
ENDBRANCH  21  22
ENDBRANCH  20  21
ENDBRANCH   5  20
TORSDOF 8
ENDMDL
MODEL 9
REMARK VINA RESULT:      -7.9      3.824      5.677
REMARK  Name = 445132
REMARK  8 active torsions:
REMARK  status: ('A' for Active; 'I' for Inactive)
REMARK    1  A    between atoms: C_2  and  O_16
REMARK    2  A    between atoms: C_3  and  O_18
REMARK    3  A    between atoms: C_4  and  N_9
REMARK    4  A    between atoms: C_5  and  C_20
REMARK    5  A    between atoms: C_20  and  O_21
REMARK    6  A    between atoms: O_21  and  P_22
REMARK    7  A    between atoms: P_22  and  O_24
REMARK    8  A    between atoms: P_22  and  O_26
REMARK                            x       y       z     vdW  Elec       q    Type
REMARK                         _______ _______ _______ _____ _____    ______ ____
ROOT
ATOM      1  O   UNL     1      35.079 -25.131 -15.214  0.00  0.00    -0.333 OA
ATOM      2  C   UNL     1      35.141 -24.481 -12.937  0.00  0.00    +0.187 C 
ATOM      3  C   UNL     1      33.815 -24.049 -13.528  0.00  0.00    +0.171 C 
ATOM      4  C   UNL     1      35.608 -25.524 -13.937  0.00  0.00    +0.231 C 
ATOM      5  C   UNL     1      34.108 -24.079 -15.022  0.00  0.00    +0.176 C 
ENDROOT
BRANCH   4   9
ATOM      6  O   UNL     1      37.346 -23.931 -12.425  0.00  0.00    -0.274 OA
ATOM      7  O   UNL     1      36.877 -27.282 -15.630  0.00  0.00    -0.252 OA
ATOM      8  O   UNL     1      41.100 -25.982 -14.445  0.00  0.00    -0.274 OA
ATOM      9  N   UNL     1      37.038 -25.597 -14.026  0.00  0.00    -0.188 N 
ATOM     10  N   UNL     1      38.965 -26.603 -15.009  0.00  0.00    -0.239 N 
ATOM     11  C   UNL     1      37.820 -24.747 -13.220  0.00  0.00    +0.244 C 
ATOM     12  C   UNL     1      37.579 -26.542 -14.934  0.00  0.00    +0.317 C 
ATOM     13  C   UNL     1      39.312 -24.854 -13.354  0.00  0.00    +0.171 C 
ATOM     14  C   UNL     1      39.884 -25.853 -14.307  0.00  0.00    +0.239 C 
ATOM     15  H   UNL     1      39.335 -27.261 -15.641  0.00  0.00    +0.159 HD
ENDBRANCH   4   9
BRANCH   2  16
ATOM     16  O   UNL     1      35.000 -25.004 -11.631  0.00  0.00    -0.378 OA
ATOM     17  H   UNL     1      35.862 -25.312 -11.312  0.00  0.00    +0.211 HD
ENDBRANCH   2  16
BRANCH   3  18
ATOM     18  O   UNL     1      32.810 -25.025 -13.258  0.00  0.00    -0.379 OA
ATOM     19  H   UNL     1      32.184 -25.057 -13.998  0.00  0.00    +0.211 HD
ENDBRANCH   3  18
BRANCH   5  20
ATOM     20  C   UNL     1      34.707 -22.780 -15.544  0.00  0.00    +0.186 C 
BRANCH  20  21
ATOM     21  O   UNL     1      35.826 -23.090 -16.356  0.00  0.00    -0.271 OA
BRANCH  21  22
ATOM     22  P   UNL     1      37.174 -22.209 -16.184  0.00  0.00    +0.473 P 
ATOM     23  O   UNL     1      37.249 -20.989 -17.054  0.00  0.00    -0.227 OA
BRANCH  22  24
ATOM     24  O   UNL     1      38.363 -23.284 -16.395  0.00  0.00    -0.303 OA
ATOM     25  H   UNL     1      38.560 -23.368 -17.340  0.00  0.00    +0.222 HD
ENDBRANCH  22  24
BRANCH  22  26
ATOM     26  O   UNL     1      37.214 -21.918 -14.594  0.00  0.00    -0.303 OA
ATOM     27  H   UNL     1      36.510 -21.293 -14.361  0.00  0.00    +0.222 HD
ENDBRANCH  22  26
ENDBRANCH  21  22
ENDBRANCH  20  21
ENDBRANCH   5  20
TORSDOF 8
ENDMDL
