MODEL 1
REMARK VINA RESULT:      -9.8      0.000      0.000
REMARK  Name = 6291
REMARK  3 active torsions:
REMARK  status: ('A' for Active; 'I' for Inactive)
REMARK    1  A    between atoms: C_4  and  O_19
REMARK    2  A    between atoms: C_4  and  C_23
REMARK    3  A    between atoms: C_18  and  O_21
REMARK                            x       y       z     vdW  Elec       q    Type
REMARK                         _______ _______ _______ _____ _____    ______ ____
ROOT
ATOM      1  C   UNL     1      34.451 -18.834 -21.665  0.00  0.00    +0.033 C 
ATOM      2  C   UNL     1      35.666 -19.726 -21.321  0.00  0.00    +0.004 C 
ATOM      3  C   UNL     1      35.550 -20.367 -19.935  0.00  0.00    +0.004 C 
ATOM      4  C   UNL     1      34.909 -18.252 -23.036  0.00  0.00    +0.142 C 
ATOM      5  C   UNL     1      34.279 -21.269 -19.900  0.00  0.00    +0.022 C 
ATOM      6  C   UNL     1      33.192 -19.719 -21.662  0.00  0.00    +0.004 C 
ATOM      7  C   UNL     1      36.864 -18.827 -21.616  0.00  0.00    +0.004 C 
ATOM      8  C   UNL     1      33.017 -20.476 -20.331  0.00  0.00    +0.004 C 
ATOM      9  C   UNL     1      36.411 -17.948 -22.800  0.00  0.00    +0.039 C 
ATOM     10  C   UNL     1      36.772 -21.215 -19.579  0.00  0.00    +0.005 C 
ATOM     11  C   UNL     1      34.228 -17.667 -20.657  0.00  0.00    +0.003 C 
ATOM     12  C   UNL     1      34.158 -22.003 -18.567  0.00  0.00    -0.026 C 
ATOM     13  C   UNL     1      36.663 -21.700 -18.136  0.00  0.00    +0.026 C 
ATOM     14  C   UNL     1      35.300 -22.233 -17.769  0.00  0.00    -0.023 C 
ATOM     15  C   UNL     1      32.931 -22.546 -18.144  0.00  0.00    -0.001 C 
ATOM     16  C   UNL     1      35.178 -22.941 -16.559  0.00  0.00    +0.032 C 
ATOM     17  C   UNL     1      32.826 -23.255 -16.946  0.00  0.00    +0.037 C 
ATOM     18  C   UNL     1      33.949 -23.448 -16.151  0.00  0.00    +0.138 C 
ENDROOT
BRANCH   4  19
ATOM     19  O   UNL     1      34.228 -17.050 -23.369  0.00  0.00    -0.375 OA
ATOM     20  H   UNL     1      33.669 -16.778 -22.625  0.00  0.00    +0.211 HD
ENDBRANCH   4  19
BRANCH  18  21
ATOM     21  O   UNL     1      33.847 -24.134 -14.981  0.00  0.00    -0.471 OA
ATOM     22  C   UNL     1      35.060 -24.591 -14.387  0.00  0.00    +0.252 C 
ENDBRANCH  18  21
BRANCH   4  23
ATOM     23  C   UNL     1      34.762 -19.195 -24.163  0.00  0.00    -0.053 C 
ATOM     24  C   UNL     1      34.643 -19.961 -25.079  0.00  0.00    -0.012 C 
ENDBRANCH   4  23
TORSDOF 3
ENDMDL
MODEL 2
REMARK VINA RESULT:      -9.4      2.282      8.458
REMARK  Name = 6291
REMARK  3 active torsions:
REMARK  status: ('A' for Active; 'I' for Inactive)
REMARK    1  A    between atoms: C_4  and  O_19
REMARK    2  A    between atoms: C_4  and  C_23
REMARK    3  A    between atoms: C_18  and  O_21
REMARK                            x       y       z     vdW  Elec       q    Type
REMARK                         _______ _______ _______ _____ _____    ______ ____
ROOT
ATOM      1  C   UNL     1      36.270 -25.217 -14.261  0.00  0.00    +0.033 C 
ATOM      2  C   UNL     1      37.006 -23.894 -14.570  0.00  0.00    +0.004 C 
ATOM      3  C   UNL     1      36.685 -23.356 -15.967  0.00  0.00    +0.004 C 
ATOM      4  C   UNL     1      36.876 -25.558 -12.866  0.00  0.00    +0.142 C 
ATOM      5  C   UNL     1      35.155 -23.075 -16.061  0.00  0.00    +0.022 C 
ATOM      6  C   UNL     1      34.756 -24.948 -14.321  0.00  0.00    +0.004 C 
ATOM      7  C   UNL     1      38.459 -24.204 -14.219  0.00  0.00    +0.004 C 
ATOM      8  C   UNL     1      34.330 -24.329 -15.668  0.00  0.00    +0.004 C 
ATOM      9  C   UNL     1      38.374 -25.198 -13.042  0.00  0.00    +0.039 C 
ATOM     10  C   UNL     1      37.448 -22.069 -16.288  0.00  0.00    +0.005 C 
ATOM     11  C   UNL     1      36.600 -26.365 -15.261  0.00  0.00    +0.003 C 
ATOM     12  C   UNL     1      34.788 -22.455 -17.406  0.00  0.00    -0.026 C 
ATOM     13  C   UNL     1      37.201 -21.669 -17.739  0.00  0.00    +0.026 C 
ATOM     14  C   UNL     1      35.756 -21.761 -18.164  0.00  0.00    -0.023 C 
ATOM     15  C   UNL     1      33.464 -22.480 -17.882  0.00  0.00    -0.001 C 
ATOM     16  C   UNL     1      35.394 -21.165 -19.386  0.00  0.00    +0.032 C 
ATOM     17  C   UNL     1      33.117 -21.876 -19.092  0.00  0.00    +0.037 C 
ATOM     18  C   UNL     1      34.082 -21.223 -19.847  0.00  0.00    +0.138 C 
ENDROOT
BRANCH   4  19
ATOM     19  O   UNL     1      36.754 -26.936 -12.543  0.00  0.00    -0.375 OA
ATOM     20  H   UNL     1      37.474 -27.193 -11.945  0.00  0.00    +0.211 HD
ENDBRANCH   4  19
BRANCH  18  21
ATOM     21  O   UNL     1      33.746 -20.639 -21.028  0.00  0.00    -0.471 OA
ATOM     22  C   UNL     1      34.447 -19.449 -21.388  0.00  0.00    +0.252 C 
ENDBRANCH  18  21
BRANCH   4  23
ATOM     23  C   UNL     1      36.300 -24.770 -11.757  0.00  0.00    -0.053 C 
ATOM     24  C   UNL     1      35.833 -24.130 -10.857  0.00  0.00    -0.012 C 
ENDBRANCH   4  23
TORSDOF 3
ENDMDL
MODEL 3
REMARK VINA RESULT:      -8.3      5.144      8.497
REMARK  Name = 6291
REMARK  3 active torsions:
REMARK  status: ('A' for Active; 'I' for Inactive)
REMARK    1  A    between atoms: C_4  and  O_19
REMARK    2  A    between atoms: C_4  and  C_23
REMARK    3  A    between atoms: C_18  and  O_21
REMARK                            x       y       z     vdW  Elec       q    Type
REMARK                         _______ _______ _______ _____ _____    ______ ____
ROOT
ATOM      1  C   UNL     1      36.380 -25.053 -13.715  0.00  0.00    +0.033 C 
ATOM      2  C   UNL     1      36.378 -23.934 -14.781  0.00  0.00    +0.004 C 
ATOM      3  C   UNL     1      35.046 -23.841 -15.531  0.00  0.00    +0.004 C 
ATOM      4  C   UNL     1      37.858 -24.976 -13.228  0.00  0.00    +0.142 C 
ATOM      5  C   UNL     1      33.913 -23.520 -14.511  0.00  0.00    +0.022 C 
ATOM      6  C   UNL     1      35.284 -24.733 -12.683  0.00  0.00    +0.004 C 
ATOM      7  C   UNL     1      37.652 -24.199 -15.579  0.00  0.00    +0.004 C 
ATOM      8  C   UNL     1      33.904 -24.541 -13.343  0.00  0.00    +0.004 C 
ATOM      9  C   UNL     1      38.647 -24.771 -14.548  0.00  0.00    +0.039 C 
ATOM     10  C   UNL     1      35.060 -22.762 -16.615  0.00  0.00    +0.005 C 
ATOM     11  C   UNL     1      36.101 -26.471 -14.296  0.00  0.00    +0.003 C 
ATOM     12  C   UNL     1      32.572 -23.329 -15.215  0.00  0.00    -0.026 C 
ATOM     13  C   UNL     1      33.766 -22.820 -17.421  0.00  0.00    +0.026 C 
ATOM     14  C   UNL     1      32.522 -22.960 -16.576  0.00  0.00    -0.023 C 
ATOM     15  C   UNL     1      31.359 -23.428 -14.508  0.00  0.00    -0.001 C 
ATOM     16  C   UNL     1      31.280 -22.755 -17.202  0.00  0.00    +0.032 C 
ATOM     17  C   UNL     1      30.132 -23.212 -15.140  0.00  0.00    +0.037 C 
ATOM     18  C   UNL     1      30.092 -22.881 -16.488  0.00  0.00    +0.138 C 
ENDROOT
BRANCH   4  19
ATOM     19  O   UNL     1      38.287 -26.177 -12.601  0.00  0.00    -0.375 OA
ATOM     20  H   UNL     1      38.034 -26.936 -13.150  0.00  0.00    +0.211 HD
ENDBRANCH   4  19
BRANCH  18  21
ATOM     21  O   UNL     1      28.898 -22.676 -17.105  0.00  0.00    -0.471 OA
ATOM     22  C   UNL     1      27.769 -22.424 -16.271  0.00  0.00    +0.252 C 
ENDBRANCH  18  21
BRANCH   4  23
ATOM     23  C   UNL     1      38.125 -23.852 -12.308  0.00  0.00    -0.053 C 
ATOM     24  C   UNL     1      38.342 -22.939 -11.560  0.00  0.00    -0.012 C 
ENDBRANCH   4  23
TORSDOF 3
ENDMDL
MODEL 4
REMARK VINA RESULT:      -7.1      5.654      7.701
REMARK  Name = 6291
REMARK  3 active torsions:
REMARK  status: ('A' for Active; 'I' for Inactive)
REMARK    1  A    between atoms: C_4  and  O_19
REMARK    2  A    between atoms: C_4  and  C_23
REMARK    3  A    between atoms: C_18  and  O_21
REMARK                            x       y       z     vdW  Elec       q    Type
REMARK                         _______ _______ _______ _____ _____    ______ ____
ROOT
ATOM      1  C   UNL     1      31.333 -23.456 -14.705  0.00  0.00    +0.033 C 
ATOM      2  C   UNL     1      32.244 -23.501 -15.952  0.00  0.00    +0.004 C 
ATOM      3  C   UNL     1      33.729 -23.376 -15.600  0.00  0.00    +0.004 C 
ATOM      4  C   UNL     1      29.929 -23.483 -15.380  0.00  0.00    +0.142 C 
ATOM      5  C   UNL     1      34.131 -24.569 -14.681  0.00  0.00    +0.022 C 
ATOM      6  C   UNL     1      31.701 -24.647 -13.801  0.00  0.00    +0.004 C 
ATOM      7  C   UNL     1      31.622 -22.465 -16.885  0.00  0.00    +0.004 C 
ATOM      8  C   UNL     1      33.200 -24.663 -13.444  0.00  0.00    +0.004 C 
ATOM      9  C   UNL     1      30.109 -22.532 -16.592  0.00  0.00    +0.039 C 
ATOM     10  C   UNL     1      34.627 -23.377 -16.839  0.00  0.00    +0.005 C 
ATOM     11  C   UNL     1      31.480 -22.149 -13.870  0.00  0.00    +0.003 C 
ATOM     12  C   UNL     1      35.625 -24.546 -14.366  0.00  0.00    -0.026 C 
ATOM     13  C   UNL     1      36.071 -23.101 -16.432  0.00  0.00    +0.026 C 
ATOM     14  C   UNL     1      36.529 -23.883 -15.225  0.00  0.00    -0.023 C 
ATOM     15  C   UNL     1      36.148 -25.254 -13.269  0.00  0.00    -0.001 C 
ATOM     16  C   UNL     1      37.906 -23.899 -14.940  0.00  0.00    +0.032 C 
ATOM     17  C   UNL     1      37.519 -25.269 -13.003  0.00  0.00    +0.037 C 
ATOM     18  C   UNL     1      38.398 -24.587 -13.835  0.00  0.00    +0.138 C 
ENDROOT
BRANCH   4  19
ATOM     19  O   UNL     1      28.908 -22.979 -14.530  0.00  0.00    -0.375 OA
ATOM     20  H   UNL     1      28.982 -22.013 -14.473  0.00  0.00    +0.211 HD
ENDBRANCH   4  19
BRANCH  18  21
ATOM     21  O   UNL     1      39.733 -24.597 -13.574  0.00  0.00    -0.471 OA
ATOM     22  C   UNL     1      40.513 -25.606 -14.213  0.00  0.00    +0.252 C 
ENDBRANCH  18  21
BRANCH   4  23
ATOM     23  C   UNL     1      29.520 -24.821 -15.852  0.00  0.00    -0.053 C 
ATOM     24  C   UNL     1      29.188 -25.909 -16.235  0.00  0.00    -0.012 C 
ENDBRANCH   4  23
TORSDOF 3
ENDMDL
MODEL 5
REMARK VINA RESULT:      -6.9      8.409     11.255
REMARK  Name = 6291
REMARK  3 active torsions:
REMARK  status: ('A' for Active; 'I' for Inactive)
REMARK    1  A    between atoms: C_4  and  O_19
REMARK    2  A    between atoms: C_4  and  C_23
REMARK    3  A    between atoms: C_18  and  O_21
REMARK                            x       y       z     vdW  Elec       q    Type
REMARK                         _______ _______ _______ _____ _____    ______ ____
ROOT
ATOM      1  C   UNL     1      32.789  -7.906 -22.704  0.00  0.00    +0.033 C 
ATOM      2  C   UNL     1      33.137  -8.761 -23.944  0.00  0.00    +0.004 C 
ATOM      3  C   UNL     1      33.549 -10.189 -23.576  0.00  0.00    +0.004 C 
ATOM      4  C   UNL     1      32.536  -6.524 -23.377  0.00  0.00    +0.142 C 
ATOM      5  C   UNL     1      32.362 -10.884 -22.844  0.00  0.00    +0.022 C 
ATOM      6  C   UNL     1      31.598  -8.567 -21.987  0.00  0.00    +0.004 C 
ATOM      7  C   UNL     1      34.124  -7.887 -24.714  0.00  0.00    +0.004 C 
ATOM      8  C   UNL     1      31.878 -10.041 -21.635  0.00  0.00    +0.004 C 
ATOM      9  C   UNL     1      33.667  -6.441 -24.435  0.00  0.00    +0.039 C 
ATOM     10  C   UNL     1      33.934 -11.021 -24.801  0.00  0.00    +0.005 C 
ATOM     11  C   UNL     1      33.960  -7.778 -21.685  0.00  0.00    +0.003 C 
ATOM     12  C   UNL     1      32.685 -12.343 -22.528  0.00  0.00    -0.026 C 
ATOM     13  C   UNL     1      34.475 -12.376 -24.356  0.00  0.00    +0.026 C 
ATOM     14  C   UNL     1      33.655 -13.042 -23.278  0.00  0.00    -0.023 C 
ATOM     15  C   UNL     1      31.966 -13.050 -21.547  0.00  0.00    -0.001 C 
ATOM     16  C   UNL     1      33.917 -14.394 -22.997  0.00  0.00    +0.032 C 
ATOM     17  C   UNL     1      32.230 -14.397 -21.285  0.00  0.00    +0.037 C 
ATOM     18  C   UNL     1      33.209 -15.068 -22.006  0.00  0.00    +0.138 C 
ENDROOT
BRANCH   4  19
ATOM     19  O   UNL     1      32.662  -5.444 -22.462  0.00  0.00    -0.375 OA
ATOM     20  H   UNL     1      32.439  -5.749 -21.569  0.00  0.00    +0.211 HD
ENDBRANCH   4  19
BRANCH  18  21
ATOM     21  O   UNL     1      33.471 -16.377 -21.749  0.00  0.00    -0.471 OA
ATOM     22  C   UNL     1      34.764 -16.694 -21.236  0.00  0.00    +0.252 C 
ENDBRANCH  18  21
BRANCH   4  23
ATOM     23  C   UNL     1      31.222  -6.416 -24.042  0.00  0.00    -0.053 C 
ATOM     24  C   UNL     1      30.154  -6.328 -24.584  0.00  0.00    -0.012 C 
ENDBRANCH   4  23
TORSDOF 3
ENDMDL
