MODEL 1
REMARK VINA RESULT:      -8.0      0.000      0.000
REMARK  Name = 1609
REMARK  0 active torsions:
REMARK  status: ('A' for Active; 'I' for Inactive)
REMARK                            x       y       z     vdW  Elec       q    Type
REMARK                         _______ _______ _______ _____ _____    ______ ____
ROOT
ATOM      1 CL   UNL     1      35.212 -19.413 -21.979  0.00  0.00    -0.078 Cl
ATOM      2 CL   UNL     1      34.925 -20.287 -25.039  0.00  0.00    -0.042 Cl
ATOM      3  O   UNL     1      34.373 -17.729 -25.536  0.00  0.00    -0.409 OA
ATOM      4  O   UNL     1      33.884 -15.625 -26.206  0.00  0.00    -0.244 OA
ATOM      5  C   UNL     1      34.604 -16.865 -22.878  0.00  0.00    +0.021 A 
ATOM      6  C   UNL     1      34.285 -15.956 -23.897  0.00  0.00    +0.077 A 
ATOM      7  C   UNL     1      34.704 -16.372 -21.566  0.00  0.00    +0.001 C 
ATOM      8  C   UNL     1      34.816 -18.279 -23.227  0.00  0.00    +0.104 A 
ATOM      9  C   UNL     1      34.074 -14.598 -23.613  0.00  0.00    +0.006 C 
ATOM     10  C   UNL     1      34.161 -16.403 -25.303  0.00  0.00    +0.347 A 
ATOM     11  C   UNL     1      34.494 -15.019 -21.283  0.00  0.00    +0.000 C 
ATOM     12  C   UNL     1      34.180 -14.133 -22.306  0.00  0.00    +0.000 C 
ATOM     13  C   UNL     1      34.696 -18.647 -24.512  0.00  0.00    +0.217 A 
ENDROOT
TORSDOF 0
ENDMDL
MODEL 2
REMARK VINA RESULT:      -8.0      2.988      3.760
REMARK  Name = 1609
REMARK  0 active torsions:
REMARK  status: ('A' for Active; 'I' for Inactive)
REMARK                            x       y       z     vdW  Elec       q    Type
REMARK                         _______ _______ _______ _____ _____    ______ ____
ROOT
ATOM      1 CL   UNL     1      33.237 -12.540 -23.867  0.00  0.00    -0.078 Cl
ATOM      2 CL   UNL     1      33.009 -13.487 -26.910  0.00  0.00    -0.042 Cl
ATOM      3  O   UNL     1      33.879 -15.856 -26.055  0.00  0.00    -0.409 OA
ATOM      4  O   UNL     1      34.598 -17.945 -25.574  0.00  0.00    -0.244 OA
ATOM      5  C   UNL     1      34.111 -15.118 -23.359  0.00  0.00    +0.021 A 
ATOM      6  C   UNL     1      34.438 -16.418 -23.773  0.00  0.00    +0.077 A 
ATOM      7  C   UNL     1      34.250 -14.809 -21.995  0.00  0.00    +0.001 C 
ATOM      8  C   UNL     1      33.645 -14.148 -24.363  0.00  0.00    +0.104 A 
ATOM      9  C   UNL     1      34.886 -17.377 -22.852  0.00  0.00    +0.006 C 
ATOM     10  C   UNL     1      34.318 -16.816 -25.194  0.00  0.00    +0.347 A 
ATOM     11  C   UNL     1      34.696 -15.765 -21.078  0.00  0.00    +0.000 C 
ATOM     12  C   UNL     1      35.014 -17.048 -21.506  0.00  0.00    +0.000 C 
ATOM     13  C   UNL     1      33.549 -14.546 -25.641  0.00  0.00    +0.217 A 
ENDROOT
TORSDOF 0
ENDMDL
MODEL 3
REMARK VINA RESULT:      -7.9      2.342      3.324
REMARK  Name = 1609
REMARK  0 active torsions:
REMARK  status: ('A' for Active; 'I' for Inactive)
REMARK                            x       y       z     vdW  Elec       q    Type
REMARK                         _______ _______ _______ _____ _____    ______ ____
ROOT
ATOM      1 CL   UNL     1      34.947 -19.498 -24.013  0.00  0.00    -0.078 Cl
ATOM      2 CL   UNL     1      35.722 -19.888 -20.938  0.00  0.00    -0.042 Cl
ATOM      3  O   UNL     1      35.207 -17.289 -20.660  0.00  0.00    -0.409 OA
ATOM      4  O   UNL     1      34.829 -15.113 -20.176  0.00  0.00    -0.244 OA
ATOM      5  C   UNL     1      34.508 -16.849 -23.341  0.00  0.00    +0.021 A 
ATOM      6  C   UNL     1      34.480 -15.795 -22.415  0.00  0.00    +0.077 A 
ATOM      7  C   UNL     1      34.149 -16.564 -24.669  0.00  0.00    +0.001 C 
ATOM      8  C   UNL     1      34.909 -18.188 -22.882  0.00  0.00    +0.104 A 
ATOM      9  C   UNL     1      34.103 -14.501 -22.805  0.00  0.00    +0.006 C 
ATOM     10  C   UNL     1      34.847 -16.019 -20.998  0.00  0.00    +0.347 A 
ATOM     11  C   UNL     1      33.773 -15.275 -25.058  0.00  0.00    +0.000 C 
ATOM     12  C   UNL     1      33.751 -14.245 -24.126  0.00  0.00    +0.000 C 
ATOM     13  C   UNL     1      35.235 -18.352 -21.590  0.00  0.00    +0.217 A 
ENDROOT
TORSDOF 0
ENDMDL
MODEL 4
REMARK VINA RESULT:      -7.9      3.244      4.721
REMARK  Name = 1609
REMARK  0 active torsions:
REMARK  status: ('A' for Active; 'I' for Inactive)
REMARK                            x       y       z     vdW  Elec       q    Type
REMARK                         _______ _______ _______ _____ _____    ______ ____
ROOT
ATOM      1 CL   UNL     1      33.360 -14.841 -26.174  0.00  0.00    -0.078 Cl
ATOM      2 CL   UNL     1      33.475 -12.559 -23.940  0.00  0.00    -0.042 Cl
ATOM      3  O   UNL     1      34.306 -14.471 -22.281  0.00  0.00    -0.409 OA
ATOM      4  O   UNL     1      35.025 -15.910 -20.691  0.00  0.00    -0.244 OA
ATOM      5  C   UNL     1      34.239 -16.540 -24.172  0.00  0.00    +0.021 A 
ATOM      6  C   UNL     1      34.639 -16.794 -22.852  0.00  0.00    +0.077 A 
ATOM      7  C   UNL     1      34.224 -17.619 -25.073  0.00  0.00    +0.001 C 
ATOM      8  C   UNL     1      33.855 -15.170 -24.548  0.00  0.00    +0.104 A 
ATOM      9  C   UNL     1      35.015 -18.084 -22.447  0.00  0.00    +0.006 C 
ATOM     10  C   UNL     1      34.678 -15.708 -21.848  0.00  0.00    +0.347 A 
ATOM     11  C   UNL     1      34.598 -18.904 -24.669  0.00  0.00    +0.000 C 
ATOM     12  C   UNL     1      34.993 -19.136 -23.358  0.00  0.00    +0.000 C 
ATOM     13  C   UNL     1      33.904 -14.212 -23.609  0.00  0.00    +0.217 A 
ENDROOT
TORSDOF 0
ENDMDL
MODEL 5
REMARK VINA RESULT:      -7.9      2.603      3.816
REMARK  Name = 1609
REMARK  0 active torsions:
REMARK  status: ('A' for Active; 'I' for Inactive)
REMARK                            x       y       z     vdW  Elec       q    Type
REMARK                         _______ _______ _______ _____ _____    ______ ____
ROOT
ATOM      1 CL   UNL     1      34.126 -14.582 -20.715  0.00  0.00    -0.078 Cl
ATOM      2 CL   UNL     1      33.814 -12.989 -23.467  0.00  0.00    -0.042 Cl
ATOM      3  O   UNL     1      34.289 -15.319 -24.668  0.00  0.00    -0.409 OA
ATOM      4  O   UNL     1      34.664 -17.171 -25.910  0.00  0.00    -0.244 OA
ATOM      5  C   UNL     1      34.579 -16.803 -22.305  0.00  0.00    +0.021 A 
ATOM      6  C   UNL     1      34.708 -17.423 -23.557  0.00  0.00    +0.077 A 
ATOM      7  C   UNL     1      34.737 -17.600 -21.159  0.00  0.00    +0.001 C 
ATOM      8  C   UNL     1      34.289 -15.361 -22.253  0.00  0.00    +0.104 A 
ATOM      9  C   UNL     1      34.983 -18.795 -23.658  0.00  0.00    +0.006 C 
ATOM     10  C   UNL     1      34.555 -16.648 -24.809  0.00  0.00    +0.347 A 
ATOM     11  C   UNL     1      35.011 -18.967 -21.259  0.00  0.00    +0.000 C 
ATOM     12  C   UNL     1      35.134 -19.564 -22.508  0.00  0.00    +0.000 C 
ATOM     13  C   UNL     1      34.157 -14.692 -23.409  0.00  0.00    +0.217 A 
ENDROOT
TORSDOF 0
ENDMDL
MODEL 6
REMARK VINA RESULT:      -7.9      2.611      3.936
REMARK  Name = 1609
REMARK  0 active torsions:
REMARK  status: ('A' for Active; 'I' for Inactive)
REMARK                            x       y       z     vdW  Elec       q    Type
REMARK                         _______ _______ _______ _____ _____    ______ ____
ROOT
ATOM      1 CL   UNL     1      34.477 -14.559 -21.014  0.00  0.00    -0.078 Cl
ATOM      2 CL   UNL     1      33.218 -12.427 -23.034  0.00  0.00    -0.042 Cl
ATOM      3  O   UNL     1      33.372 -14.345 -24.878  0.00  0.00    -0.409 OA
ATOM      4  O   UNL     1      33.399 -15.803 -26.606  0.00  0.00    -0.244 OA
ATOM      5  C   UNL     1      34.479 -16.284 -23.180  0.00  0.00    +0.021 A 
ATOM      6  C   UNL     1      34.218 -16.580 -24.526  0.00  0.00    +0.077 A 
ATOM      7  C   UNL     1      35.036 -17.297 -22.381  0.00  0.00    +0.001 C 
ATOM      8  C   UNL     1      34.162 -14.939 -22.674  0.00  0.00    +0.104 A 
ATOM      9  C   UNL     1      34.503 -17.849 -25.054  0.00  0.00    +0.006 C 
ATOM     10  C   UNL     1      33.634 -15.563 -25.429  0.00  0.00    +0.347 A 
ATOM     11  C   UNL     1      35.319 -18.561 -22.907  0.00  0.00    +0.000 C 
ATOM     12  C   UNL     1      35.053 -18.836 -24.242  0.00  0.00    +0.000 C 
ATOM     13  C   UNL     1      33.633 -14.044 -23.523  0.00  0.00    +0.217 A 
ENDROOT
TORSDOF 0
ENDMDL
MODEL 7
REMARK VINA RESULT:      -7.7      1.748      2.853
REMARK  Name = 1609
REMARK  0 active torsions:
REMARK  status: ('A' for Active; 'I' for Inactive)
REMARK                            x       y       z     vdW  Elec       q    Type
REMARK                         _______ _______ _______ _____ _____    ______ ____
ROOT
ATOM      1 CL   UNL     1      34.741 -15.372 -20.552  0.00  0.00    -0.078 Cl
ATOM      2 CL   UNL     1      35.885 -18.315 -21.042  0.00  0.00    -0.042 Cl
ATOM      3  O   UNL     1      35.142 -17.992 -23.580  0.00  0.00    -0.409 OA
ATOM      4  O   UNL     1      34.606 -17.954 -25.776  0.00  0.00    -0.244 OA
ATOM      5  C   UNL     1      34.113 -15.404 -23.248  0.00  0.00    +0.021 A 
ATOM      6  C   UNL     1      34.082 -16.028 -24.505  0.00  0.00    +0.077 A 
ATOM      7  C   UNL     1      33.581 -14.107 -23.146  0.00  0.00    +0.001 C 
ATOM      8  C   UNL     1      34.695 -16.130 -22.108  0.00  0.00    +0.104 A 
ATOM      9  C   UNL     1      33.539 -15.375 -25.621  0.00  0.00    +0.006 C 
ATOM     10  C   UNL     1      34.624 -17.393 -24.688  0.00  0.00    +0.347 A 
ATOM     11  C   UNL     1      33.040 -13.457 -24.259  0.00  0.00    +0.000 C 
ATOM     12  C   UNL     1      33.019 -14.090 -25.495  0.00  0.00    +0.000 C 
ATOM     13  C   UNL     1      35.175 -17.366 -22.314  0.00  0.00    +0.217 A 
ENDROOT
TORSDOF 0
ENDMDL
MODEL 8
REMARK VINA RESULT:      -7.6      4.677      5.909
REMARK  Name = 1609
REMARK  0 active torsions:
REMARK  status: ('A' for Active; 'I' for Inactive)
REMARK                            x       y       z     vdW  Elec       q    Type
REMARK                         _______ _______ _______ _____ _____    ______ ____
ROOT
ATOM      1 CL   UNL     1      36.795 -22.076 -18.021  0.00  0.00    -0.078 Cl
ATOM      2 CL   UNL     1      33.860 -23.217 -17.478  0.00  0.00    -0.042 Cl
ATOM      3  O   UNL     1      33.056 -21.585 -19.424  0.00  0.00    -0.409 OA
ATOM      4  O   UNL     1      32.137 -20.292 -21.036  0.00  0.00    -0.244 OA
ATOM      5  C   UNL     1      35.594 -20.525 -19.974  0.00  0.00    +0.021 A 
ATOM      6  C   UNL     1      34.471 -20.097 -20.698  0.00  0.00    +0.077 A 
ATOM      7  C   UNL     1      36.838 -19.955 -20.295  0.00  0.00    +0.001 C 
ATOM      8  C   UNL     1      35.418 -21.538 -18.922  0.00  0.00    +0.104 A 
ATOM      9  C   UNL     1      34.590 -19.134 -21.711  0.00  0.00    +0.006 C 
ATOM     10  C   UNL     1      33.128 -20.652 -20.415  0.00  0.00    +0.347 A 
ATOM     11  C   UNL     1      36.956 -18.995 -21.305  0.00  0.00    +0.000 C 
ATOM     12  C   UNL     1      35.832 -18.585 -22.012  0.00  0.00    +0.000 C 
ATOM     13  C   UNL     1      34.185 -22.018 -18.694  0.00  0.00    +0.217 A 
ENDROOT
TORSDOF 0
ENDMDL
MODEL 9
REMARK VINA RESULT:      -7.4      2.750      3.645
REMARK  Name = 1609
REMARK  0 active torsions:
REMARK  status: ('A' for Active; 'I' for Inactive)
REMARK                            x       y       z     vdW  Elec       q    Type
REMARK                         _______ _______ _______ _____ _____    ______ ____
ROOT
ATOM      1 CL   UNL     1      34.728 -16.897 -25.410  0.00  0.00    -0.078 Cl
ATOM      2 CL   UNL     1      33.003 -14.590 -26.793  0.00  0.00    -0.042 Cl
ATOM      3  O   UNL     1      32.596 -13.660 -24.330  0.00  0.00    -0.409 OA
ATOM      4  O   UNL     1      32.114 -12.682 -22.348  0.00  0.00    -0.244 OA
ATOM      5  C   UNL     1      34.091 -15.643 -23.025  0.00  0.00    +0.021 A 
ATOM      6  C   UNL     1      33.461 -14.627 -22.291  0.00  0.00    +0.077 A 
ATOM      7  C   UNL     1      34.824 -16.608 -22.315  0.00  0.00    +0.001 C 
ATOM      8  C   UNL     1      33.955 -15.650 -24.491  0.00  0.00    +0.104 A 
ATOM      9  C   UNL     1      33.563 -14.578 -20.893  0.00  0.00    +0.006 C 
ATOM     10  C   UNL     1      32.671 -13.576 -22.972  0.00  0.00    +0.347 A 
ATOM     11  C   UNL     1      34.926 -16.559 -20.921  0.00  0.00    +0.000 C 
ATOM     12  C   UNL     1      34.296 -15.545 -20.211  0.00  0.00    +0.000 C 
ATOM     13  C   UNL     1      33.230 -14.681 -25.071  0.00  0.00    +0.217 A 
ENDROOT
TORSDOF 0
ENDMDL
