MODEL 1
REMARK VINA RESULT:      -9.1      0.000      0.000
REMARK  Name = 192785
REMARK  8 active torsions:
REMARK  status: ('A' for Active; 'I' for Inactive)
REMARK    1  A    between atoms: C_2  and  O_17
REMARK    2  A    between atoms: C_3  and  O_19
REMARK    3  A    between atoms: C_4  and  C_21
REMARK    4  A    between atoms: C_5  and  N_7
REMARK    5  A    between atoms: C_21  and  O_22
REMARK    6  A    between atoms: O_22  and  P_23
REMARK    7  A    between atoms: P_23  and  O_25
REMARK    8  A    between atoms: P_23  and  O_27
REMARK                            x       y       z     vdW  Elec       q    Type
REMARK                         _______ _______ _______ _____ _____    ______ ____
ROOT
ATOM      1  O   UNL     1      35.897 -24.962 -15.793  0.00  0.00    -0.332 OA
ATOM      2  C   UNL     1      37.517 -23.542 -14.808  0.00  0.00    +0.171 C 
ATOM      3  C   UNL     1      36.375 -22.689 -15.324  0.00  0.00    +0.188 C 
ATOM      4  C   UNL     1      36.875 -24.920 -14.732  0.00  0.00    +0.176 C 
ATOM      5  C   UNL     1      35.694 -23.633 -16.300  0.00  0.00    +0.236 C 
ENDROOT
BRANCH   5   7
ATOM      6  O   UNL     1      34.322 -23.063 -18.692  0.00  0.00    -0.193 OA
ATOM      7  N   UNL     1      34.285 -23.385 -16.408  0.00  0.00    -0.178 N 
ATOM      8  N   UNL     1      32.302 -22.877 -17.677  0.00  0.00    -0.306 NA
ATOM      9  N   UNL     1      30.227 -22.679 -16.681  0.00  0.00    -0.332 N 
ATOM     10  C   UNL     1      33.513 -23.422 -15.257  0.00  0.00    +0.079 C 
ATOM     11  C   UNL     1      33.666 -23.105 -17.650  0.00  0.00    +0.275 C 
ATOM     12  C   UNL     1      32.194 -23.206 -15.249  0.00  0.00    +0.038 C 
ATOM     13  C   UNL     1      31.581 -22.915 -16.585  0.00  0.00    +0.189 C 
ATOM     14  C   UNL     1      31.352 -23.243 -14.018  0.00  0.00    +0.037 C 
ATOM     15  H   UNL     1      29.822 -22.487 -17.557  0.00  0.00    +0.145 HD
ATOM     16  H   UNL     1      29.665 -22.703 -15.873  0.00  0.00    +0.145 HD
ENDBRANCH   5   7
BRANCH   2  17
ATOM     17  O   UNL     1      38.567 -23.598 -15.772  0.00  0.00    -0.379 OA
ATOM     18  H   UNL     1      39.369 -23.197 -15.402  0.00  0.00    +0.211 HD
ENDBRANCH   2  17
BRANCH   3  19
ATOM     19  O   UNL     1      36.830 -21.503 -15.942  0.00  0.00    -0.378 OA
ATOM     20  H   UNL     1      37.471 -21.062 -15.363  0.00  0.00    +0.211 HD
ENDBRANCH   3  19
BRANCH   4  21
ATOM     21  C   UNL     1      36.155 -25.177 -13.413  0.00  0.00    +0.186 C 
BRANCH  21  22
ATOM     22  O   UNL     1      36.958 -24.683 -12.355  0.00  0.00    -0.271 OA
BRANCH  22  23
ATOM     23  P   UNL     1      36.279 -23.695 -11.267  0.00  0.00    +0.473 P 
ATOM     24  O   UNL     1      36.202 -24.245  -9.873  0.00  0.00    -0.227 OA
BRANCH  23  25
ATOM     25  O   UNL     1      34.860 -23.303 -11.936  0.00  0.00    -0.303 OA
ATOM     26  H   UNL     1      34.728 -23.824 -12.743  0.00  0.00    +0.222 HD
ENDBRANCH  23  25
BRANCH  23  27
ATOM     27  O   UNL     1      37.148 -22.339 -11.419  0.00  0.00    -0.303 OA
ATOM     28  H   UNL     1      36.636 -21.680 -11.914  0.00  0.00    +0.222 HD
ENDBRANCH  23  27
ENDBRANCH  22  23
ENDBRANCH  21  22
ENDBRANCH   4  21
TORSDOF 8
ENDMDL
MODEL 2
REMARK VINA RESULT:      -8.8      2.417      4.102
REMARK  Name = 192785
REMARK  8 active torsions:
REMARK  status: ('A' for Active; 'I' for Inactive)
REMARK    1  A    between atoms: C_2  and  O_17
REMARK    2  A    between atoms: C_3  and  O_19
REMARK    3  A    between atoms: C_4  and  C_21
REMARK    4  A    between atoms: C_5  and  N_7
REMARK    5  A    between atoms: C_21  and  O_22
REMARK    6  A    between atoms: O_22  and  P_23
REMARK    7  A    between atoms: P_23  and  O_25
REMARK    8  A    between atoms: P_23  and  O_27
REMARK                            x       y       z     vdW  Elec       q    Type
REMARK                         _______ _______ _______ _____ _____    ______ ____
ROOT
ATOM      1  O   UNL     1      36.042 -22.699 -14.602  0.00  0.00    -0.332 OA
ATOM      2  C   UNL     1      35.959 -24.817 -13.546  0.00  0.00    +0.171 C 
ATOM      3  C   UNL     1      34.859 -24.752 -14.585  0.00  0.00    +0.188 C 
ATOM      4  C   UNL     1      36.889 -23.698 -13.997  0.00  0.00    +0.176 C 
ATOM      5  C   UNL     1      34.735 -23.256 -14.819  0.00  0.00    +0.236 C 
ENDROOT
BRANCH   5   7
ATOM      6  O   UNL     1      32.102 -23.504 -15.785  0.00  0.00    -0.193 OA
ATOM      7  N   UNL     1      34.309 -22.943 -16.153  0.00  0.00    -0.178 N 
ATOM      8  N   UNL     1      32.626 -22.771 -17.866  0.00  0.00    -0.306 NA
ATOM      9  N   UNL     1      33.120 -22.031 -19.998  0.00  0.00    -0.332 N 
ATOM     10  C   UNL     1      35.249 -22.480 -17.060  0.00  0.00    +0.079 C 
ATOM     11  C   UNL     1      32.963 -23.093 -16.565  0.00  0.00    +0.275 C 
ATOM     12  C   UNL     1      34.957 -22.160 -18.324  0.00  0.00    +0.038 C 
ATOM     13  C   UNL     1      33.521 -22.334 -18.716  0.00  0.00    +0.189 C 
ATOM     14  C   UNL     1      35.960 -21.661 -19.310  0.00  0.00    +0.037 C 
ATOM     15  H   UNL     1      32.178 -22.144 -20.259  0.00  0.00    +0.145 HD
ATOM     16  H   UNL     1      33.775 -21.700 -20.654  0.00  0.00    +0.145 HD
ENDBRANCH   5   7
BRANCH   2  17
ATOM     17  O   UNL     1      35.447 -24.473 -12.260  0.00  0.00    -0.379 OA
ATOM     18  H   UNL     1      35.804 -25.081 -11.595  0.00  0.00    +0.211 HD
ENDBRANCH   2  17
BRANCH   3  19
ATOM     19  O   UNL     1      33.654 -25.332 -14.127  0.00  0.00    -0.378 OA
ATOM     20  H   UNL     1      33.830 -25.851 -13.327  0.00  0.00    +0.211 HD
ENDBRANCH   3  19
BRANCH   4  21
ATOM     21  C   UNL     1      37.911 -24.146 -15.034  0.00  0.00    +0.186 C 
BRANCH  21  22
ATOM     22  O   UNL     1      39.122 -24.463 -14.370  0.00  0.00    -0.271 OA
BRANCH  22  23
ATOM     23  P   UNL     1      39.827 -25.886 -14.685  0.00  0.00    +0.473 P 
ATOM     24  O   UNL     1      40.921 -26.275 -13.734  0.00  0.00    -0.227 OA
BRANCH  23  25
ATOM     25  O   UNL     1      40.268 -25.761 -16.236  0.00  0.00    -0.303 OA
ATOM     26  H   UNL     1      40.288 -26.642 -16.638  0.00  0.00    +0.222 HD
ENDBRANCH  23  25
BRANCH  23  27
ATOM     27  O   UNL     1      38.573 -26.906 -14.737  0.00  0.00    -0.303 OA
ATOM     28  H   UNL     1      37.984 -26.658 -15.468  0.00  0.00    +0.222 HD
ENDBRANCH  23  27
ENDBRANCH  22  23
ENDBRANCH  21  22
ENDBRANCH   4  21
TORSDOF 8
ENDMDL
MODEL 3
REMARK VINA RESULT:      -8.8      4.156      6.686
REMARK  Name = 192785
REMARK  8 active torsions:
REMARK  status: ('A' for Active; 'I' for Inactive)
REMARK    1  A    between atoms: C_2  and  O_17
REMARK    2  A    between atoms: C_3  and  O_19
REMARK    3  A    between atoms: C_4  and  C_21
REMARK    4  A    between atoms: C_5  and  N_7
REMARK    5  A    between atoms: C_21  and  O_22
REMARK    6  A    between atoms: O_22  and  P_23
REMARK    7  A    between atoms: P_23  and  O_25
REMARK    8  A    between atoms: P_23  and  O_27
REMARK                            x       y       z     vdW  Elec       q    Type
REMARK                         _______ _______ _______ _____ _____    ______ ____
ROOT
ATOM      1  O   UNL     1      31.189 -24.131 -15.910  0.00  0.00    -0.332 OA
ATOM      2  C   UNL     1      30.844 -23.567 -13.636  0.00  0.00    +0.171 C 
ATOM      3  C   UNL     1      32.281 -23.254 -13.999  0.00  0.00    +0.188 C 
ATOM      4  C   UNL     1      30.179 -23.640 -15.004  0.00  0.00    +0.176 C 
ATOM      5  C   UNL     1      32.471 -24.073 -15.265  0.00  0.00    +0.236 C 
ENDROOT
BRANCH   5   7
ATOM      6  O   UNL     1      35.250 -23.932 -14.834  0.00  0.00    -0.193 OA
ATOM      7  N   UNL     1      33.420 -23.480 -16.163  0.00  0.00    -0.178 N 
ATOM      8  N   UNL     1      35.661 -22.860 -16.790  0.00  0.00    -0.306 NA
ATOM      9  N   UNL     1      36.120 -21.767 -18.773  0.00  0.00    -0.332 N 
ATOM     10  C   UNL     1      32.958 -22.923 -17.346  0.00  0.00    +0.079 C 
ATOM     11  C   UNL     1      34.806 -23.447 -15.877  0.00  0.00    +0.275 C 
ATOM     12  C   UNL     1      33.757 -22.347 -18.249  0.00  0.00    +0.038 C 
ATOM     13  C   UNL     1      35.215 -22.337 -17.905  0.00  0.00    +0.189 C 
ATOM     14  C   UNL     1      33.272 -21.745 -19.526  0.00  0.00    +0.037 C 
ATOM     15  H   UNL     1      37.078 -21.758 -18.549  0.00  0.00    +0.145 HD
ATOM     16  H   UNL     1      35.808 -21.368 -19.617  0.00  0.00    +0.145 HD
ENDBRANCH   5   7
BRANCH   2  17
ATOM     17  O   UNL     1      30.756 -24.858 -13.034  0.00  0.00    -0.379 OA
ATOM     18  H   UNL     1      29.986 -25.329 -13.389  0.00  0.00    +0.211 HD
ENDBRANCH   2  17
BRANCH   3  19
ATOM     19  O   UNL     1      33.184 -23.619 -12.975  0.00  0.00    -0.378 OA
ATOM     20  H   UNL     1      32.762 -24.266 -12.389  0.00  0.00    +0.211 HD
ENDBRANCH   3  19
BRANCH   4  21
ATOM     21  C   UNL     1      29.702 -22.286 -15.514  0.00  0.00    +0.186 C 
BRANCH  21  22
ATOM     22  O   UNL     1      29.259 -22.436 -16.852  0.00  0.00    -0.271 OA
BRANCH  22  23
ATOM     23  P   UNL     1      27.774 -23.024 -17.113  0.00  0.00    +0.473 P 
ATOM     24  O   UNL     1      27.723 -24.476 -17.489  0.00  0.00    -0.227 OA
BRANCH  23  25
ATOM     25  O   UNL     1      27.143 -22.005 -18.199  0.00  0.00    -0.303 OA
ATOM     26  H   UNL     1      27.833 -21.728 -18.821  0.00  0.00    +0.222 HD
ENDBRANCH  23  25
BRANCH  23  27
ATOM     27  O   UNL     1      26.990 -22.644 -15.750  0.00  0.00    -0.303 OA
ATOM     28  H   UNL     1      27.256 -23.252 -15.043  0.00  0.00    +0.222 HD
ENDBRANCH  23  27
ENDBRANCH  22  23
ENDBRANCH  21  22
ENDBRANCH   4  21
TORSDOF 8
ENDMDL
MODEL 4
REMARK VINA RESULT:      -8.6      2.403      4.226
REMARK  Name = 192785
REMARK  8 active torsions:
REMARK  status: ('A' for Active; 'I' for Inactive)
REMARK    1  A    between atoms: C_2  and  O_17
REMARK    2  A    between atoms: C_3  and  O_19
REMARK    3  A    between atoms: C_4  and  C_21
REMARK    4  A    between atoms: C_5  and  N_7
REMARK    5  A    between atoms: C_21  and  O_22
REMARK    6  A    between atoms: O_22  and  P_23
REMARK    7  A    between atoms: P_23  and  O_25
REMARK    8  A    between atoms: P_23  and  O_27
REMARK                            x       y       z     vdW  Elec       q    Type
REMARK                         _______ _______ _______ _____ _____    ______ ____
ROOT
ATOM      1  O   UNL     1      36.750 -23.296 -13.914  0.00  0.00    -0.332 OA
ATOM      2  C   UNL     1      36.975 -25.025 -12.311  0.00  0.00    +0.171 C 
ATOM      3  C   UNL     1      35.515 -24.911 -12.698  0.00  0.00    +0.188 C 
ATOM      4  C   UNL     1      37.667 -24.318 -13.469  0.00  0.00    +0.176 C 
ATOM      5  C   UNL     1      35.462 -23.527 -13.323  0.00  0.00    +0.236 C 
ENDROOT
BRANCH   5   7
ATOM      6  O   UNL     1      32.687 -23.730 -12.891  0.00  0.00    -0.193 OA
ATOM      7  N   UNL     1      34.455 -23.424 -14.340  0.00  0.00    -0.178 N 
ATOM      8  N   UNL     1      32.162 -23.425 -15.076  0.00  0.00    -0.306 NA
ATOM      9  N   UNL     1      31.588 -23.119 -17.293  0.00  0.00    -0.332 N 
ATOM     10  C   UNL     1      34.853 -23.207 -15.650  0.00  0.00    +0.079 C 
ATOM     11  C   UNL     1      33.075 -23.536 -14.044  0.00  0.00    +0.275 C 
ATOM     12  C   UNL     1      33.997 -23.096 -16.670  0.00  0.00    +0.038 C 
ATOM     13  C   UNL     1      32.548 -23.221 -16.311  0.00  0.00    +0.189 C 
ATOM     14  C   UNL     1      34.413 -22.863 -18.084  0.00  0.00    +0.037 C 
ATOM     15  H   UNL     1      30.635 -23.201 -17.060  0.00  0.00    +0.145 HD
ATOM     16  H   UNL     1      31.854 -22.964 -18.228  0.00  0.00    +0.145 HD
ENDBRANCH   5   7
BRANCH   2  17
ATOM     17  O   UNL     1      37.232 -24.278 -11.123  0.00  0.00    -0.379 OA
ATOM     18  H   UNL     1      37.900 -24.735 -10.590  0.00  0.00    +0.211 HD
ENDBRANCH   2  17
BRANCH   3  19
ATOM     19  O   UNL     1      34.654 -25.038 -11.584  0.00  0.00    -0.378 OA
ATOM     20  H   UNL     1      34.275 -25.931 -11.570  0.00  0.00    +0.211 HD
ENDBRANCH   3  19
BRANCH   4  21
ATOM     21  C   UNL     1      37.960 -25.239 -14.647  0.00  0.00    +0.186 C 
BRANCH  21  22
ATOM     22  O   UNL     1      38.967 -26.159 -14.263  0.00  0.00    -0.271 OA
BRANCH  22  23
ATOM     23  P   UNL     1      40.508 -25.810 -14.619  0.00  0.00    +0.473 P 
ATOM     24  O   UNL     1      40.991 -24.483 -14.109  0.00  0.00    -0.227 OA
BRANCH  23  25
ATOM     25  O   UNL     1      40.585 -26.005 -16.223  0.00  0.00    -0.303 OA
ATOM     26  H   UNL     1      40.984 -25.218 -16.625  0.00  0.00    +0.222 HD
ENDBRANCH  23  25
BRANCH  23  27
ATOM     27  O   UNL     1      41.310 -27.094 -14.049  0.00  0.00    -0.303 OA
ATOM     28  H   UNL     1      40.920 -27.371 -13.205  0.00  0.00    +0.222 HD
ENDBRANCH  23  27
ENDBRANCH  22  23
ENDBRANCH  21  22
ENDBRANCH   4  21
TORSDOF 8
ENDMDL
MODEL 5
REMARK VINA RESULT:      -8.5      2.235      3.801
REMARK  Name = 192785
REMARK  8 active torsions:
REMARK  status: ('A' for Active; 'I' for Inactive)
REMARK    1  A    between atoms: C_2  and  O_17
REMARK    2  A    between atoms: C_3  and  O_19
REMARK    3  A    between atoms: C_4  and  C_21
REMARK    4  A    between atoms: C_5  and  N_7
REMARK    5  A    between atoms: C_21  and  O_22
REMARK    6  A    between atoms: O_22  and  P_23
REMARK    7  A    between atoms: P_23  and  O_25
REMARK    8  A    between atoms: P_23  and  O_27
REMARK                            x       y       z     vdW  Elec       q    Type
REMARK                         _______ _______ _______ _____ _____    ______ ____
ROOT
ATOM      1  O   UNL     1      37.235 -23.447 -14.365  0.00  0.00    -0.332 OA
ATOM      2  C   UNL     1      36.511 -24.650 -12.458  0.00  0.00    +0.171 C 
ATOM      3  C   UNL     1      35.293 -24.220 -13.250  0.00  0.00    +0.188 C 
ATOM      4  C   UNL     1      37.622 -24.530 -13.493  0.00  0.00    +0.176 C 
ATOM      5  C   UNL     1      35.860 -23.112 -14.121  0.00  0.00    +0.236 C 
ENDROOT
BRANCH   5   7
ATOM      6  O   UNL     1      37.068 -22.441 -16.575  0.00  0.00    -0.193 OA
ATOM      7  N   UNL     1      35.177 -22.999 -15.378  0.00  0.00    -0.178 N 
ATOM      8  N   UNL     1      35.130 -22.568 -17.746  0.00  0.00    -0.306 NA
ATOM      9  N   UNL     1      33.177 -22.686 -18.975  0.00  0.00    -0.332 N 
ATOM     10  C   UNL     1      33.811 -23.233 -15.415  0.00  0.00    +0.079 C 
ATOM     11  C   UNL     1      35.854 -22.657 -16.572  0.00  0.00    +0.275 C 
ATOM     12  C   UNL     1      33.081 -23.154 -16.532  0.00  0.00    +0.038 C 
ATOM     13  C   UNL     1      33.840 -22.791 -17.772  0.00  0.00    +0.189 C 
ATOM     14  C   UNL     1      31.611 -23.403 -16.585  0.00  0.00    +0.037 C 
ATOM     15  H   UNL     1      33.673 -22.447 -19.791  0.00  0.00    +0.145 HD
ATOM     16  H   UNL     1      32.207 -22.850 -19.018  0.00  0.00    +0.145 HD
ENDBRANCH   5   7
BRANCH   2  17
ATOM     17  O   UNL     1      36.779 -23.715 -11.414  0.00  0.00    -0.379 OA
ATOM     18  H   UNL     1      35.943 -23.409 -11.031  0.00  0.00    +0.211 HD
ENDBRANCH   2  17
BRANCH   3  19
ATOM     19  O   UNL     1      34.244 -23.772 -12.416  0.00  0.00    -0.378 OA
ATOM     20  H   UNL     1      34.286 -22.807 -12.334  0.00  0.00    +0.211 HD
ENDBRANCH   3  19
BRANCH   4  21
ATOM     21  C   UNL     1      37.792 -25.784 -14.341  0.00  0.00    +0.186 C 
BRANCH  21  22
ATOM     22  O   UNL     1      38.977 -26.448 -13.936  0.00  0.00    -0.271 OA
BRANCH  22  23
ATOM     23  P   UNL     1      40.400 -25.874 -14.453  0.00  0.00    +0.473 P 
ATOM     24  O   UNL     1      40.799 -24.550 -13.870  0.00  0.00    -0.227 OA
BRANCH  23  25
ATOM     25  O   UNL     1      40.265 -25.909 -16.064  0.00  0.00    -0.303 OA
ATOM     26  H   UNL     1      39.417 -25.518 -16.327  0.00  0.00    +0.222 HD
ENDBRANCH  23  25
BRANCH  23  27
ATOM     27  O   UNL     1      41.416 -27.092 -14.139  0.00  0.00    -0.303 OA
ATOM     28  H   UNL     1      42.138 -26.774 -13.574  0.00  0.00    +0.222 HD
ENDBRANCH  23  27
ENDBRANCH  22  23
ENDBRANCH  21  22
ENDBRANCH   4  21
TORSDOF 8
ENDMDL
MODEL 6
REMARK VINA RESULT:      -8.0      8.490     11.192
REMARK  Name = 192785
REMARK  8 active torsions:
REMARK  status: ('A' for Active; 'I' for Inactive)
REMARK    1  A    between atoms: C_2  and  O_17
REMARK    2  A    between atoms: C_3  and  O_19
REMARK    3  A    between atoms: C_4  and  C_21
REMARK    4  A    between atoms: C_5  and  N_7
REMARK    5  A    between atoms: C_21  and  O_22
REMARK    6  A    between atoms: O_22  and  P_23
REMARK    7  A    between atoms: P_23  and  O_25
REMARK    8  A    between atoms: P_23  and  O_27
REMARK                            x       y       z     vdW  Elec       q    Type
REMARK                         _______ _______ _______ _____ _____    ______ ____
ROOT
ATOM      1  O   UNL     1      35.799 -16.732 -22.768  0.00  0.00    -0.332 OA
ATOM      2  C   UNL     1      34.355 -16.878 -24.640  0.00  0.00    +0.171 C 
ATOM      3  C   UNL     1      34.486 -18.255 -24.021  0.00  0.00    +0.188 C 
ATOM      4  C   UNL     1      34.816 -15.974 -23.505  0.00  0.00    +0.176 C 
ATOM      5  C   UNL     1      35.746 -18.106 -23.185  0.00  0.00    +0.236 C 
ENDROOT
BRANCH   5   7
ATOM      6  O   UNL     1      38.010 -18.815 -21.669  0.00  0.00    -0.193 OA
ATOM      7  N   UNL     1      35.734 -18.946 -22.023  0.00  0.00    -0.178 N 
ATOM      8  N   UNL     1      36.829 -20.075 -20.199  0.00  0.00    -0.306 NA
ATOM      9  N   UNL     1      35.662 -21.368 -18.681  0.00  0.00    -0.332 N 
ATOM     10  C   UNL     1      34.524 -19.466 -21.590  0.00  0.00    +0.079 C 
ATOM     11  C   UNL     1      36.917 -19.258 -21.311  0.00  0.00    +0.275 C 
ATOM     12  C   UNL     1      34.405 -20.258 -20.520  0.00  0.00    +0.038 C 
ATOM     13  C   UNL     1      35.681 -20.560 -19.797  0.00  0.00    +0.189 C 
ATOM     14  C   UNL     1      33.108 -20.824 -20.043  0.00  0.00    +0.037 C 
ATOM     15  H   UNL     1      36.499 -21.568 -18.204  0.00  0.00    +0.145 HD
ATOM     16  H   UNL     1      34.811 -21.744 -18.360  0.00  0.00    +0.145 HD
ENDBRANCH   5   7
BRANCH   2  17
ATOM     17  O   UNL     1      35.276 -16.732 -25.721  0.00  0.00    -0.379 OA
ATOM     18  H   UNL     1      35.021 -17.323 -26.446  0.00  0.00    +0.211 HD
ENDBRANCH   2  17
BRANCH   3  19
ATOM     19  O   UNL     1      34.598 -19.272 -24.996  0.00  0.00    -0.378 OA
ATOM     20  H   UNL     1      35.366 -19.829 -24.795  0.00  0.00    +0.211 HD
ENDBRANCH   3  19
BRANCH   4  21
ATOM     21  C   UNL     1      33.694 -15.594 -22.546  0.00  0.00    +0.186 C 
BRANCH  21  22
ATOM     22  O   UNL     1      33.724 -14.191 -22.348  0.00  0.00    -0.271 OA
BRANCH  22  23
ATOM     23  P   UNL     1      32.994 -13.242 -23.438  0.00  0.00    +0.473 P 
ATOM     24  O   UNL     1      32.539 -13.942 -24.685  0.00  0.00    -0.227 OA
BRANCH  23  25
ATOM     25  O   UNL     1      34.049 -12.037 -23.666  0.00  0.00    -0.303 OA
ATOM     26  H   UNL     1      34.451 -12.121 -24.544  0.00  0.00    +0.222 HD
ENDBRANCH  23  25
BRANCH  23  27
ATOM     27  O   UNL     1      31.815 -12.544 -22.577  0.00  0.00    -0.303 OA
ATOM     28  H   UNL     1      32.050 -11.620 -22.397  0.00  0.00    +0.222 HD
ENDBRANCH  23  27
ENDBRANCH  22  23
ENDBRANCH  21  22
ENDBRANCH   4  21
TORSDOF 8
ENDMDL
MODEL 7
REMARK VINA RESULT:      -7.8      3.443      6.488
REMARK  Name = 192785
REMARK  8 active torsions:
REMARK  status: ('A' for Active; 'I' for Inactive)
REMARK    1  A    between atoms: C_2  and  O_17
REMARK    2  A    between atoms: C_3  and  O_19
REMARK    3  A    between atoms: C_4  and  C_21
REMARK    4  A    between atoms: C_5  and  N_7
REMARK    5  A    between atoms: C_21  and  O_22
REMARK    6  A    between atoms: O_22  and  P_23
REMARK    7  A    between atoms: P_23  and  O_25
REMARK    8  A    between atoms: P_23  and  O_27
REMARK                            x       y       z     vdW  Elec       q    Type
REMARK                         _______ _______ _______ _____ _____    ______ ____
ROOT
ATOM      1  O   UNL     1      34.832 -24.849 -16.156  0.00  0.00    -0.332 OA
ATOM      2  C   UNL     1      33.314 -23.616 -14.820  0.00  0.00    +0.171 C 
ATOM      3  C   UNL     1      34.395 -24.185 -13.924  0.00  0.00    +0.188 C 
ATOM      4  C   UNL     1      33.966 -23.695 -16.194  0.00  0.00    +0.176 C 
ATOM      5  C   UNL     1      34.979 -25.284 -14.795  0.00  0.00    +0.236 C 
ENDROOT
BRANCH   5   7
ATOM      6  O   UNL     1      36.578 -27.228 -16.057  0.00  0.00    -0.193 OA
ATOM      7  N   UNL     1      36.370 -25.515 -14.526  0.00  0.00    -0.178 N 
ATOM      8  N   UNL     1      38.446 -26.679 -14.893  0.00  0.00    -0.306 NA
ATOM      9  N   UNL     1      40.369 -26.150 -13.727  0.00  0.00    -0.332 N 
ATOM     10  C   UNL     1      37.001 -24.733 -13.572  0.00  0.00    +0.079 C 
ATOM     11  C   UNL     1      37.109 -26.514 -15.204  0.00  0.00    +0.275 C 
ATOM     12  C   UNL     1      38.291 -24.867 -13.247  0.00  0.00    +0.038 C 
ATOM     13  C   UNL     1      39.034 -25.935 -13.990  0.00  0.00    +0.189 C 
ATOM     14  C   UNL     1      38.982 -24.032 -12.222  0.00  0.00    +0.037 C 
ATOM     15  H   UNL     1      40.859 -26.852 -14.213  0.00  0.00    +0.145 HD
ATOM     16  H   UNL     1      40.832 -25.603 -13.053  0.00  0.00    +0.145 HD
ENDBRANCH   5   7
BRANCH   2  17
ATOM     17  O   UNL     1      32.173 -24.473 -14.824  0.00  0.00    -0.379 OA
ATOM     18  H   UNL     1      32.450 -25.382 -15.020  0.00  0.00    +0.211 HD
ENDBRANCH   2  17
BRANCH   3  19
ATOM     19  O   UNL     1      33.876 -24.676 -12.705  0.00  0.00    -0.378 OA
ATOM     20  H   UNL     1      32.936 -24.448 -12.639  0.00  0.00    +0.211 HD
ENDBRANCH   3  19
BRANCH   4  21
ATOM     21  C   UNL     1      34.814 -22.475 -16.528  0.00  0.00    +0.186 C 
BRANCH  21  22
ATOM     22  O   UNL     1      35.267 -22.590 -17.866  0.00  0.00    -0.271 OA
BRANCH  22  23
ATOM     23  P   UNL     1      34.198 -22.381 -19.064  0.00  0.00    +0.473 P 
ATOM     24  O   UNL     1      32.880 -21.800 -18.643  0.00  0.00    -0.227 OA
BRANCH  23  25
ATOM     25  O   UNL     1      34.121 -23.836 -19.768  0.00  0.00    -0.303 OA
ATOM     26  H   UNL     1      34.751 -24.435 -19.341  0.00  0.00    +0.222 HD
ENDBRANCH  23  25
BRANCH  23  27
ATOM     27  O   UNL     1      35.025 -21.495 -20.135  0.00  0.00    -0.303 OA
ATOM     28  H   UNL     1      34.896 -21.859 -21.025  0.00  0.00    +0.222 HD
ENDBRANCH  23  27
ENDBRANCH  22  23
ENDBRANCH  21  22
ENDBRANCH   4  21
TORSDOF 8
ENDMDL
MODEL 8
REMARK VINA RESULT:      -7.7      4.145      6.540
REMARK  Name = 192785
REMARK  8 active torsions:
REMARK  status: ('A' for Active; 'I' for Inactive)
REMARK    1  A    between atoms: C_2  and  O_17
REMARK    2  A    between atoms: C_3  and  O_19
REMARK    3  A    between atoms: C_4  and  C_21
REMARK    4  A    between atoms: C_5  and  N_7
REMARK    5  A    between atoms: C_21  and  O_22
REMARK    6  A    between atoms: O_22  and  P_23
REMARK    7  A    between atoms: P_23  and  O_25
REMARK    8  A    between atoms: P_23  and  O_27
REMARK                            x       y       z     vdW  Elec       q    Type
REMARK                         _______ _______ _______ _____ _____    ______ ____
ROOT
ATOM      1  O   UNL     1      31.501 -24.053 -15.990  0.00  0.00    -0.332 OA
ATOM      2  C   UNL     1      31.053 -23.563 -13.717  0.00  0.00    +0.171 C 
ATOM      3  C   UNL     1      32.509 -23.254 -14.001  0.00  0.00    +0.188 C 
ATOM      4  C   UNL     1      30.453 -23.582 -15.116  0.00  0.00    +0.176 C 
ATOM      5  C   UNL     1      32.751 -24.031 -15.284  0.00  0.00    +0.236 C 
ENDROOT
BRANCH   5   7
ATOM      6  O   UNL     1      32.360 -23.200 -17.945  0.00  0.00    -0.193 OA
ATOM      7  N   UNL     1      33.747 -23.419 -16.115  0.00  0.00    -0.178 N 
ATOM      8  N   UNL     1      34.484 -22.442 -18.189  0.00  0.00    -0.306 NA
ATOM      9  N   UNL     1      36.638 -21.659 -18.478  0.00  0.00    -0.332 N 
ATOM     10  C   UNL     1      35.013 -23.209 -15.591  0.00  0.00    +0.079 C 
ATOM     11  C   UNL     1      33.474 -23.027 -17.448  0.00  0.00    +0.275 C 
ATOM     12  C   UNL     1      36.011 -22.647 -16.281  0.00  0.00    +0.038 C 
ATOM     13  C   UNL     1      35.676 -22.247 -17.686  0.00  0.00    +0.189 C 
ATOM     14  C   UNL     1      37.378 -22.416 -15.729  0.00  0.00    +0.037 C 
ATOM     15  H   UNL     1      36.421 -21.396 -19.401  0.00  0.00    +0.145 HD
ATOM     16  H   UNL     1      37.542 -21.502 -18.120  0.00  0.00    +0.145 HD
ENDBRANCH   5   7
BRANCH   2  17
ATOM     17  O   UNL     1      30.924 -24.873 -13.165  0.00  0.00    -0.379 OA
ATOM     18  H   UNL     1      31.192 -24.860 -12.233  0.00  0.00    +0.211 HD
ENDBRANCH   2  17
BRANCH   3  19
ATOM     19  O   UNL     1      33.358 -23.664 -12.948  0.00  0.00    -0.378 OA
ATOM     20  H   UNL     1      34.233 -23.260 -13.063  0.00  0.00    +0.211 HD
ENDBRANCH   3  19
BRANCH   4  21
ATOM     21  C   UNL     1      30.014 -22.206 -15.601  0.00  0.00    +0.186 C 
BRANCH  21  22
ATOM     22  O   UNL     1      29.302 -22.360 -16.816  0.00  0.00    -0.271 OA
BRANCH  22  23
ATOM     23  P   UNL     1      27.704 -22.615 -16.749  0.00  0.00    +0.473 P 
ATOM     24  O   UNL     1      27.131 -22.681 -15.363  0.00  0.00    -0.227 OA
BRANCH  23  25
ATOM     25  O   UNL     1      27.488 -23.939 -17.652  0.00  0.00    -0.303 OA
ATOM     26  H   UNL     1      28.285 -24.104 -18.180  0.00  0.00    +0.222 HD
ENDBRANCH  23  25
BRANCH  23  27
ATOM     27  O   UNL     1      27.110 -21.431 -17.677  0.00  0.00    -0.303 OA
ATOM     28  H   UNL     1      26.142 -21.422 -17.610  0.00  0.00    +0.222 HD
ENDBRANCH  23  27
ENDBRANCH  22  23
ENDBRANCH  21  22
ENDBRANCH   4  21
TORSDOF 8
ENDMDL
MODEL 9
REMARK VINA RESULT:      -7.6     11.304     13.169
REMARK  Name = 192785
REMARK  8 active torsions:
REMARK  status: ('A' for Active; 'I' for Inactive)
REMARK    1  A    between atoms: C_2  and  O_17
REMARK    2  A    between atoms: C_3  and  O_19
REMARK    3  A    between atoms: C_4  and  C_21
REMARK    4  A    between atoms: C_5  and  N_7
REMARK    5  A    between atoms: C_21  and  O_22
REMARK    6  A    between atoms: O_22  and  P_23
REMARK    7  A    between atoms: P_23  and  O_25
REMARK    8  A    between atoms: P_23  and  O_27
REMARK                            x       y       z     vdW  Elec       q    Type
REMARK                         _______ _______ _______ _____ _____    ______ ____
ROOT
ATOM      1  O   UNL     1      31.965 -13.913 -22.225  0.00  0.00    -0.332 OA
ATOM      2  C   UNL     1      33.859 -14.491 -23.524  0.00  0.00    +0.171 C 
ATOM      3  C   UNL     1      33.823 -12.985 -23.366  0.00  0.00    +0.188 C 
ATOM      4  C   UNL     1      32.953 -14.952 -22.391  0.00  0.00    +0.176 C 
ATOM      5  C   UNL     1      32.380 -12.747 -22.954  0.00  0.00    +0.236 C 
ENDROOT
BRANCH   5   7
ATOM      6  O   UNL     1      32.776 -10.080 -23.767  0.00  0.00    -0.193 OA
ATOM      7  N   UNL     1      32.233 -11.593 -22.113  0.00  0.00    -0.178 N 
ATOM      8  N   UNL     1      32.289  -9.217 -21.727  0.00  0.00    -0.306 NA
ATOM      9  N   UNL     1      31.801  -8.300 -19.663  0.00  0.00    -0.332 N 
ATOM     10  C   UNL     1      31.869 -11.779 -20.788  0.00  0.00    +0.079 C 
ATOM     11  C   UNL     1      32.450 -10.280 -22.595  0.00  0.00    +0.275 C 
ATOM     12  C   UNL     1      31.707 -10.773 -19.923  0.00  0.00    +0.038 C 
ATOM     13  C   UNL     1      31.945  -9.402 -20.477  0.00  0.00    +0.189 C 
ATOM     14  C   UNL     1      31.315 -10.960 -18.495  0.00  0.00    +0.037 C 
ATOM     15  H   UNL     1      31.958  -7.398 -20.025  0.00  0.00    +0.145 HD
ATOM     16  H   UNL     1      31.542  -8.414 -18.720  0.00  0.00    +0.145 HD
ENDBRANCH   5   7
BRANCH   2  17
ATOM     17  O   UNL     1      33.251 -14.874 -24.757  0.00  0.00    -0.379 OA
ATOM     18  H   UNL     1      32.963 -14.081 -25.237  0.00  0.00    +0.211 HD
ENDBRANCH   2  17
BRANCH   3  19
ATOM     19  O   UNL     1      34.165 -12.312 -24.561  0.00  0.00    -0.378 OA
ATOM     20  H   UNL     1      35.056 -12.577 -24.836  0.00  0.00    +0.211 HD
ENDBRANCH   3  19
BRANCH   4  21
ATOM     21  C   UNL     1      33.686 -15.124 -21.066  0.00  0.00    +0.186 C 
BRANCH  21  22
ATOM     22  O   UNL     1      34.835 -15.924 -21.286  0.00  0.00    -0.271 OA
BRANCH  22  23
ATOM     23  P   UNL     1      34.646 -17.526 -21.423  0.00  0.00    +0.473 P 
ATOM     24  O   UNL     1      33.313 -18.048 -20.973  0.00  0.00    -0.227 OA
BRANCH  23  25
ATOM     25  O   UNL     1      35.927 -18.133 -20.644  0.00  0.00    -0.303 OA
ATOM     26  H   UNL     1      36.429 -18.706 -21.243  0.00  0.00    +0.222 HD
ENDBRANCH  23  25
BRANCH  23  27
ATOM     27  O   UNL     1      34.996 -17.799 -22.979  0.00  0.00    -0.303 OA
ATOM     28  H   UNL     1      35.409 -17.009 -23.361  0.00  0.00    +0.222 HD
ENDBRANCH  23  27
ENDBRANCH  22  23
ENDBRANCH  21  22
ENDBRANCH   4  21
TORSDOF 8
ENDMDL
