MODEL 1
REMARK VINA RESULT:     -12.7      0.000      0.000
REMARK  Name = 11560787
REMARK  5 active torsions:
REMARK  status: ('A' for Active; 'I' for Inactive)
REMARK    1  A    between atoms: N_2  and  C_23
REMARK    2  A    between atoms: C_8  and  C_9
REMARK    3  A    between atoms: C_12  and  N_15
REMARK    4  A    between atoms: C_13  and  O_21
REMARK    5  A    between atoms: C_23  and  C_26
REMARK                            x       y       z     vdW  Elec       q    Type
REMARK                         _______ _______ _______ _____ _____    ______ ____
ROOT
ATOM      1  O   UNL     1      34.509 -16.683 -24.266  0.00  0.00    -0.270 OA
ATOM      2  N   UNL     1      34.866 -17.180 -22.029  0.00  0.00    -0.274 N 
ATOM      3  C   UNL     1      34.728 -16.823 -20.618  0.00  0.00    +0.094 C 
ATOM      4  C   UNL     1      34.822 -15.327 -20.385  0.00  0.00    +0.026 C 
ATOM      5  C   UNL     1      33.790 -14.628 -21.250  0.00  0.00    +0.033 C 
ATOM      6  C   UNL     1      33.986 -14.983 -22.692  0.00  0.00    +0.031 C 
ATOM      7  C   UNL     1      34.470 -16.350 -23.080  0.00  0.00    +0.245 C 
ATOM      8  C   UNL     1      33.769 -14.092 -23.673  0.00  0.00    +0.000 C 
ENDROOT
BRANCH   8   9
ATOM      9  C   UNL     1      33.297 -12.711 -23.486  0.00  0.00    +0.003 C 
ATOM     10  C   UNL     1      32.239 -12.464 -22.625  0.00  0.00    +0.038 C 
ATOM     11  C   UNL     1      33.919 -11.680 -24.174  0.00  0.00    +0.001 C 
ATOM     12  C   UNL     1      32.408 -10.108 -23.133  0.00  0.00    +0.084 C 
ATOM     13  C   UNL     1      31.792 -11.154 -22.447  0.00  0.00    +0.152 C 
ATOM     14  C   UNL     1      33.473 -10.371 -23.996  0.00  0.00    +0.018 C 
BRANCH  12  15
ATOM     15  N   UNL     1      31.977  -8.803 -22.970  0.00  0.00    -0.280 N 
ATOM     16  N   UNL     1      30.915  -6.888 -23.377  0.00  0.00    -0.255 NA
ATOM     17  C   UNL     1      32.308  -7.957 -21.944  0.00  0.00    +0.134 C 
ATOM     18  C   UNL     1      31.137  -8.111 -23.804  0.00  0.00    +0.220 C 
ATOM     19  C   UNL     1      31.641  -6.785 -22.218  0.00  0.00    +0.054 C 
ATOM     20  C   UNL     1      31.640  -5.536 -21.441  0.00  0.00    +0.049 C 
ENDBRANCH  12  15
BRANCH  13  21
ATOM     21  O   UNL     1      30.751 -10.922 -21.598  0.00  0.00    -0.470 OA
ATOM     22  C   UNL     1      31.000 -11.103 -20.206  0.00  0.00    +0.253 C 
ENDBRANCH  13  21
ENDBRANCH   8   9
BRANCH   2  23
ATOM     23  C   UNL     1      35.297 -18.545 -22.304  0.00  0.00    +0.098 C 
ATOM     24  C   UNL     1      36.827 -18.603 -22.316  0.00  0.00    +0.026 C 
BRANCH  23  26
ATOM     25  F   UNL     1      33.099 -22.184 -18.627  0.00  0.00    -0.204 F 
ATOM     26  C   UNL     1      34.704 -19.527 -21.312  0.00  0.00    -0.004 C 
ATOM     27  C   UNL     1      35.552 -20.338 -20.581  0.00  0.00    -0.000 C 
ATOM     28  C   UNL     1      33.331 -19.585 -21.163  0.00  0.00    -0.000 C 
ATOM     29  C   UNL     1      35.006 -21.241 -19.668  0.00  0.00    +0.029 C 
ATOM     30  C   UNL     1      32.785 -20.488 -20.250  0.00  0.00    +0.029 C 
ATOM     31  C   UNL     1      33.623 -21.316 -19.504  0.00  0.00    +0.140 C 
ENDBRANCH  23  26
ENDBRANCH   2  23
TORSDOF 5
ENDMDL
MODEL 2
REMARK VINA RESULT:     -12.4      0.944      1.910
REMARK  Name = 11560787
REMARK  5 active torsions:
REMARK  status: ('A' for Active; 'I' for Inactive)
REMARK    1  A    between atoms: N_2  and  C_23
REMARK    2  A    between atoms: C_8  and  C_9
REMARK    3  A    between atoms: C_12  and  N_15
REMARK    4  A    between atoms: C_13  and  O_21
REMARK    5  A    between atoms: C_23  and  C_26
REMARK                            x       y       z     vdW  Elec       q    Type
REMARK                         _______ _______ _______ _____ _____    ______ ____
ROOT
ATOM      1  O   UNL     1      34.286 -16.718 -24.233  0.00  0.00    -0.270 OA
ATOM      2  N   UNL     1      34.774 -17.216 -22.021  0.00  0.00    -0.274 N 
ATOM      3  C   UNL     1      34.726 -16.856 -20.605  0.00  0.00    +0.094 C 
ATOM      4  C   UNL     1      34.844 -15.361 -20.381  0.00  0.00    +0.026 C 
ATOM      5  C   UNL     1      33.766 -14.655 -21.182  0.00  0.00    +0.033 C 
ATOM      6  C   UNL     1      33.872 -15.013 -22.633  0.00  0.00    +0.031 C 
ATOM      7  C   UNL     1      34.321 -16.385 -23.048  0.00  0.00    +0.245 C 
ATOM      8  C   UNL     1      33.602 -14.121 -23.600  0.00  0.00    +0.000 C 
ENDROOT
BRANCH   8   9
ATOM      9  C   UNL     1      33.152 -12.737 -23.387  0.00  0.00    +0.003 C 
ATOM     10  C   UNL     1      33.862 -11.694 -23.961  0.00  0.00    +0.038 C 
ATOM     11  C   UNL     1      32.024 -12.499 -22.616  0.00  0.00    +0.001 C 
ATOM     12  C   UNL     1      32.302 -10.128 -22.987  0.00  0.00    +0.084 C 
ATOM     13  C   UNL     1      33.435 -10.382 -23.760  0.00  0.00    +0.152 C 
ATOM     14  C   UNL     1      31.597 -11.187 -22.414  0.00  0.00    +0.018 C 
BRANCH  12  15
ATOM     15  N   UNL     1      31.865  -8.832 -22.775  0.00  0.00    -0.280 N 
ATOM     16  N   UNL     1      30.812  -6.900 -23.122  0.00  0.00    -0.255 NA
ATOM     17  C   UNL     1      32.169  -8.033 -21.704  0.00  0.00    +0.134 C 
ATOM     18  C   UNL     1      31.046  -8.102 -23.598  0.00  0.00    +0.220 C 
ATOM     19  C   UNL     1      31.509  -6.850 -21.940  0.00  0.00    +0.054 C 
ATOM     20  C   UNL     1      31.486  -5.638 -21.108  0.00  0.00    +0.049 C 
ENDBRANCH  12  15
BRANCH  13  21
ATOM     21  O   UNL     1      34.140  -9.364 -24.329  0.00  0.00    -0.470 OA
ATOM     22  C   UNL     1      35.306  -9.720 -25.069  0.00  0.00    +0.253 C 
ENDBRANCH  13  21
ENDBRANCH   8   9
BRANCH   2  23
ATOM     23  C   UNL     1      35.178 -18.584 -22.319  0.00  0.00    +0.098 C 
ATOM     24  C   UNL     1      36.705 -18.657 -22.408  0.00  0.00    +0.026 C 
BRANCH  23  26
ATOM     25  F   UNL     1      33.132 -22.209 -18.543  0.00  0.00    -0.204 F 
ATOM     26  C   UNL     1      34.626 -19.562 -21.301  0.00  0.00    -0.004 C 
ATOM     27  C   UNL     1      33.259 -19.622 -21.098  0.00  0.00    -0.000 C 
ATOM     28  C   UNL     1      35.503 -20.369 -20.600  0.00  0.00    -0.000 C 
ATOM     29  C   UNL     1      32.751 -20.522 -20.161  0.00  0.00    +0.029 C 
ATOM     30  C   UNL     1      34.995 -21.269 -19.663  0.00  0.00    +0.029 C 
ATOM     31  C   UNL     1      33.620 -21.345 -19.443  0.00  0.00    +0.140 C 
ENDBRANCH  23  26
ENDBRANCH   2  23
TORSDOF 5
ENDMDL
MODEL 3
REMARK VINA RESULT:     -11.0      5.330     11.990
REMARK  Name = 11560787
REMARK  5 active torsions:
REMARK  status: ('A' for Active; 'I' for Inactive)
REMARK    1  A    between atoms: N_2  and  C_23
REMARK    2  A    between atoms: C_8  and  C_9
REMARK    3  A    between atoms: C_12  and  N_15
REMARK    4  A    between atoms: C_13  and  O_21
REMARK    5  A    between atoms: C_23  and  C_26
REMARK                            x       y       z     vdW  Elec       q    Type
REMARK                         _______ _______ _______ _____ _____    ______ ____
ROOT
ATOM      1  O   UNL     1      37.271 -19.260 -21.321  0.00  0.00    -0.270 OA
ATOM      2  N   UNL     1      35.036 -19.230 -21.937  0.00  0.00    -0.274 N 
ATOM      3  C   UNL     1      33.635 -19.508 -21.624  0.00  0.00    +0.094 C 
ATOM      4  C   UNL     1      33.467 -20.747 -20.766  0.00  0.00    +0.026 C 
ATOM      5  C   UNL     1      34.309 -20.596 -19.512  0.00  0.00    +0.033 C 
ATOM      6  C   UNL     1      35.744 -20.355 -19.870  0.00  0.00    +0.031 C 
ATOM      7  C   UNL     1      36.099 -19.566 -21.097  0.00  0.00    +0.245 C 
ATOM      8  C   UNL     1      36.747 -20.855 -19.132  0.00  0.00    +0.000 C 
ENDROOT
BRANCH   8   9
ATOM      9  C   UNL     1      36.593 -21.648 -17.903  0.00  0.00    +0.003 C 
ATOM     10  C   UNL     1      35.447 -22.407 -17.721  0.00  0.00    +0.038 C 
ATOM     11  C   UNL     1      37.599 -21.625 -16.947  0.00  0.00    +0.001 C 
ATOM     12  C   UNL     1      36.305 -23.146 -15.586  0.00  0.00    +0.084 C 
ATOM     13  C   UNL     1      35.302 -23.160 -16.555  0.00  0.00    +0.152 C 
ATOM     14  C   UNL     1      37.454 -22.378 -15.782  0.00  0.00    +0.018 C 
BRANCH  12  15
ATOM     15  N   UNL     1      36.177 -23.886 -14.424  0.00  0.00    -0.280 N 
ATOM     16  N   UNL     1      36.205 -25.638 -13.049  0.00  0.00    -0.255 NA
ATOM     17  C   UNL     1      35.783 -23.416 -13.198  0.00  0.00    +0.134 C 
ATOM     18  C   UNL     1      36.419 -25.227 -14.279  0.00  0.00    +0.220 C 
ATOM     19  C   UNL     1      35.809 -24.514 -12.370  0.00  0.00    +0.054 C 
ATOM     20  C   UNL     1      35.477 -24.583 -10.938  0.00  0.00    +0.049 C 
ENDBRANCH  12  15
BRANCH  13  21
ATOM     21  O   UNL     1      34.171 -23.903 -16.387  0.00  0.00    -0.470 OA
ATOM     22  C   UNL     1      32.945 -23.319 -16.818  0.00  0.00    +0.253 C 
ENDBRANCH  13  21
ENDBRANCH   8   9
BRANCH   2  23
ATOM     23  C   UNL     1      35.276 -18.418 -23.123  0.00  0.00    +0.098 C 
ATOM     24  C   UNL     1      34.631 -19.088 -24.340  0.00  0.00    +0.026 C 
BRANCH  23  26
ATOM     25  F   UNL     1      33.440 -13.151 -22.426  0.00  0.00    -0.204 F 
ATOM     26  C   UNL     1      34.781 -16.997 -22.935  0.00  0.00    -0.004 C 
ATOM     27  C   UNL     1      34.273 -16.312 -24.024  0.00  0.00    -0.000 C 
ATOM     28  C   UNL     1      34.849 -16.422 -21.680  0.00  0.00    -0.000 C 
ATOM     29  C   UNL     1      33.817 -15.005 -23.851  0.00  0.00    +0.029 C 
ATOM     30  C   UNL     1      34.393 -15.115 -21.507  0.00  0.00    +0.029 C 
ATOM     31  C   UNL     1      33.878 -14.407 -22.592  0.00  0.00    +0.140 C 
ENDBRANCH  23  26
ENDBRANCH   2  23
TORSDOF 5
ENDMDL
MODEL 4
REMARK VINA RESULT:     -10.2      3.615      5.841
REMARK  Name = 11560787
REMARK  5 active torsions:
REMARK  status: ('A' for Active; 'I' for Inactive)
REMARK    1  A    between atoms: N_2  and  C_23
REMARK    2  A    between atoms: C_8  and  C_9
REMARK    3  A    between atoms: C_12  and  N_15
REMARK    4  A    between atoms: C_13  and  O_21
REMARK    5  A    between atoms: C_23  and  C_26
REMARK                            x       y       z     vdW  Elec       q    Type
REMARK                         _______ _______ _______ _____ _____    ______ ____
ROOT
ATOM      1  O   UNL     1      36.816 -20.471 -19.436  0.00  0.00    -0.270 OA
ATOM      2  N   UNL     1      34.779 -21.540 -19.140  0.00  0.00    -0.274 N 
ATOM      3  C   UNL     1      33.378 -21.716 -19.518  0.00  0.00    +0.094 C 
ATOM      4  C   UNL     1      32.726 -20.417 -19.953  0.00  0.00    +0.026 C 
ATOM      5  C   UNL     1      33.544 -19.807 -21.076  0.00  0.00    +0.033 C 
ATOM      6  C   UNL     1      34.963 -19.602 -20.641  0.00  0.00    +0.031 C 
ATOM      7  C   UNL     1      35.615 -20.567 -19.693  0.00  0.00    +0.245 C 
ATOM      8  C   UNL     1      35.680 -18.545 -21.053  0.00  0.00    +0.000 C 
ENDROOT
BRANCH   8   9
ATOM      9  C   UNL     1      35.212 -17.499 -21.975  0.00  0.00    +0.003 C 
ATOM     10  C   UNL     1      34.698 -16.318 -21.462  0.00  0.00    +0.038 C 
ATOM     11  C   UNL     1      35.293 -17.712 -23.344  0.00  0.00    +0.001 C 
ATOM     12  C   UNL     1      34.330 -15.527 -23.715  0.00  0.00    +0.084 C 
ATOM     13  C   UNL     1      34.255 -15.326 -22.337  0.00  0.00    +0.152 C 
ATOM     14  C   UNL     1      34.849 -16.721 -24.218  0.00  0.00    +0.018 C 
BRANCH  12  15
ATOM     15  N   UNL     1      33.893 -14.555 -24.597  0.00  0.00    -0.280 N 
ATOM     16  N   UNL     1      33.470 -12.536 -25.439  0.00  0.00    -0.255 NA
ATOM     17  C   UNL     1      33.300 -14.765 -25.814  0.00  0.00    +0.134 C 
ATOM     18  C   UNL     1      33.972 -13.197 -24.421  0.00  0.00    +0.220 C 
ATOM     19  C   UNL     1      33.049 -13.508 -26.312  0.00  0.00    +0.054 C 
ATOM     20  C   UNL     1      32.421 -13.144 -27.592  0.00  0.00    +0.049 C 
ENDBRANCH  12  15
BRANCH  13  21
ATOM     21  O   UNL     1      33.752 -14.169 -21.821  0.00  0.00    -0.470 OA
ATOM     22  C   UNL     1      32.782 -14.291 -20.784  0.00  0.00    +0.253 C 
ENDBRANCH  13  21
ENDBRANCH   8   9
BRANCH   2  23
ATOM     23  C   UNL     1      35.334 -22.555 -18.254  0.00  0.00    +0.098 C 
ATOM     24  C   UNL     1      36.674 -22.067 -17.695  0.00  0.00    +0.026 C 
BRANCH  23  26
ATOM     25  F   UNL     1      31.734 -23.906 -14.155  0.00  0.00    -0.204 F 
ATOM     26  C   UNL     1      34.363 -22.920 -17.148  0.00  0.00    -0.004 C 
ATOM     27  C   UNL     1      34.835 -23.056 -15.856  0.00  0.00    -0.000 C 
ATOM     28  C   UNL     1      33.029 -23.106 -17.459  0.00  0.00    -0.000 C 
ATOM     29  C   UNL     1      33.942 -23.391 -14.838  0.00  0.00    +0.029 C 
ATOM     30  C   UNL     1      32.135 -23.441 -16.442  0.00  0.00    +0.029 C 
ATOM     31  C   UNL     1      32.592 -23.584 -15.132  0.00  0.00    +0.140 C 
ENDBRANCH  23  26
ENDBRANCH   2  23
TORSDOF 5
ENDMDL
MODEL 5
REMARK VINA RESULT:     -10.1      4.356     11.267
REMARK  Name = 11560787
REMARK  5 active torsions:
REMARK  status: ('A' for Active; 'I' for Inactive)
REMARK    1  A    between atoms: N_2  and  C_23
REMARK    2  A    between atoms: C_8  and  C_9
REMARK    3  A    between atoms: C_12  and  N_15
REMARK    4  A    between atoms: C_13  and  O_21
REMARK    5  A    between atoms: C_23  and  C_26
REMARK                            x       y       z     vdW  Elec       q    Type
REMARK                         _______ _______ _______ _____ _____    ______ ____
ROOT
ATOM      1  O   UNL     1      30.123  -8.126 -23.860  0.00  0.00    -0.270 OA
ATOM      2  N   UNL     1      31.386  -6.739 -22.496  0.00  0.00    -0.274 N 
ATOM      3  C   UNL     1      32.513  -6.549 -21.585  0.00  0.00    +0.094 C 
ATOM      4  C   UNL     1      32.780  -7.772 -20.729  0.00  0.00    +0.026 C 
ATOM      5  C   UNL     1      32.979  -8.974 -21.633  0.00  0.00    +0.033 C 
ATOM      6  C   UNL     1      31.788  -9.164 -22.523  0.00  0.00    +0.031 C 
ATOM      7  C   UNL     1      31.021  -7.977 -23.030  0.00  0.00    +0.245 C 
ATOM      8  C   UNL     1      31.354 -10.386 -22.867  0.00  0.00    +0.000 C 
ENDROOT
BRANCH   8   9
ATOM      9  C   UNL     1      31.974 -11.659 -22.467  0.00  0.00    +0.003 C 
ATOM     10  C   UNL     1      32.814 -12.316 -23.354  0.00  0.00    +0.038 C 
ATOM     11  C   UNL     1      31.709 -12.180 -21.209  0.00  0.00    +0.001 C 
ATOM     12  C   UNL     1      33.144 -14.058 -21.713  0.00  0.00    +0.084 C 
ATOM     13  C   UNL     1      33.402 -13.522 -22.974  0.00  0.00    +0.152 C 
ATOM     14  C   UNL     1      32.296 -13.386 -20.830  0.00  0.00    +0.018 C 
BRANCH  12  15
ATOM     15  N   UNL     1      33.718 -15.254 -21.321  0.00  0.00    -0.280 N 
ATOM     16  N   UNL     1      35.110 -16.673 -20.314  0.00  0.00    -0.255 NA
ATOM     17  C   UNL     1      33.309 -16.512 -21.681  0.00  0.00    +0.134 C 
ATOM     18  C   UNL     1      34.804 -15.408 -20.498  0.00  0.00    +0.220 C 
ATOM     19  C   UNL     1      34.181 -17.366 -21.048  0.00  0.00    +0.054 C 
ATOM     20  C   UNL     1      34.204 -18.837 -21.088  0.00  0.00    +0.049 C 
ENDBRANCH  12  15
BRANCH  13  21
ATOM     21  O   UNL     1      34.226 -14.159 -23.854  0.00  0.00    -0.470 OA
ATOM     22  C   UNL     1      33.609 -14.820 -24.956  0.00  0.00    +0.253 C 
ENDBRANCH  13  21
ENDBRANCH   8   9
BRANCH   2  23
ATOM     23  C   UNL     1      30.735  -5.524 -22.969  0.00  0.00    +0.098 C 
ATOM     24  C   UNL     1      30.590  -4.537 -21.806  0.00  0.00    +0.026 C 
BRANCH  23  26
ATOM     25  F   UNL     1      33.501  -3.252 -27.302  0.00  0.00    -0.204 F 
ATOM     26  C   UNL     1      31.481  -4.911 -24.138  0.00  0.00    -0.004 C 
ATOM     27  C   UNL     1      31.256  -3.585 -24.459  0.00  0.00    -0.000 C 
ATOM     28  C   UNL     1      32.368  -5.693 -24.854  0.00  0.00    -0.000 C 
ATOM     29  C   UNL     1      31.942  -3.021 -25.534  0.00  0.00    +0.029 C 
ATOM     30  C   UNL     1      33.055  -5.129 -25.929  0.00  0.00    +0.029 C 
ATOM     31  C   UNL     1      32.842  -3.794 -26.269  0.00  0.00    +0.140 C 
ENDBRANCH  23  26
ENDBRANCH   2  23
TORSDOF 5
ENDMDL
MODEL 6
REMARK VINA RESULT:      -9.9      1.336      2.372
REMARK  Name = 11560787
REMARK  5 active torsions:
REMARK  status: ('A' for Active; 'I' for Inactive)
REMARK    1  A    between atoms: N_2  and  C_23
REMARK    2  A    between atoms: C_8  and  C_9
REMARK    3  A    between atoms: C_12  and  N_15
REMARK    4  A    between atoms: C_13  and  O_21
REMARK    5  A    between atoms: C_23  and  C_26
REMARK                            x       y       z     vdW  Elec       q    Type
REMARK                         _______ _______ _______ _____ _____    ______ ____
ROOT
ATOM      1  O   UNL     1      34.975 -16.722 -20.902  0.00  0.00    -0.270 OA
ATOM      2  N   UNL     1      35.046 -17.488 -23.090  0.00  0.00    -0.274 N 
ATOM      3  C   UNL     1      34.915 -17.231 -24.524  0.00  0.00    +0.094 C 
ATOM      4  C   UNL     1      33.852 -16.196 -24.834  0.00  0.00    +0.026 C 
ATOM      5  C   UNL     1      34.156 -14.929 -24.056  0.00  0.00    +0.033 C 
ATOM      6  C   UNL     1      34.241 -15.221 -22.589  0.00  0.00    +0.031 C 
ATOM      7  C   UNL     1      34.788 -16.533 -22.105  0.00  0.00    +0.245 C 
ATOM      8  C   UNL     1      33.807 -14.343 -21.670  0.00  0.00    +0.000 C 
ENDROOT
BRANCH   8   9
ATOM      9  C   UNL     1      33.243 -13.015 -21.954  0.00  0.00    +0.003 C 
ATOM     10  C   UNL     1      33.709 -12.295 -23.043  0.00  0.00    +0.038 C 
ATOM     11  C   UNL     1      32.253 -12.505 -21.127  0.00  0.00    +0.001 C 
ATOM     12  C   UNL     1      32.177 -10.511 -22.489  0.00  0.00    +0.084 C 
ATOM     13  C   UNL     1      33.173 -11.035 -23.312  0.00  0.00    +0.152 C 
ATOM     14  C   UNL     1      31.717 -11.246 -21.395  0.00  0.00    +0.018 C 
BRANCH  12  15
ATOM     15  N   UNL     1      31.635  -9.263 -22.740  0.00  0.00    -0.280 N 
ATOM     16  N   UNL     1      30.468  -7.657 -23.751  0.00  0.00    -0.255 NA
ATOM     17  C   UNL     1      31.815  -8.130 -21.990  0.00  0.00    +0.134 C 
ATOM     18  C   UNL     1      30.817  -8.924 -23.787  0.00  0.00    +0.220 C 
ATOM     19  C   UNL     1      31.086  -7.156 -22.633  0.00  0.00    +0.054 C 
ATOM     20  C   UNL     1      30.926  -5.743 -22.258  0.00  0.00    +0.049 C 
ENDBRANCH  12  15
BRANCH  13  21
ATOM     21  O   UNL     1      33.638 -10.337 -24.386  0.00  0.00    -0.470 OA
ATOM     22  C   UNL     1      34.861  -9.625 -24.214  0.00  0.00    +0.253 C 
ENDBRANCH  13  21
ENDBRANCH   8   9
BRANCH   2  23
ATOM     23  C   UNL     1      35.631 -18.771 -22.722  0.00  0.00    +0.098 C 
ATOM     24  C   UNL     1      37.072 -18.559 -22.250  0.00  0.00    +0.026 C 
BRANCH  23  26
ATOM     25  F   UNL     1      32.535 -21.412 -18.844  0.00  0.00    -0.204 F 
ATOM     26  C   UNL     1      34.795 -19.484 -21.676  0.00  0.00    -0.004 C 
ATOM     27  C   UNL     1      33.421 -19.339 -21.700  0.00  0.00    -0.000 C 
ATOM     28  C   UNL     1      35.430 -20.260 -20.724  0.00  0.00    -0.000 C 
ATOM     29  C   UNL     1      32.652 -19.994 -20.738  0.00  0.00    +0.029 C 
ATOM     30  C   UNL     1      34.661 -20.916 -19.761  0.00  0.00    +0.029 C 
ATOM     31  C   UNL     1      33.273 -20.783 -19.768  0.00  0.00    +0.140 C 
ENDBRANCH  23  26
ENDBRANCH   2  23
TORSDOF 5
ENDMDL
MODEL 7
REMARK VINA RESULT:      -9.9      3.751     10.496
REMARK  Name = 11560787
REMARK  5 active torsions:
REMARK  status: ('A' for Active; 'I' for Inactive)
REMARK    1  A    between atoms: N_2  and  C_23
REMARK    2  A    between atoms: C_8  and  C_9
REMARK    3  A    between atoms: C_12  and  N_15
REMARK    4  A    between atoms: C_13  and  O_21
REMARK    5  A    between atoms: C_23  and  C_26
REMARK                            x       y       z     vdW  Elec       q    Type
REMARK                         _______ _______ _______ _____ _____    ______ ____
ROOT
ATOM      1  O   UNL     1      31.924  -9.517 -24.012  0.00  0.00    -0.270 OA
ATOM      2  N   UNL     1      31.734  -8.588 -21.895  0.00  0.00    -0.274 N 
ATOM      3  C   UNL     1      31.932  -8.687 -20.450  0.00  0.00    +0.094 C 
ATOM      4  C   UNL     1      31.754 -10.103 -19.935  0.00  0.00    +0.026 C 
ATOM      5  C   UNL     1      32.685 -11.026 -20.699  0.00  0.00    +0.033 C 
ATOM      6  C   UNL     1      32.427 -10.930 -22.172  0.00  0.00    +0.031 C 
ATOM      7  C   UNL     1      32.012  -9.626 -22.788  0.00  0.00    +0.245 C 
ATOM      8  C   UNL     1      32.527 -12.001 -22.975  0.00  0.00    +0.000 C 
ENDROOT
BRANCH   8   9
ATOM      9  C   UNL     1      32.917 -13.355 -22.553  0.00  0.00    +0.003 C 
ATOM     10  C   UNL     1      33.906 -14.029 -23.254  0.00  0.00    +0.038 C 
ATOM     11  C   UNL     1      32.291 -13.935 -21.459  0.00  0.00    +0.001 C 
ATOM     12  C   UNL     1      33.655 -15.907 -21.755  0.00  0.00    +0.084 C 
ATOM     13  C   UNL     1      34.277 -15.312 -22.853  0.00  0.00    +0.152 C 
ATOM     14  C   UNL     1      32.662 -15.218 -21.058  0.00  0.00    +0.018 C 
BRANCH  12  15
ATOM     15  N   UNL     1      34.010 -17.180 -21.344  0.00  0.00    -0.280 N 
ATOM     16  N   UNL     1      35.286 -18.884 -20.689  0.00  0.00    -0.255 NA
ATOM     17  C   UNL     1      33.163 -18.241 -21.155  0.00  0.00    +0.134 C 
ATOM     18  C   UNL     1      35.274 -17.620 -21.050  0.00  0.00    +0.220 C 
ATOM     19  C   UNL     1      33.973 -19.277 -20.751  0.00  0.00    +0.054 C 
ATOM     20  C   UNL     1      33.587 -20.655 -20.410  0.00  0.00    +0.049 C 
ENDBRANCH  12  15
BRANCH  13  21
ATOM     21  O   UNL     1      35.250 -15.965 -23.549  0.00  0.00    -0.470 OA
ATOM     22  C   UNL     1      34.846 -16.660 -24.727  0.00  0.00    +0.253 C 
ENDBRANCH  13  21
ENDBRANCH   8   9
BRANCH   2  23
ATOM     23  C   UNL     1      31.378  -7.269 -22.402  0.00  0.00    +0.098 C 
ATOM     24  C   UNL     1      31.303  -6.278 -21.238  0.00  0.00    +0.026 C 
BRANCH  23  26
ATOM     25  F   UNL     1      34.961  -5.549 -26.377  0.00  0.00    -0.204 F 
ATOM     26  C   UNL     1      32.345  -6.805 -23.475  0.00  0.00    -0.004 C 
ATOM     27  C   UNL     1      33.670  -7.193 -23.399  0.00  0.00    -0.000 C 
ATOM     28  C   UNL     1      31.877  -6.006 -24.501  0.00  0.00    -0.000 C 
ATOM     29  C   UNL     1      34.559  -6.766 -24.385  0.00  0.00    +0.029 C 
ATOM     30  C   UNL     1      32.766  -5.580 -25.488  0.00  0.00    +0.029 C 
ATOM     31  C   UNL     1      34.107  -5.959 -25.430  0.00  0.00    +0.140 C 
ENDBRANCH  23  26
ENDBRANCH   2  23
TORSDOF 5
ENDMDL
MODEL 8
REMARK VINA RESULT:      -9.9      4.720     11.436
REMARK  Name = 11560787
REMARK  5 active torsions:
REMARK  status: ('A' for Active; 'I' for Inactive)
REMARK    1  A    between atoms: N_2  and  C_23
REMARK    2  A    between atoms: C_8  and  C_9
REMARK    3  A    between atoms: C_12  and  N_15
REMARK    4  A    between atoms: C_13  and  O_21
REMARK    5  A    between atoms: C_23  and  C_26
REMARK                            x       y       z     vdW  Elec       q    Type
REMARK                         _______ _______ _______ _____ _____    ______ ____
ROOT
ATOM      1  O   UNL     1      30.098  -7.883 -23.571  0.00  0.00    -0.270 OA
ATOM      2  N   UNL     1      32.072  -6.674 -23.710  0.00  0.00    -0.274 N 
ATOM      3  C   UNL     1      33.533  -6.639 -23.728  0.00  0.00    +0.094 C 
ATOM      4  C   UNL     1      34.151  -7.702 -22.841  0.00  0.00    +0.026 C 
ATOM      5  C   UNL     1      33.612  -9.060 -23.249  0.00  0.00    +0.033 C 
ATOM      6  C   UNL     1      32.115  -9.073 -23.179  0.00  0.00    +0.031 C 
ATOM      7  C   UNL     1      31.327  -7.838 -23.505  0.00  0.00    +0.245 C 
ATOM      8  C   UNL     1      31.438 -10.168 -22.796  0.00  0.00    +0.000 C 
ENDROOT
BRANCH   8   9
ATOM      9  C   UNL     1      32.035 -11.463 -22.439  0.00  0.00    +0.003 C 
ATOM     10  C   UNL     1      32.769 -12.160 -23.387  0.00  0.00    +0.038 C 
ATOM     11  C   UNL     1      31.856 -11.965 -21.158  0.00  0.00    +0.001 C 
ATOM     12  C   UNL     1      33.163 -13.905 -21.763  0.00  0.00    +0.084 C 
ATOM     13  C   UNL     1      33.336 -13.388 -23.047  0.00  0.00    +0.152 C 
ATOM     14  C   UNL     1      32.423 -13.193 -20.818  0.00  0.00    +0.018 C 
BRANCH  12  15
ATOM     15  N   UNL     1      33.718 -15.123 -21.410  0.00  0.00    -0.280 N 
ATOM     16  N   UNL     1      35.037 -16.600 -20.390  0.00  0.00    -0.255 NA
ATOM     17  C   UNL     1      33.359 -16.354 -21.894  0.00  0.00    +0.134 C 
ATOM     18  C   UNL     1      34.731 -15.327 -20.509  0.00  0.00    +0.220 C 
ATOM     19  C   UNL     1      34.185 -17.246 -21.251  0.00  0.00    +0.054 C 
ATOM     20  C   UNL     1      34.232 -18.709 -21.393  0.00  0.00    +0.049 C 
ENDBRANCH  12  15
BRANCH  13  21
ATOM     21  O   UNL     1      34.055 -14.065 -23.987  0.00  0.00    -0.470 OA
ATOM     22  C   UNL     1      33.338 -14.566 -25.112  0.00  0.00    +0.253 C 
ENDBRANCH  13  21
ENDBRANCH   8   9
BRANCH   2  23
ATOM     23  C   UNL     1      31.398  -5.438 -24.087  0.00  0.00    +0.098 C 
ATOM     24  C   UNL     1      31.189  -4.572 -22.842  0.00  0.00    +0.026 C 
BRANCH  23  26
ATOM     25  F   UNL     1      34.222  -2.686 -28.092  0.00  0.00    -0.204 F 
ATOM     26  C   UNL     1      32.160  -4.695 -25.168  0.00  0.00    -0.004 C 
ATOM     27  C   UNL     1      32.995  -5.406 -26.010  0.00  0.00    -0.000 C 
ATOM     28  C   UNL     1      32.000  -3.327 -25.283  0.00  0.00    -0.000 C 
ATOM     29  C   UNL     1      33.696  -4.723 -27.005  0.00  0.00    +0.029 C 
ATOM     30  C   UNL     1      32.701  -2.644 -26.278  0.00  0.00    +0.029 C 
ATOM     31  C   UNL     1      33.548  -3.342 -27.138  0.00  0.00    +0.140 C 
ENDBRANCH  23  26
ENDBRANCH   2  23
TORSDOF 5
ENDMDL
