MODEL 1
REMARK VINA RESULT:      -7.7      0.000      0.000
REMARK  Name = 151172
REMARK  5 active torsions:
REMARK  status: ('A' for Active; 'I' for Inactive)
REMARK    1  A    between atoms: C_1  and  C_11
REMARK    2  A    between atoms: C_2  and  S_7
REMARK    3  A    between atoms: C_5  and  C_15
REMARK    4  A    between atoms: C_15  and  N_16
REMARK    5  A    between atoms: N_16  and  C_19
REMARK                            x       y       z     vdW  Elec       q    Type
REMARK                         _______ _______ _______ _____ _____    ______ ____
ROOT
ATOM      1  C   UNL     1      34.586 -17.237 -22.658  0.00  0.00    -0.005 C 
ATOM      2  C   UNL     1      33.913 -16.042 -22.408  0.00  0.00    +0.102 C 
ATOM      3  C   UNL     1      34.893 -17.605 -23.968  0.00  0.00    -0.003 C 
ATOM      4  C   UNL     1      33.547 -15.213 -23.469  0.00  0.00    +0.023 C 
ATOM      5  C   UNL     1      33.855 -15.580 -24.779  0.00  0.00    +0.057 C 
ATOM      6  C   UNL     1      34.527 -16.776 -25.028  0.00  0.00    +0.004 C 
ENDROOT
BRANCH   2   7
ATOM      7  S   UNL     1      33.511 -15.551 -20.777  0.00  0.00    +0.010 S 
ATOM      8  O   UNL     1      32.382 -16.357 -20.337  0.00  0.00    -0.169 OA
ATOM      9  O   UNL     1      34.730 -15.515 -19.984  0.00  0.00    -0.169 OA
ATOM     10  C   UNL     1      32.953 -13.872 -20.950  0.00  0.00    +0.182 C 
ENDBRANCH   2   7
BRANCH   1  11
ATOM     11  C   UNL     1      34.991 -18.148 -21.544  0.00  0.00    +0.024 C 
ATOM     12  C   UNL     1      36.452 -18.616 -21.673  0.00  0.00    +0.005 C 
ATOM     13  C   UNL     1      34.059 -19.366 -21.415  0.00  0.00    +0.005 C 
ENDBRANCH   1  11
BRANCH   5  15
ATOM     14  O   UNL     1      33.568 -15.113 -27.062  0.00  0.00    -0.268 OA
ATOM     15  C   UNL     1      33.472 -14.716 -25.885  0.00  0.00    +0.271 C 
BRANCH  15  16
ATOM     16  N   UNL     1      32.961 -13.463 -25.558  0.00  0.00    -0.143 NA
BRANCH  16  19
ATOM     17  N   UNL     1      34.177 -11.720 -24.427  0.00  0.00    -0.372 N 
ATOM     18  N   UNL     1      34.237 -11.884 -26.702  0.00  0.00    -0.372 N 
ATOM     19  C   UNL     1      33.747 -12.418 -25.532  0.00  0.00    +0.185 C 
ATOM     20  H   UNL     1      33.895 -12.001 -23.526  0.00  0.00    +0.159 HD
ATOM     21  H   UNL     1      34.764 -10.938 -24.537  0.00  0.00    +0.159 HD
ATOM     22  H   UNL     1      34.003 -12.294 -27.565  0.00  0.00    +0.159 HD
ATOM     23  H   UNL     1      34.821 -11.093 -26.674  0.00  0.00    +0.159 HD
ENDBRANCH  16  19
ENDBRANCH  15  16
ENDBRANCH   5  15
TORSDOF 5
ENDMDL
MODEL 2
REMARK VINA RESULT:      -7.5     12.425     13.508
REMARK  Name = 151172
REMARK  5 active torsions:
REMARK  status: ('A' for Active; 'I' for Inactive)
REMARK    1  A    between atoms: C_1  and  C_11
REMARK    2  A    between atoms: C_2  and  S_7
REMARK    3  A    between atoms: C_5  and  C_15
REMARK    4  A    between atoms: C_15  and  N_16
REMARK    5  A    between atoms: N_16  and  C_19
REMARK                            x       y       z     vdW  Elec       q    Type
REMARK                         _______ _______ _______ _____ _____    ______ ____
ROOT
ATOM      1  C   UNL     1      35.592 -24.132 -14.403  0.00  0.00    -0.005 C 
ATOM      2  C   UNL     1      35.014 -24.324 -13.149  0.00  0.00    +0.102 C 
ATOM      3  C   UNL     1      34.791 -23.819 -15.501  0.00  0.00    -0.003 C 
ATOM      4  C   UNL     1      33.633 -24.202 -12.992  0.00  0.00    +0.023 C 
ATOM      5  C   UNL     1      32.831 -23.889 -14.090  0.00  0.00    +0.057 C 
ATOM      6  C   UNL     1      33.410 -23.698 -15.344  0.00  0.00    +0.004 C 
ENDROOT
BRANCH   2   7
ATOM      7  S   UNL     1      35.990 -24.719 -11.751  0.00  0.00    +0.010 S 
ATOM      8  O   UNL     1      35.116 -24.729 -10.588  0.00  0.00    -0.169 OA
ATOM      9  O   UNL     1      36.801 -25.887 -12.060  0.00  0.00    -0.169 OA
ATOM     10  C   UNL     1      37.102 -23.341 -11.590  0.00  0.00    +0.182 C 
ENDBRANCH   2   7
BRANCH   1  11
ATOM     11  C   UNL     1      37.068 -24.256 -14.605  0.00  0.00    +0.024 C 
ATOM     12  C   UNL     1      37.625 -23.163 -15.535  0.00  0.00    +0.005 C 
ATOM     13  C   UNL     1      37.473 -25.646 -15.128  0.00  0.00    +0.005 C 
ENDBRANCH   1  11
BRANCH   5  15
ATOM     14  O   UNL     1      30.890 -23.657 -12.790  0.00  0.00    -0.268 OA
ATOM     15  C   UNL     1      31.391 -23.763 -13.926  0.00  0.00    +0.271 C 
BRANCH  15  16
ATOM     16  N   UNL     1      30.625 -23.725 -15.088  0.00  0.00    -0.143 NA
BRANCH  16  19
ATOM     17  N   UNL     1      29.142 -25.477 -14.361  0.00  0.00    -0.372 N 
ATOM     18  N   UNL     1      28.643 -24.229 -16.204  0.00  0.00    -0.372 N 
ATOM     19  C   UNL     1      29.540 -24.448 -15.184  0.00  0.00    +0.185 C 
ATOM     20  H   UNL     1      29.699 -25.735 -13.591  0.00  0.00    +0.159 HD
ATOM     21  H   UNL     1      28.302 -25.956 -14.543  0.00  0.00    +0.159 HD
ATOM     22  H   UNL     1      28.813 -23.518 -16.863  0.00  0.00    +0.159 HD
ATOM     23  H   UNL     1      27.833 -24.783 -16.275  0.00  0.00    +0.159 HD
ENDBRANCH  16  19
ENDBRANCH  15  16
ENDBRANCH   5  15
TORSDOF 5
ENDMDL
MODEL 3
REMARK VINA RESULT:      -7.5      2.452      4.224
REMARK  Name = 151172
REMARK  5 active torsions:
REMARK  status: ('A' for Active; 'I' for Inactive)
REMARK    1  A    between atoms: C_1  and  C_11
REMARK    2  A    between atoms: C_2  and  S_7
REMARK    3  A    between atoms: C_5  and  C_15
REMARK    4  A    between atoms: C_15  and  N_16
REMARK    5  A    between atoms: N_16  and  C_19
REMARK                            x       y       z     vdW  Elec       q    Type
REMARK                         _______ _______ _______ _____ _____    ______ ____
ROOT
ATOM      1  C   UNL     1      34.663 -16.899 -22.716  0.00  0.00    -0.005 C 
ATOM      2  C   UNL     1      34.035 -16.096 -23.667  0.00  0.00    +0.102 C 
ATOM      3  C   UNL     1      34.599 -16.560 -21.365  0.00  0.00    -0.003 C 
ATOM      4  C   UNL     1      33.340 -14.954 -23.267  0.00  0.00    +0.023 C 
ATOM      5  C   UNL     1      33.275 -14.616 -21.915  0.00  0.00    +0.057 C 
ATOM      6  C   UNL     1      33.905 -15.419 -20.964  0.00  0.00    +0.004 C 
ENDROOT
BRANCH   2   7
ATOM      7  S   UNL     1      34.097 -16.490 -25.371  0.00  0.00    +0.010 S 
ATOM      8  O   UNL     1      35.475 -16.332 -25.813  0.00  0.00    -0.169 OA
ATOM      9  O   UNL     1      33.407 -17.753 -25.586  0.00  0.00    -0.169 OA
ATOM     10  C   UNL     1      33.122 -15.224 -26.150  0.00  0.00    +0.182 C 
ENDBRANCH   2   7
BRANCH   1  11
ATOM     11  C   UNL     1      35.416 -18.127 -23.112  0.00  0.00    +0.024 C 
ATOM     12  C   UNL     1      34.576 -19.407 -22.949  0.00  0.00    +0.005 C 
ATOM     13  C   UNL     1      36.746 -18.271 -22.350  0.00  0.00    +0.005 C 
ENDBRANCH   1  11
BRANCH   5  15
ATOM     14  O   UNL     1      32.303 -13.224 -20.293  0.00  0.00    -0.268 OA
ATOM     15  C   UNL     1      32.551 -13.425 -21.497  0.00  0.00    +0.271 C 
BRANCH  15  16
ATOM     16  N   UNL     1      32.199 -12.519 -22.495  0.00  0.00    -0.143 NA
BRANCH  16  19
ATOM     17  N   UNL     1      31.929 -10.127 -22.516  0.00  0.00    -0.372 N 
ATOM     18  N   UNL     1      30.416 -11.453 -21.440  0.00  0.00    -0.372 N 
ATOM     19  C   UNL     1      31.571 -11.414 -22.188  0.00  0.00    +0.185 C 
ATOM     20  H   UNL     1      32.740  -9.963 -23.051  0.00  0.00    +0.159 HD
ATOM     21  H   UNL     1      31.376  -9.370 -22.216  0.00  0.00    +0.159 HD
ATOM     22  H   UNL     1      30.053 -12.317 -21.140  0.00  0.00    +0.159 HD
ATOM     23  H   UNL     1      29.954 -10.616 -21.205  0.00  0.00    +0.159 HD
ENDBRANCH  16  19
ENDBRANCH  15  16
ENDBRANCH   5  15
TORSDOF 5
ENDMDL
MODEL 4
REMARK VINA RESULT:      -7.5     10.383     13.000
REMARK  Name = 151172
REMARK  5 active torsions:
REMARK  status: ('A' for Active; 'I' for Inactive)
REMARK    1  A    between atoms: C_1  and  C_11
REMARK    2  A    between atoms: C_2  and  S_7
REMARK    3  A    between atoms: C_5  and  C_15
REMARK    4  A    between atoms: C_15  and  N_16
REMARK    5  A    between atoms: N_16  and  C_19
REMARK                            x       y       z     vdW  Elec       q    Type
REMARK                         _______ _______ _______ _____ _____    ______ ____
ROOT
ATOM      1  C   UNL     1      32.698 -23.581 -15.377  0.00  0.00    -0.005 C 
ATOM      2  C   UNL     1      33.777 -23.383 -16.237  0.00  0.00    +0.102 C 
ATOM      3  C   UNL     1      32.922 -23.854 -14.027  0.00  0.00    -0.003 C 
ATOM      4  C   UNL     1      35.082 -23.456 -15.748  0.00  0.00    +0.023 C 
ATOM      5  C   UNL     1      35.307 -23.728 -14.398  0.00  0.00    +0.057 C 
ATOM      6  C   UNL     1      34.227 -23.927 -13.538  0.00  0.00    +0.004 C 
ENDROOT
BRANCH   2   7
ATOM      7  S   UNL     1      33.532 -23.042 -17.936  0.00  0.00    +0.010 S 
ATOM      8  O   UNL     1      33.574 -24.307 -18.654  0.00  0.00    -0.169 OA
ATOM      9  O   UNL     1      32.379 -22.166 -18.077  0.00  0.00    -0.169 OA
ATOM     10  C   UNL     1      34.963 -22.098 -18.404  0.00  0.00    +0.182 C 
ENDBRANCH   2   7
BRANCH   1  11
ATOM     11  C   UNL     1      31.289 -23.511 -15.869  0.00  0.00    +0.024 C 
ATOM     12  C   UNL     1      30.458 -22.455 -15.118  0.00  0.00    +0.005 C 
ATOM     13  C   UNL     1      30.579 -24.876 -15.811  0.00  0.00    +0.005 C 
ENDBRANCH   1  11
BRANCH   5  15
ATOM     14  O   UNL     1      37.531 -22.989 -14.262  0.00  0.00    -0.268 OA
ATOM     15  C   UNL     1      36.667 -23.805 -13.888  0.00  0.00    +0.271 C 
BRANCH  15  16
ATOM     16  N   UNL     1      36.931 -24.795 -12.945  0.00  0.00    -0.143 NA
BRANCH  16  19
ATOM     17  N   UNL     1      37.037 -27.100 -13.632  0.00  0.00    -0.372 N 
ATOM     18  N   UNL     1      38.949 -25.891 -13.340  0.00  0.00    -0.372 N 
ATOM     19  C   UNL     1      37.574 -25.879 -13.293  0.00  0.00    +0.185 C 
ATOM     20  H   UNL     1      36.059 -27.224 -13.637  0.00  0.00    +0.159 HD
ATOM     21  H   UNL     1      37.629 -27.850 -13.868  0.00  0.00    +0.159 HD
ATOM     22  H   UNL     1      39.455 -25.076 -13.118  0.00  0.00    +0.159 HD
ATOM     23  H   UNL     1      39.425 -26.714 -13.594  0.00  0.00    +0.159 HD
ENDBRANCH  16  19
ENDBRANCH  15  16
ENDBRANCH   5  15
TORSDOF 5
ENDMDL
MODEL 5
REMARK VINA RESULT:      -7.3      7.768     10.154
REMARK  Name = 151172
REMARK  5 active torsions:
REMARK  status: ('A' for Active; 'I' for Inactive)
REMARK    1  A    between atoms: C_1  and  C_11
REMARK    2  A    between atoms: C_2  and  S_7
REMARK    3  A    between atoms: C_5  and  C_15
REMARK    4  A    between atoms: C_15  and  N_16
REMARK    5  A    between atoms: N_16  and  C_19
REMARK                            x       y       z     vdW  Elec       q    Type
REMARK                         _______ _______ _______ _____ _____    ______ ____
ROOT
ATOM      1  C   UNL     1      32.053 -23.390 -15.208  0.00  0.00    -0.005 C 
ATOM      2  C   UNL     1      31.236 -23.007 -16.271  0.00  0.00    +0.102 C 
ATOM      3  C   UNL     1      33.434 -23.478 -15.385  0.00  0.00    -0.003 C 
ATOM      4  C   UNL     1      31.800 -22.711 -17.512  0.00  0.00    +0.023 C 
ATOM      5  C   UNL     1      33.181 -22.798 -17.690  0.00  0.00    +0.057 C 
ATOM      6  C   UNL     1      33.998 -23.182 -16.626  0.00  0.00    +0.004 C 
ENDROOT
BRANCH   2   7
ATOM      7  S   UNL     1      29.500 -22.889 -16.083  0.00  0.00    +0.010 S 
ATOM      8  O   UNL     1      29.234 -22.311 -14.774  0.00  0.00    -0.169 OA
ATOM      9  O   UNL     1      28.940 -22.272 -17.276  0.00  0.00    -0.169 OA
ATOM     10  C   UNL     1      28.946 -24.578 -16.061  0.00  0.00    +0.182 C 
ENDBRANCH   2   7
BRANCH   1  11
ATOM     11  C   UNL     1      31.481 -23.714 -13.866  0.00  0.00    +0.024 C 
ATOM     12  C   UNL     1      32.162 -22.925 -12.733  0.00  0.00    +0.005 C 
ATOM     13  C   UNL     1      31.529 -25.222 -13.557  0.00  0.00    +0.005 C 
ENDBRANCH   1  11
BRANCH   5  15
ATOM     14  O   UNL     1      34.903 -22.911 -19.281  0.00  0.00    -0.268 OA
ATOM     15  C   UNL     1      33.768 -22.491 -18.984  0.00  0.00    +0.271 C 
BRANCH  15  16
ATOM     16  N   UNL     1      32.988 -21.753 -19.872  0.00  0.00    -0.143 NA
BRANCH  16  19
ATOM     17  N   UNL     1      32.596 -19.507 -20.645  0.00  0.00    -0.372 N 
ATOM     18  N   UNL     1      34.724 -20.277 -20.356  0.00  0.00    -0.372 N 
ATOM     19  C   UNL     1      33.383 -20.571 -20.267  0.00  0.00    +0.185 C 
ATOM     20  H   UNL     1      31.615 -19.590 -20.627  0.00  0.00    +0.159 HD
ATOM     21  H   UNL     1      33.014 -18.665 -20.935  0.00  0.00    +0.159 HD
ATOM     22  H   UNL     1      35.394 -20.956 -20.113  0.00  0.00    +0.159 HD
ATOM     23  H   UNL     1      35.013 -19.388 -20.664  0.00  0.00    +0.159 HD
ENDBRANCH  16  19
ENDBRANCH  15  16
ENDBRANCH   5  15
TORSDOF 5
ENDMDL
MODEL 6
REMARK VINA RESULT:      -7.3      8.048     10.320
REMARK  Name = 151172
REMARK  5 active torsions:
REMARK  status: ('A' for Active; 'I' for Inactive)
REMARK    1  A    between atoms: C_1  and  C_11
REMARK    2  A    between atoms: C_2  and  S_7
REMARK    3  A    between atoms: C_5  and  C_15
REMARK    4  A    between atoms: C_15  and  N_16
REMARK    5  A    between atoms: N_16  and  C_19
REMARK                            x       y       z     vdW  Elec       q    Type
REMARK                         _______ _______ _______ _____ _____    ______ ____
ROOT
ATOM      1  C   UNL     1      32.877 -23.562 -15.196  0.00  0.00    -0.005 C 
ATOM      2  C   UNL     1      34.215 -23.576 -15.586  0.00  0.00    +0.102 C 
ATOM      3  C   UNL     1      31.890 -23.173 -16.101  0.00  0.00    -0.003 C 
ATOM      4  C   UNL     1      34.568 -23.203 -16.884  0.00  0.00    +0.023 C 
ATOM      5  C   UNL     1      33.581 -22.814 -17.790  0.00  0.00    +0.057 C 
ATOM      6  C   UNL     1      32.242 -22.799 -17.399  0.00  0.00    +0.004 C 
ENDROOT
BRANCH   2   7
ATOM      7  S   UNL     1      35.479 -24.057 -14.475  0.00  0.00    +0.010 S 
ATOM      8  O   UNL     1      35.254 -23.357 -13.218  0.00  0.00    -0.169 OA
ATOM      9  O   UNL     1      35.589 -25.507 -14.488  0.00  0.00    -0.169 OA
ATOM     10  C   UNL     1      36.969 -23.415 -15.201  0.00  0.00    +0.182 C 
ENDBRANCH   2   7
BRANCH   1  11
ATOM     11  C   UNL     1      32.467 -23.955 -13.814  0.00  0.00    +0.024 C 
ATOM     12  C   UNL     1      31.672 -25.273 -13.792  0.00  0.00    +0.005 C 
ATOM     13  C   UNL     1      31.666 -22.848 -13.103  0.00  0.00    +0.005 C 
ENDBRANCH   1  11
BRANCH   5  15
ATOM     14  O   UNL     1      35.057 -22.741 -19.614  0.00  0.00    -0.268 OA
ATOM     15  C   UNL     1      33.948 -22.424 -19.142  0.00  0.00    +0.271 C 
BRANCH  15  16
ATOM     16  N   UNL     1      32.993 -21.728 -19.879  0.00  0.00    -0.143 NA
BRANCH  16  19
ATOM     17  N   UNL     1      34.484 -19.980 -20.598  0.00  0.00    -0.372 N 
ATOM     18  N   UNL     1      32.231 -19.630 -20.545  0.00  0.00    -0.372 N 
ATOM     19  C   UNL     1      33.252 -20.524 -20.319  0.00  0.00    +0.185 C 
ATOM     20  H   UNL     1      35.300 -20.519 -20.477  0.00  0.00    +0.159 HD
ATOM     21  H   UNL     1      34.552 -19.052 -20.918  0.00  0.00    +0.159 HD
ATOM     22  H   UNL     1      31.298 -19.897 -20.383  0.00  0.00    +0.159 HD
ATOM     23  H   UNL     1      32.434 -18.722 -20.868  0.00  0.00    +0.159 HD
ENDBRANCH  16  19
ENDBRANCH  15  16
ENDBRANCH   5  15
TORSDOF 5
ENDMDL
MODEL 7
REMARK VINA RESULT:      -7.2      9.015     11.394
REMARK  Name = 151172
REMARK  5 active torsions:
REMARK  status: ('A' for Active; 'I' for Inactive)
REMARK    1  A    between atoms: C_1  and  C_11
REMARK    2  A    between atoms: C_2  and  S_7
REMARK    3  A    between atoms: C_5  and  C_15
REMARK    4  A    between atoms: C_15  and  N_16
REMARK    5  A    between atoms: N_16  and  C_19
REMARK                            x       y       z     vdW  Elec       q    Type
REMARK                         _______ _______ _______ _____ _____    ______ ____
ROOT
ATOM      1  C   UNL     1      33.811 -23.511 -15.758  0.00  0.00    -0.005 C 
ATOM      2  C   UNL     1      33.122 -23.192 -16.927  0.00  0.00    +0.102 C 
ATOM      3  C   UNL     1      33.108 -23.749 -14.577  0.00  0.00    -0.003 C 
ATOM      4  C   UNL     1      31.729 -23.112 -16.917  0.00  0.00    +0.023 C 
ATOM      5  C   UNL     1      31.026 -23.352 -15.736  0.00  0.00    +0.057 C 
ATOM      6  C   UNL     1      31.715 -23.670 -14.566  0.00  0.00    +0.004 C 
ENDROOT
BRANCH   2   7
ATOM      7  S   UNL     1      33.974 -22.885 -18.425  0.00  0.00    +0.010 S 
ATOM      8  O   UNL     1      35.295 -22.375 -18.089  0.00  0.00    -0.169 OA
ATOM      9  O   UNL     1      33.843 -24.050 -19.287  0.00  0.00    -0.169 OA
ATOM     10  C   UNL     1      33.055 -21.568 -19.188  0.00  0.00    +0.182 C 
ENDBRANCH   2   7
BRANCH   1  11
ATOM     11  C   UNL     1      35.302 -23.603 -15.734  0.00  0.00    +0.024 C 
ATOM     12  C   UNL     1      35.797 -24.952 -15.182  0.00  0.00    +0.005 C 
ATOM     13  C   UNL     1      35.949 -22.447 -14.950  0.00  0.00    +0.005 C 
ENDBRANCH   1  11
BRANCH   5  15
ATOM     14  O   UNL     1      28.898 -24.060 -15.043  0.00  0.00    -0.268 OA
ATOM     15  C   UNL     1      29.574 -23.267 -15.726  0.00  0.00    +0.271 C 
BRANCH  15  16
ATOM     16  N   UNL     1      28.996 -22.243 -16.472  0.00  0.00    -0.143 NA
BRANCH  16  19
ATOM     17  N   UNL     1      26.672 -22.093 -15.861  0.00  0.00    -0.372 N 
ATOM     18  N   UNL     1      27.277 -22.498 -18.023  0.00  0.00    -0.372 N 
ATOM     19  C   UNL     1      27.716 -22.266 -16.740  0.00  0.00    +0.185 C 
ATOM     20  H   UNL     1      26.853 -21.919 -14.909  0.00  0.00    +0.159 HD
ATOM     21  H   UNL     1      25.744 -22.142 -16.184  0.00  0.00    +0.159 HD
ATOM     22  H   UNL     1      27.928 -22.639 -18.748  0.00  0.00    +0.159 HD
ATOM     23  H   UNL     1      26.312 -22.523 -18.216  0.00  0.00    +0.159 HD
ENDBRANCH  16  19
ENDBRANCH  15  16
ENDBRANCH   5  15
TORSDOF 5
ENDMDL
MODEL 8
REMARK VINA RESULT:      -7.2      8.841     11.060
REMARK  Name = 151172
REMARK  5 active torsions:
REMARK  status: ('A' for Active; 'I' for Inactive)
REMARK    1  A    between atoms: C_1  and  C_11
REMARK    2  A    between atoms: C_2  and  S_7
REMARK    3  A    between atoms: C_5  and  C_15
REMARK    4  A    between atoms: C_15  and  N_16
REMARK    5  A    between atoms: N_16  and  C_19
REMARK                            x       y       z     vdW  Elec       q    Type
REMARK                         _______ _______ _______ _____ _____    ______ ____
ROOT
ATOM      1  C   UNL     1      35.923 -23.857 -14.107  0.00  0.00    -0.005 C 
ATOM      2  C   UNL     1      34.732 -23.596 -14.783  0.00  0.00    +0.102 C 
ATOM      3  C   UNL     1      37.143 -23.488 -14.674  0.00  0.00    -0.003 C 
ATOM      4  C   UNL     1      34.759 -22.964 -16.026  0.00  0.00    +0.023 C 
ATOM      5  C   UNL     1      35.979 -22.593 -16.593  0.00  0.00    +0.057 C 
ATOM      6  C   UNL     1      37.170 -22.855 -15.917  0.00  0.00    +0.004 C 
ENDROOT
BRANCH   2   7
ATOM      7  S   UNL     1      33.185 -24.049 -14.101  0.00  0.00    +0.010 S 
ATOM      8  O   UNL     1      33.048 -25.492 -14.230  0.00  0.00    -0.169 OA
ATOM      9  O   UNL     1      33.046 -23.421 -12.796  0.00  0.00    -0.169 OA
ATOM     10  C   UNL     1      31.993 -23.286 -15.176  0.00  0.00    +0.182 C 
ENDBRANCH   2   7
BRANCH   1  11
ATOM     11  C   UNL     1      35.929 -24.534 -12.775  0.00  0.00    +0.024 C 
ATOM     12  C   UNL     1      36.288 -23.570 -11.630  0.00  0.00    +0.005 C 
ATOM     13  C   UNL     1      36.863 -25.758 -12.742  0.00  0.00    +0.005 C 
ENDBRANCH   1  11
BRANCH   5  15
ATOM     14  O   UNL     1      36.783 -20.983 -18.101  0.00  0.00    -0.268 OA
ATOM     15  C   UNL     1      36.008 -21.935 -17.890  0.00  0.00    +0.271 C 
BRANCH  15  16
ATOM     16  N   UNL     1      35.167 -22.447 -18.876  0.00  0.00    -0.143 NA
BRANCH  16  19
ATOM     17  N   UNL     1      34.544 -20.543 -20.211  0.00  0.00    -0.372 N 
ATOM     18  N   UNL     1      32.948 -21.934 -19.363  0.00  0.00    -0.372 N 
ATOM     19  C   UNL     1      34.294 -21.671 -19.464  0.00  0.00    +0.185 C 
ATOM     20  H   UNL     1      35.472 -20.245 -20.358  0.00  0.00    +0.159 HD
ATOM     21  H   UNL     1      33.797 -20.033 -20.597  0.00  0.00    +0.159 HD
ATOM     22  H   UNL     1      32.636 -22.716 -18.853  0.00  0.00    +0.159 HD
ATOM     23  H   UNL     1      32.296 -21.341 -19.801  0.00  0.00    +0.159 HD
ENDBRANCH  16  19
ENDBRANCH  15  16
ENDBRANCH   5  15
TORSDOF 5
ENDMDL
MODEL 9
REMARK VINA RESULT:      -7.0      9.342     11.868
REMARK  Name = 151172
REMARK  5 active torsions:
REMARK  status: ('A' for Active; 'I' for Inactive)
REMARK    1  A    between atoms: C_1  and  C_11
REMARK    2  A    between atoms: C_2  and  S_7
REMARK    3  A    between atoms: C_5  and  C_15
REMARK    4  A    between atoms: C_15  and  N_16
REMARK    5  A    between atoms: N_16  and  C_19
REMARK                            x       y       z     vdW  Elec       q    Type
REMARK                         _______ _______ _______ _____ _____    ______ ____
ROOT
ATOM      1  C   UNL     1      35.972 -21.811 -18.064  0.00  0.00    -0.005 C 
ATOM      2  C   UNL     1      35.006 -22.573 -17.408  0.00  0.00    +0.102 C 
ATOM      3  C   UNL     1      37.193 -21.548 -17.444  0.00  0.00    -0.003 C 
ATOM      4  C   UNL     1      35.261 -23.073 -16.131  0.00  0.00    +0.023 C 
ATOM      5  C   UNL     1      36.483 -22.811 -15.511  0.00  0.00    +0.057 C 
ATOM      6  C   UNL     1      37.448 -22.048 -16.167  0.00  0.00    +0.004 C 
ENDROOT
BRANCH   2   7
ATOM      7  S   UNL     1      33.462 -22.920 -18.156  0.00  0.00    +0.010 S 
ATOM      8  O   UNL     1      32.974 -21.688 -18.759  0.00  0.00    -0.169 OA
ATOM      9  O   UNL     1      33.593 -24.122 -18.966  0.00  0.00    -0.169 OA
ATOM     10  C   UNL     1      32.396 -23.324 -16.793  0.00  0.00    +0.182 C 
ENDBRANCH   2   7
BRANCH   1  11
ATOM     11  C   UNL     1      35.729 -21.260 -19.432  0.00  0.00    +0.024 C 
ATOM     12  C   UNL     1      35.929 -22.316 -20.533  0.00  0.00    +0.005 C 
ATOM     13  C   UNL     1      36.597 -20.023 -19.728  0.00  0.00    +0.005 C 
ENDBRANCH   1  11
BRANCH   5  15
ATOM     14  O   UNL     1      35.921 -23.176 -13.261  0.00  0.00    -0.268 OA
ATOM     15  C   UNL     1      36.749 -23.332 -14.179  0.00  0.00    +0.271 C 
BRANCH  15  16
ATOM     16  N   UNL     1      37.936 -24.038 -14.003  0.00  0.00    -0.143 NA
BRANCH  16  19
ATOM     17  N   UNL     1      36.796 -26.105 -13.530  0.00  0.00    -0.372 N 
ATOM     18  N   UNL     1      39.076 -26.012 -13.522  0.00  0.00    -0.372 N 
ATOM     19  C   UNL     1      37.906 -25.312 -13.707  0.00  0.00    +0.185 C 
ATOM     20  H   UNL     1      35.895 -25.722 -13.634  0.00  0.00    +0.159 HD
ATOM     21  H   UNL     1      36.903 -27.056 -13.298  0.00  0.00    +0.159 HD
ATOM     22  H   UNL     1      39.943 -25.557 -13.621  0.00  0.00    +0.159 HD
ATOM     23  H   UNL     1      39.044 -26.969 -13.291  0.00  0.00    +0.159 HD
ENDBRANCH  16  19
ENDBRANCH  15  16
ENDBRANCH   5  15
TORSDOF 5
ENDMDL
