MODEL 1
REMARK VINA RESULT:      -6.9      0.000      0.000
REMARK  Name = 15950826
REMARK  3 active torsions:
REMARK  status: ('A' for Active; 'I' for Inactive)
REMARK    1  A    between atoms: C_3  and  N_9
REMARK    2  A    between atoms: C_3  and  N_12
REMARK    3  A    between atoms: C_6  and  C_14
REMARK                            x       y       z     vdW  Elec       q    Type
REMARK                         _______ _______ _______ _____ _____    ______ ____
ROOT
ATOM      1  O   UNL     1      34.968 -23.169 -16.498  0.00  0.00    -0.274 OA
ATOM      2  N   UNL     1      36.592 -23.929 -15.065  0.00  0.00    -0.270 N 
ATOM      3  C   UNL     1      37.396 -25.388 -13.876  0.00  0.00    +0.318 C 
ATOM      4  C   UNL     1      35.991 -25.066 -14.396  0.00  0.00    +0.151 C 
ATOM      5  C   UNL     1      37.841 -23.994 -14.334  0.00  0.00    +0.151 C 
ATOM      6  C   UNL     1      36.098 -23.085 -16.020  0.00  0.00    +0.237 C 
ENDROOT
BRANCH   3   9
ATOM      7  O   UNL     1      37.955 -24.645 -11.729  0.00  0.00    -0.129 OA
ATOM      8  O   UNL     1      36.967 -26.603 -11.928  0.00  0.00    -0.129 OA
ATOM      9  N   UNL     1      37.444 -25.556 -12.403  0.00  0.00    +0.060 N 
ENDBRANCH   3   9
BRANCH   3  12
ATOM     10  O   UNL     1      37.362 -27.141 -15.426  0.00  0.00    -0.129 OA
ATOM     11  O   UNL     1      39.267 -26.671 -14.428  0.00  0.00    -0.129 OA
ATOM     12  N   UNL     1      38.054 -26.479 -14.630  0.00  0.00    +0.060 N 
ENDBRANCH   3  12
BRANCH   6  14
ATOM     13 BR   UNL     1      36.567 -21.613 -18.282  0.00  0.00    -0.070 Br
ATOM     14  C   UNL     1      37.062 -22.017 -16.463  0.00  0.00    +0.152 C 
ENDBRANCH   6  14
TORSDOF 3
ENDMDL
MODEL 2
REMARK VINA RESULT:      -6.9      2.581      2.986
REMARK  Name = 15950826
REMARK  3 active torsions:
REMARK  status: ('A' for Active; 'I' for Inactive)
REMARK    1  A    between atoms: C_3  and  N_9
REMARK    2  A    between atoms: C_3  and  N_12
REMARK    3  A    between atoms: C_6  and  C_14
REMARK                            x       y       z     vdW  Elec       q    Type
REMARK                         _______ _______ _______ _____ _____    ______ ____
ROOT
ATOM      1  O   UNL     1      33.454 -24.360 -12.880  0.00  0.00    -0.274 OA
ATOM      2  N   UNL     1      35.397 -24.432 -14.100  0.00  0.00    -0.270 N 
ATOM      3  C   UNL     1      37.264 -25.189 -14.456  0.00  0.00    +0.318 C 
ATOM      4  C   UNL     1      36.356 -25.077 -13.226  0.00  0.00    +0.151 C 
ATOM      5  C   UNL     1      36.335 -24.209 -15.182  0.00  0.00    +0.151 C 
ATOM      6  C   UNL     1      34.080 -24.120 -13.912  0.00  0.00    +0.237 C 
ENDROOT
BRANCH   3   9
ATOM      7  O   UNL     1      39.288 -24.297 -15.220  0.00  0.00    -0.129 OA
ATOM      8  O   UNL     1      39.014 -24.544 -13.049  0.00  0.00    -0.129 OA
ATOM      9  N   UNL     1      38.622 -24.636 -14.226  0.00  0.00    +0.060 N 
ENDBRANCH   3   9
BRANCH   3  12
ATOM     10  O   UNL     1      36.352 -26.818 -15.866  0.00  0.00    -0.129 OA
ATOM     11  O   UNL     1      38.161 -27.329 -14.721  0.00  0.00    -0.129 OA
ATOM     12  N   UNL     1      37.257 -26.542 -15.057  0.00  0.00    +0.060 N 
ENDBRANCH   3  12
BRANCH   6  14
ATOM     13 BR   UNL     1      31.642 -23.017 -14.499  0.00  0.00    -0.070 Br
ATOM     14  C   UNL     1      33.426 -23.449 -15.089  0.00  0.00    +0.152 C 
ENDBRANCH   6  14
TORSDOF 3
ENDMDL
MODEL 3
REMARK VINA RESULT:      -6.9      2.690      3.230
REMARK  Name = 15950826
REMARK  3 active torsions:
REMARK  status: ('A' for Active; 'I' for Inactive)
REMARK    1  A    between atoms: C_3  and  N_9
REMARK    2  A    between atoms: C_3  and  N_12
REMARK    3  A    between atoms: C_6  and  C_14
REMARK                            x       y       z     vdW  Elec       q    Type
REMARK                         _______ _______ _______ _____ _____    ______ ____
ROOT
ATOM      1  O   UNL     1      32.609 -24.314 -13.158  0.00  0.00    -0.274 OA
ATOM      2  N   UNL     1      34.882 -24.013 -13.247  0.00  0.00    -0.270 N 
ATOM      3  C   UNL     1      36.761 -24.302 -12.489  0.00  0.00    +0.318 C 
ATOM      4  C   UNL     1      35.345 -24.301 -11.903  0.00  0.00    +0.151 C 
ATOM      5  C   UNL     1      36.192 -23.670 -13.764  0.00  0.00    +0.151 C 
ATOM      6  C   UNL     1      33.627 -24.029 -13.786  0.00  0.00    +0.237 C 
ENDROOT
BRANCH   3   9
ATOM      7  O   UNL     1      38.908 -23.639 -11.839  0.00  0.00    -0.129 OA
ATOM      8  O   UNL     1      37.193 -22.462 -11.117  0.00  0.00    -0.129 OA
ATOM      9  N   UNL     1      37.690 -23.403 -11.762  0.00  0.00    +0.060 N 
ENDBRANCH   3   9
BRANCH   3  12
ATOM     10  O   UNL     1      37.888 -25.895 -13.781  0.00  0.00    -0.129 OA
ATOM     11  O   UNL     1      37.116 -26.509 -11.813  0.00  0.00    -0.129 OA
ATOM     12  N   UNL     1      37.292 -25.666 -12.711  0.00  0.00    +0.060 N 
ENDBRANCH   3  12
BRANCH   6  14
ATOM     13 BR   UNL     1      31.708 -23.357 -15.623  0.00  0.00    -0.070 Br
ATOM     14  C   UNL     1      33.574 -23.668 -15.246  0.00  0.00    +0.152 C 
ENDBRANCH   6  14
TORSDOF 3
ENDMDL
MODEL 4
REMARK VINA RESULT:      -6.8      1.680      2.870
REMARK  Name = 15950826
REMARK  3 active torsions:
REMARK  status: ('A' for Active; 'I' for Inactive)
REMARK    1  A    between atoms: C_3  and  N_9
REMARK    2  A    between atoms: C_3  and  N_12
REMARK    3  A    between atoms: C_6  and  C_14
REMARK                            x       y       z     vdW  Elec       q    Type
REMARK                         _______ _______ _______ _____ _____    ______ ____
ROOT
ATOM      1  O   UNL     1      36.200 -22.742 -16.752  0.00  0.00    -0.274 OA
ATOM      2  N   UNL     1      36.294 -23.827 -14.731  0.00  0.00    -0.270 N 
ATOM      3  C   UNL     1      37.324 -24.457 -13.080  0.00  0.00    +0.318 C 
ATOM      4  C   UNL     1      37.704 -24.087 -14.518  0.00  0.00    +0.151 C 
ATOM      5  C   UNL     1      35.855 -24.484 -13.516  0.00  0.00    +0.151 C 
ATOM      6  C   UNL     1      35.641 -23.211 -15.761  0.00  0.00    +0.237 C 
ENDROOT
BRANCH   3   9
ATOM      7  O   UNL     1      37.187 -26.422 -11.816  0.00  0.00    -0.129 OA
ATOM      8  O   UNL     1      38.873 -26.201 -13.215  0.00  0.00    -0.129 OA
ATOM      9  N   UNL     1      37.831 -25.791 -12.673  0.00  0.00    +0.060 N 
ENDBRANCH   3   9
BRANCH   3  12
ATOM     10  O   UNL     1      36.666 -22.691 -11.694  0.00  0.00    -0.129 OA
ATOM     11  O   UNL     1      38.801 -23.221 -11.759  0.00  0.00    -0.129 OA
ATOM     12  N   UNL     1      37.617 -23.379 -12.109  0.00  0.00    +0.060 N 
ENDBRANCH   3  12
BRANCH   6  14
ATOM     13 BR   UNL     1      33.433 -23.223 -17.384  0.00  0.00    -0.070 Br
ATOM     14  C   UNL     1      34.147 -23.138 -15.595  0.00  0.00    +0.152 C 
ENDBRANCH   6  14
TORSDOF 3
ENDMDL
MODEL 5
REMARK VINA RESULT:      -6.6      1.385      1.959
REMARK  Name = 15950826
REMARK  3 active torsions:
REMARK  status: ('A' for Active; 'I' for Inactive)
REMARK    1  A    between atoms: C_3  and  N_9
REMARK    2  A    between atoms: C_3  and  N_12
REMARK    3  A    between atoms: C_6  and  C_14
REMARK                            x       y       z     vdW  Elec       q    Type
REMARK                         _______ _______ _______ _____ _____    ______ ____
ROOT
ATOM      1  O   UNL     1      35.183 -23.522 -16.346  0.00  0.00    -0.274 OA
ATOM      2  N   UNL     1      36.258 -23.780 -14.335  0.00  0.00    -0.270 N 
ATOM      3  C   UNL     1      36.584 -24.802 -12.593  0.00  0.00    +0.318 C 
ATOM      4  C   UNL     1      35.419 -24.691 -13.582  0.00  0.00    +0.151 C 
ATOM      5  C   UNL     1      37.227 -23.590 -13.274  0.00  0.00    +0.151 C 
ATOM      6  C   UNL     1      36.122 -23.267 -15.594  0.00  0.00    +0.237 C 
ENDROOT
BRANCH   3   9
ATOM      7  O   UNL     1      35.213 -25.165 -10.731  0.00  0.00    -0.129 OA
ATOM      8  O   UNL     1      36.838 -23.688 -10.556  0.00  0.00    -0.129 OA
ATOM      9  N   UNL     1      36.181 -24.533 -11.191  0.00  0.00    +0.060 N 
ENDBRANCH   3   9
BRANCH   3  12
ATOM     10  O   UNL     1      38.339 -26.234 -12.007  0.00  0.00    -0.129 OA
ATOM     11  O   UNL     1      37.017 -26.834 -13.661  0.00  0.00    -0.129 OA
ATOM     12  N   UNL     1      37.370 -26.045 -12.766  0.00  0.00    +0.060 N 
ENDBRANCH   3  12
BRANCH   6  14
ATOM     13 BR   UNL     1      36.717 -21.681 -17.748  0.00  0.00    -0.070 Br
ATOM     14  C   UNL     1      37.236 -22.345 -16.013  0.00  0.00    +0.152 C 
ENDBRANCH   6  14
TORSDOF 3
ENDMDL
MODEL 6
REMARK VINA RESULT:      -6.5      2.339      3.479
REMARK  Name = 15950826
REMARK  3 active torsions:
REMARK  status: ('A' for Active; 'I' for Inactive)
REMARK    1  A    between atoms: C_3  and  N_9
REMARK    2  A    between atoms: C_3  and  N_12
REMARK    3  A    between atoms: C_6  and  C_14
REMARK                            x       y       z     vdW  Elec       q    Type
REMARK                         _______ _______ _______ _____ _____    ______ ____
ROOT
ATOM      1  O   UNL     1      34.504 -22.656 -15.436  0.00  0.00    -0.274 OA
ATOM      2  N   UNL     1      35.866 -24.006 -14.175  0.00  0.00    -0.270 N 
ATOM      3  C   UNL     1      37.632 -24.371 -13.208  0.00  0.00    +0.318 C 
ATOM      4  C   UNL     1      37.198 -23.469 -14.368  0.00  0.00    +0.151 C 
ATOM      5  C   UNL     1      36.290 -25.102 -13.326  0.00  0.00    +0.151 C 
ATOM      6  C   UNL     1      34.658 -23.611 -14.677  0.00  0.00    +0.237 C 
ENDROOT
BRANCH   3   9
ATOM      7  O   UNL     1      39.904 -24.688 -13.667  0.00  0.00    -0.129 OA
ATOM      8  O   UNL     1      38.583 -26.450 -13.685  0.00  0.00    -0.129 OA
ATOM      9  N   UNL     1      38.792 -25.231 -13.545  0.00  0.00    +0.060 N 
ENDBRANCH   3   9
BRANCH   3  12
ATOM     10  O   UNL     1      38.217 -22.473 -11.970  0.00  0.00    -0.129 OA
ATOM     11  O   UNL     1      37.446 -24.226 -10.884  0.00  0.00    -0.129 OA
ATOM     12  N   UNL     1      37.777 -23.637 -11.930  0.00  0.00    +0.060 N 
ENDBRANCH   3  12
BRANCH   6  14
ATOM     13 BR   UNL     1      31.980 -23.251 -14.224  0.00  0.00    -0.070 Br
ATOM     14  C   UNL     1      33.493 -24.447 -14.219  0.00  0.00    +0.152 C 
ENDBRANCH   6  14
TORSDOF 3
ENDMDL
MODEL 7
REMARK VINA RESULT:      -6.2      7.537     10.565
REMARK  Name = 15950826
REMARK  3 active torsions:
REMARK  status: ('A' for Active; 'I' for Inactive)
REMARK    1  A    between atoms: C_3  and  N_9
REMARK    2  A    between atoms: C_3  and  N_12
REMARK    3  A    between atoms: C_6  and  C_14
REMARK                            x       y       z     vdW  Elec       q    Type
REMARK                         _______ _______ _______ _____ _____    ______ ____
ROOT
ATOM      1  O   UNL     1      34.404 -21.403 -20.033  0.00  0.00    -0.274 OA
ATOM      2  N   UNL     1      35.167 -19.466 -21.000  0.00  0.00    -0.270 N 
ATOM      3  C   UNL     1      34.835 -17.663 -21.908  0.00  0.00    +0.318 C 
ATOM      4  C   UNL     1      34.039 -18.964 -21.758  0.00  0.00    +0.151 C 
ATOM      5  C   UNL     1      36.074 -18.409 -21.401  0.00  0.00    +0.151 C 
ATOM      6  C   UNL     1      35.300 -20.582 -20.223  0.00  0.00    +0.237 C 
ENDROOT
BRANCH   3   9
ATOM      7  O   UNL     1      34.651 -18.028 -24.212  0.00  0.00    -0.129 OA
ATOM      8  O   UNL     1      35.375 -16.065 -23.525  0.00  0.00    -0.129 OA
ATOM      9  N   UNL     1      34.963 -17.221 -23.319  0.00  0.00    +0.060 N 
ENDBRANCH   3   9
BRANCH   3  12
ATOM     10  O   UNL     1      35.187 -16.192 -20.122  0.00  0.00    -0.129 OA
ATOM     11  O   UNL     1      33.223 -16.170 -21.116  0.00  0.00    -0.129 OA
ATOM     12  N   UNL     1      34.383 -16.600 -20.982  0.00  0.00    +0.060 N 
ENDBRANCH   3  12
BRANCH   6  14
ATOM     13 BR   UNL     1      36.354 -21.776 -17.993  0.00  0.00    -0.070 Br
ATOM     14  C   UNL     1      36.658 -20.740 -19.591  0.00  0.00    +0.152 C 
ENDBRANCH   6  14
TORSDOF 3
ENDMDL
MODEL 8
REMARK VINA RESULT:      -5.8      8.363      9.736
REMARK  Name = 15950826
REMARK  3 active torsions:
REMARK  status: ('A' for Active; 'I' for Inactive)
REMARK    1  A    between atoms: C_3  and  N_9
REMARK    2  A    between atoms: C_3  and  N_12
REMARK    3  A    between atoms: C_6  and  C_14
REMARK                            x       y       z     vdW  Elec       q    Type
REMARK                         _______ _______ _______ _____ _____    ______ ____
ROOT
ATOM      1  O   UNL     1      35.043 -17.388 -24.615  0.00  0.00    -0.274 OA
ATOM      2  N   UNL     1      34.613 -18.129 -22.485  0.00  0.00    -0.270 N 
ATOM      3  C   UNL     1      34.543 -19.619 -21.085  0.00  0.00    +0.318 C 
ATOM      4  C   UNL     1      34.484 -19.567 -22.615  0.00  0.00    +0.151 C 
ATOM      5  C   UNL     1      34.331 -18.100 -21.064  0.00  0.00    +0.151 C 
ATOM      6  C   UNL     1      34.869 -17.163 -23.418  0.00  0.00    +0.237 C 
ENDROOT
BRANCH   3   9
ATOM      7  O   UNL     1      32.315 -20.332 -21.070  0.00  0.00    -0.129 OA
ATOM      8  O   UNL     1      33.630 -20.995 -19.433  0.00  0.00    -0.129 OA
ATOM      9  N   UNL     1      33.413 -20.369 -20.486  0.00  0.00    +0.060 N 
ENDBRANCH   3   9
BRANCH   3  12
ATOM     10  O   UNL     1      36.167 -21.231 -20.594  0.00  0.00    -0.129 OA
ATOM     11  O   UNL     1      36.625 -19.124 -20.149  0.00  0.00    -0.129 OA
ATOM     12  N   UNL     1      35.873 -20.021 -20.572  0.00  0.00    +0.060 N 
ENDBRANCH   3  12
BRANCH   6  14
ATOM     13 BR   UNL     1      33.623 -14.765 -23.868  0.00  0.00    -0.070 Br
ATOM     14  C   UNL     1      34.930 -15.766 -22.864  0.00  0.00    +0.152 C 
ENDBRANCH   6  14
TORSDOF 3
ENDMDL
MODEL 9
REMARK VINA RESULT:      -5.8      7.724     10.596
REMARK  Name = 15950826
REMARK  3 active torsions:
REMARK  status: ('A' for Active; 'I' for Inactive)
REMARK    1  A    between atoms: C_3  and  N_9
REMARK    2  A    between atoms: C_3  and  N_12
REMARK    3  A    between atoms: C_6  and  C_14
REMARK                            x       y       z     vdW  Elec       q    Type
REMARK                         _______ _______ _______ _____ _____    ______ ____
ROOT
ATOM      1  O   UNL     1      35.897 -21.180 -19.952  0.00  0.00    -0.274 OA
ATOM      2  N   UNL     1      34.895 -19.392 -20.985  0.00  0.00    -0.270 N 
ATOM      3  C   UNL     1      34.917 -17.863 -22.345  0.00  0.00    +0.318 C 
ATOM      4  C   UNL     1      35.988 -18.655 -21.588  0.00  0.00    +0.151 C 
ATOM      5  C   UNL     1      33.865 -18.463 -21.404  0.00  0.00    +0.151 C 
ATOM      6  C   UNL     1      34.888 -20.541 -20.246  0.00  0.00    +0.237 C 
ENDROOT
BRANCH   3   9
ATOM      7  O   UNL     1      34.837 -15.903 -21.070  0.00  0.00    -0.129 OA
ATOM      8  O   UNL     1      35.406 -15.742 -23.191  0.00  0.00    -0.129 OA
ATOM      9  N   UNL     1      35.063 -16.395 -22.189  0.00  0.00    +0.060 N 
ENDBRANCH   3   9
BRANCH   3  12
ATOM     10  O   UNL     1      34.155 -17.551 -24.536  0.00  0.00    -0.129 OA
ATOM     11  O   UNL     1      35.228 -19.415 -24.063  0.00  0.00    -0.129 OA
ATOM     12  N   UNL     1      34.753 -18.307 -23.748  0.00  0.00    +0.060 N 
ENDBRANCH   3  12
BRANCH   6  14
ATOM     13 BR   UNL     1      33.828 -22.506 -18.658  0.00  0.00    -0.070 Br
ATOM     14  C   UNL     1      33.520 -20.987 -19.805  0.00  0.00    +0.152 C 
ENDBRANCH   6  14
TORSDOF 3
ENDMDL
