MODEL 1
REMARK VINA RESULT:      -7.2      0.000      0.000
REMARK  Name = 1893
REMARK  1 active torsions:
REMARK  status: ('A' for Active; 'I' for Inactive)
REMARK    1  A    between atoms: C_5  and  N_13
REMARK                            x       y       z     vdW  Elec       q    Type
REMARK                         _______ _______ _______ _____ _____    ______ ____
ROOT
ATOM      1  N   UNL     1      36.647 -20.470 -20.045  0.00  0.00    -0.234 N 
ATOM      2  N   UNL     1      37.259 -19.451 -20.672  0.00  0.00    -0.180 NA
ATOM      3  C   UNL     1      35.283 -20.454 -20.148  0.00  0.00    +0.089 C 
ATOM      4  C   UNL     1      34.987 -19.327 -20.906  0.00  0.00    +0.037 C 
ATOM      5  C   UNL     1      34.303 -21.315 -19.649  0.00  0.00    +0.158 C 
ATOM      6  C   UNL     1      33.645 -19.024 -21.195  0.00  0.00    +0.003 C 
ATOM      7  C   UNL     1      32.973 -21.001 -19.945  0.00  0.00    +0.025 C 
ATOM      8  C   UNL     1      36.246 -18.758 -21.195  0.00  0.00    +0.119 C 
ATOM      9  C   UNL     1      32.647 -19.876 -20.704  0.00  0.00    +0.002 C 
ATOM     10  H   UNL     1      37.139 -21.168 -19.554  0.00  0.00    +0.174 HD
ENDROOT
BRANCH   5  13
ATOM     11  O   UNL     1      33.931 -23.523 -19.094  0.00  0.00    -0.126 OA
ATOM     12  O   UNL     1      35.464 -22.410 -17.985  0.00  0.00    -0.126 OA
ATOM     13  N   UNL     1      34.580 -22.473 -18.871  0.00  0.00    +0.059 N 
ENDBRANCH   5  13
TORSDOF 1
ENDMDL
MODEL 2
REMARK VINA RESULT:      -7.1      1.963      2.787
REMARK  Name = 1893
REMARK  1 active torsions:
REMARK  status: ('A' for Active; 'I' for Inactive)
REMARK    1  A    between atoms: C_5  and  N_13
REMARK                            x       y       z     vdW  Elec       q    Type
REMARK                         _______ _______ _______ _____ _____    ______ ____
ROOT
ATOM      1  N   UNL     1      32.803 -21.063 -19.929  0.00  0.00    -0.234 N 
ATOM      2  N   UNL     1      32.370 -20.155 -20.819  0.00  0.00    -0.180 NA
ATOM      3  C   UNL     1      34.160 -21.078 -19.757  0.00  0.00    +0.089 C 
ATOM      4  C   UNL     1      34.647 -20.094 -20.609  0.00  0.00    +0.037 C 
ATOM      5  C   UNL     1      34.985 -21.856 -18.940  0.00  0.00    +0.158 C 
ATOM      6  C   UNL     1      36.031 -19.856 -20.667  0.00  0.00    +0.003 C 
ATOM      7  C   UNL     1      36.360 -21.607 -19.010  0.00  0.00    +0.025 C 
ATOM      8  C   UNL     1      33.495 -19.567 -21.231  0.00  0.00    +0.119 C 
ATOM      9  C   UNL     1      36.876 -20.625 -19.857  0.00  0.00    +0.002 C 
ATOM     10  H   UNL     1      32.195 -21.666 -19.442  0.00  0.00    +0.174 HD
ENDROOT
BRANCH   5  13
ATOM     11  O   UNL     1      33.589 -23.623 -18.446  0.00  0.00    -0.126 OA
ATOM     12  O   UNL     1      35.031 -22.973 -16.924  0.00  0.00    -0.126 OA
ATOM     13  N   UNL     1      34.512 -22.867 -18.061  0.00  0.00    +0.059 N 
ENDBRANCH   5  13
TORSDOF 1
ENDMDL
MODEL 3
REMARK VINA RESULT:      -7.1      4.923      5.790
REMARK  Name = 1893
REMARK  1 active torsions:
REMARK  status: ('A' for Active; 'I' for Inactive)
REMARK    1  A    between atoms: C_5  and  N_13
REMARK                            x       y       z     vdW  Elec       q    Type
REMARK                         _______ _______ _______ _____ _____    ______ ____
ROOT
ATOM      1  N   UNL     1      34.460 -16.228 -24.470  0.00  0.00    -0.234 N 
ATOM      2  N   UNL     1      34.383 -16.950 -25.600  0.00  0.00    -0.180 NA
ATOM      3  C   UNL     1      34.654 -16.973 -23.340  0.00  0.00    +0.089 C 
ATOM      4  C   UNL     1      34.708 -18.292 -23.775  0.00  0.00    +0.037 C 
ATOM      5  C   UNL     1      34.784 -16.609 -21.997  0.00  0.00    +0.158 C 
ATOM      6  C   UNL     1      34.902 -19.321 -22.837  0.00  0.00    +0.003 C 
ATOM      7  C   UNL     1      34.976 -17.643 -21.076  0.00  0.00    +0.025 C 
ATOM      8  C   UNL     1      34.535 -18.206 -25.174  0.00  0.00    +0.119 C 
ATOM      9  C   UNL     1      35.035 -18.976 -21.486  0.00  0.00    +0.002 C 
ATOM     10  H   UNL     1      34.382 -15.246 -24.457  0.00  0.00    +0.174 HD
ENDROOT
BRANCH   5  13
ATOM     11  O   UNL     1      34.529 -14.345 -22.348  0.00  0.00    -0.126 OA
ATOM     12  O   UNL     1      34.891 -15.050 -20.301  0.00  0.00    -0.126 OA
ATOM     13  N   UNL     1      34.732 -15.269 -21.526  0.00  0.00    +0.059 N 
ENDBRANCH   5  13
TORSDOF 1
ENDMDL
MODEL 4
REMARK VINA RESULT:      -7.0      5.627      6.455
REMARK  Name = 1893
REMARK  1 active torsions:
REMARK  status: ('A' for Active; 'I' for Inactive)
REMARK    1  A    between atoms: C_5  and  N_13
REMARK                            x       y       z     vdW  Elec       q    Type
REMARK                         _______ _______ _______ _____ _____    ______ ____
ROOT
ATOM      1  N   UNL     1      34.567 -15.665 -22.133  0.00  0.00    -0.234 N 
ATOM      2  N   UNL     1      34.938 -16.054 -20.902  0.00  0.00    -0.180 NA
ATOM      3  C   UNL     1      34.563 -16.670 -23.061  0.00  0.00    +0.089 C 
ATOM      4  C   UNL     1      34.966 -17.807 -22.372  0.00  0.00    +0.037 C 
ATOM      5  C   UNL     1      34.245 -16.677 -24.422  0.00  0.00    +0.158 C 
ATOM      6  C   UNL     1      35.065 -19.030 -23.057  0.00  0.00    +0.003 C 
ATOM      7  C   UNL     1      34.349 -17.901 -25.090  0.00  0.00    +0.025 C 
ATOM      8  C   UNL     1      35.180 -17.358 -21.051  0.00  0.00    +0.119 C 
ATOM      9  C   UNL     1      34.752 -19.059 -24.422  0.00  0.00    +0.002 C 
ATOM     10  H   UNL     1      34.319 -14.736 -22.348  0.00  0.00    +0.174 HD
ENDROOT
BRANCH   5  13
ATOM     11  O   UNL     1      33.768 -15.594 -26.401  0.00  0.00    -0.126 OA
ATOM     12  O   UNL     1      33.540 -14.484 -24.521  0.00  0.00    -0.126 OA
ATOM     13  N   UNL     1      33.831 -15.529 -25.150  0.00  0.00    +0.059 N 
ENDBRANCH   5  13
TORSDOF 1
ENDMDL
MODEL 5
REMARK VINA RESULT:      -7.0      4.375      5.250
REMARK  Name = 1893
REMARK  1 active torsions:
REMARK  status: ('A' for Active; 'I' for Inactive)
REMARK    1  A    between atoms: C_5  and  N_13
REMARK                            x       y       z     vdW  Elec       q    Type
REMARK                         _______ _______ _______ _____ _____    ______ ____
ROOT
ATOM      1  N   UNL     1      34.543 -15.286 -22.739  0.00  0.00    -0.234 N 
ATOM      2  N   UNL     1      34.116 -14.476 -23.721  0.00  0.00    -0.180 NA
ATOM      3  C   UNL     1      34.667 -16.598 -23.107  0.00  0.00    +0.089 C 
ATOM      4  C   UNL     1      34.288 -16.640 -24.443  0.00  0.00    +0.037 C 
ATOM      5  C   UNL     1      35.072 -17.729 -22.394  0.00  0.00    +0.158 C 
ATOM      6  C   UNL     1      34.306 -17.869 -25.126  0.00  0.00    +0.003 C 
ATOM      7  C   UNL     1      35.085 -18.944 -23.087  0.00  0.00    +0.025 C 
ATOM      8  C   UNL     1      33.962 -15.303 -24.757  0.00  0.00    +0.119 C 
ATOM      9  C   UNL     1      34.709 -19.015 -24.430  0.00  0.00    +0.002 C 
ATOM     10  H   UNL     1      34.749 -14.963 -21.831  0.00  0.00    +0.174 HD
ENDROOT
BRANCH   5  13
ATOM     11  O   UNL     1      35.235 -16.687 -20.344  0.00  0.00    -0.126 OA
ATOM     12  O   UNL     1      36.029 -18.724 -20.547  0.00  0.00    -0.126 OA
ATOM     13  N   UNL     1      35.465 -17.713 -21.028  0.00  0.00    +0.059 N 
ENDBRANCH   5  13
TORSDOF 1
ENDMDL
MODEL 6
REMARK VINA RESULT:      -6.9      4.889      5.843
REMARK  Name = 1893
REMARK  1 active torsions:
REMARK  status: ('A' for Active; 'I' for Inactive)
REMARK    1  A    between atoms: C_5  and  N_13
REMARK                            x       y       z     vdW  Elec       q    Type
REMARK                         _______ _______ _______ _____ _____    ______ ____
ROOT
ATOM      1  N   UNL     1      35.248 -17.419 -20.975  0.00  0.00    -0.234 N 
ATOM      2  N   UNL     1      35.527 -18.672 -20.578  0.00  0.00    -0.180 NA
ATOM      3  C   UNL     1      34.983 -17.300 -22.312  0.00  0.00    +0.089 C 
ATOM      4  C   UNL     1      35.101 -18.586 -22.824  0.00  0.00    +0.037 C 
ATOM      5  C   UNL     1      34.656 -16.193 -23.100  0.00  0.00    +0.158 C 
ATOM      6  C   UNL     1      34.885 -18.804 -24.196  0.00  0.00    +0.003 C 
ATOM      7  C   UNL     1      34.445 -16.426 -24.462  0.00  0.00    +0.025 C 
ATOM      8  C   UNL     1      35.437 -19.380 -21.706  0.00  0.00    +0.119 C 
ATOM      9  C   UNL     1      34.557 -17.708 -25.003  0.00  0.00    +0.002 C 
ATOM     10  H   UNL     1      35.235 -16.653 -20.356  0.00  0.00    +0.174 HD
ENDROOT
BRANCH   5  13
ATOM     11  O   UNL     1      34.320 -13.933 -23.409  0.00  0.00    -0.126 OA
ATOM     12  O   UNL     1      34.630 -14.674 -21.366  0.00  0.00    -0.126 OA
ATOM     13  N   UNL     1      34.529 -14.869 -22.600  0.00  0.00    +0.059 N 
ENDBRANCH   5  13
TORSDOF 1
ENDMDL
MODEL 7
REMARK VINA RESULT:      -6.9      5.343      6.280
REMARK  Name = 1893
REMARK  1 active torsions:
REMARK  status: ('A' for Active; 'I' for Inactive)
REMARK    1  A    between atoms: C_5  and  N_13
REMARK                            x       y       z     vdW  Elec       q    Type
REMARK                         _______ _______ _______ _____ _____    ______ ____
ROOT
ATOM      1  N   UNL     1      35.162 -18.352 -23.074  0.00  0.00    -0.234 N 
ATOM      2  N   UNL     1      35.492 -18.876 -21.882  0.00  0.00    -0.180 NA
ATOM      3  C   UNL     1      34.801 -17.034 -23.027  0.00  0.00    +0.089 C 
ATOM      4  C   UNL     1      34.906 -16.673 -21.689  0.00  0.00    +0.037 C 
ATOM      5  C   UNL     1      34.398 -16.143 -24.026  0.00  0.00    +0.158 C 
ATOM      6  C   UNL     1      34.598 -15.357 -21.304  0.00  0.00    +0.003 C 
ATOM      7  C   UNL     1      34.095 -14.838 -23.627  0.00  0.00    +0.025 C 
ATOM      8  C   UNL     1      35.335 -17.852 -21.041  0.00  0.00    +0.119 C 
ATOM      9  C   UNL     1      34.192 -14.449 -22.290  0.00  0.00    +0.002 C 
ATOM     10  H   UNL     1      35.179 -18.873 -23.910  0.00  0.00    +0.174 HD
ENDROOT
BRANCH   5  13
ATOM     11  O   UNL     1      33.840 -15.632 -26.205  0.00  0.00    -0.126 OA
ATOM     12  O   UNL     1      34.627 -17.635 -25.770  0.00  0.00    -0.126 OA
ATOM     13  N   UNL     1      34.283 -16.487 -25.401  0.00  0.00    +0.059 N 
ENDBRANCH   5  13
TORSDOF 1
ENDMDL
MODEL 8
REMARK VINA RESULT:      -6.8      4.116      4.905
REMARK  Name = 1893
REMARK  1 active torsions:
REMARK  status: ('A' for Active; 'I' for Inactive)
REMARK    1  A    between atoms: C_5  and  N_13
REMARK                            x       y       z     vdW  Elec       q    Type
REMARK                         _______ _______ _______ _____ _____    ______ ____
ROOT
ATOM      1  N   UNL     1      34.729 -17.956 -24.330  0.00  0.00    -0.234 N 
ATOM      2  N   UNL     1      34.436 -17.323 -25.478  0.00  0.00    -0.180 NA
ATOM      3  C   UNL     1      34.700 -17.152 -23.223  0.00  0.00    +0.089 C 
ATOM      4  C   UNL     1      34.359 -15.891 -23.695  0.00  0.00    +0.037 C 
ATOM      5  C   UNL     1      34.940 -17.421 -21.873  0.00  0.00    +0.158 C 
ATOM      6  C   UNL     1      34.245 -14.823 -22.788  0.00  0.00    +0.003 C 
ATOM      7  C   UNL     1      34.822 -16.349 -20.983  0.00  0.00    +0.025 C 
ATOM      8  C   UNL     1      34.211 -16.066 -25.088  0.00  0.00    +0.119 C 
ATOM      9  C   UNL     1      34.481 -15.071 -21.430  0.00  0.00    +0.002 C 
ATOM     10  H   UNL     1      34.946 -18.916 -24.289  0.00  0.00    +0.174 HD
ENDROOT
BRANCH   5  13
ATOM     11  O   UNL     1      34.743 -19.719 -21.854  0.00  0.00    -0.126 OA
ATOM     12  O   UNL     1      36.135 -18.777 -20.442  0.00  0.00    -0.126 OA
ATOM     13  N   UNL     1      35.290 -18.702 -21.365  0.00  0.00    +0.059 N 
ENDBRANCH   5  13
TORSDOF 1
ENDMDL
MODEL 9
REMARK VINA RESULT:      -6.8      8.240      8.875
REMARK  Name = 1893
REMARK  1 active torsions:
REMARK  status: ('A' for Active; 'I' for Inactive)
REMARK    1  A    between atoms: C_5  and  N_13
REMARK                            x       y       z     vdW  Elec       q    Type
REMARK                         _______ _______ _______ _____ _____    ______ ____
ROOT
ATOM      1  N   UNL     1      38.505 -23.855 -11.950  0.00  0.00    -0.234 N 
ATOM      2  N   UNL     1      37.651 -23.170 -11.171  0.00  0.00    -0.180 NA
ATOM      3  C   UNL     1      37.915 -24.483 -13.012  0.00  0.00    +0.089 C 
ATOM      4  C   UNL     1      36.562 -24.180 -12.912  0.00  0.00    +0.037 C 
ATOM      5  C   UNL     1      38.443 -25.278 -14.034  0.00  0.00    +0.158 C 
ATOM      6  C   UNL     1      35.669 -24.685 -13.872  0.00  0.00    +0.003 C 
ATOM      7  C   UNL     1      37.542 -25.773 -14.981  0.00  0.00    +0.025 C 
ATOM      8  C   UNL     1      36.470 -23.370 -11.759  0.00  0.00    +0.119 C 
ATOM      9  C   UNL     1      36.178 -25.483 -14.904  0.00  0.00    +0.002 C 
ATOM     10  H   UNL     1      39.473 -23.900 -11.772  0.00  0.00    +0.174 HD
ENDROOT
BRANCH   5  13
ATOM     11  O   UNL     1      40.677 -24.717 -13.924  0.00  0.00    -0.126 OA
ATOM     12  O   UNL     1      40.141 -26.766 -14.500  0.00  0.00    -0.126 OA
ATOM     13  N   UNL     1      39.821 -25.603 -14.159  0.00  0.00    +0.059 N 
ENDBRANCH   5  13
TORSDOF 1
ENDMDL
