MODEL 1
REMARK VINA RESULT:      -3.5      0.000      0.000
REMARK  Name = 9543427
REMARK  2 active torsions:
REMARK  status: ('A' for Active; 'I' for Inactive)
REMARK    1  A    between atoms: S_1  and  C_4
REMARK    2  A    between atoms: C_4  and  S_5
REMARK                            x       y       z     vdW  Elec       q    Type
REMARK                         _______ _______ _______ _____ _____    ______ ____
ROOT
ATOM      1  S   UNL     1      28.469 -23.428 -16.720  0.00  0.00    +0.054 S 
ATOM      2  O   UNL     1      27.633 -24.271 -17.636  0.00  0.00    -0.255 OA
ATOM      3  C   UNL     1      27.339 -22.362 -15.789  0.00  0.00    +0.107 C 
ENDROOT
BRANCH   1   4
ATOM      4  C   UNL     1      28.948 -24.463 -15.300  0.00  0.00    +0.149 C 
BRANCH   4   5
ATOM      5  S   UNL     1      30.685 -24.206 -14.847  0.00  0.00    -0.125 S 
ATOM      6  C   UNL     1      31.136 -23.050 -16.162  0.00  0.00    +0.070 C 
ENDBRANCH   4   5
ENDBRANCH   1   4
TORSDOF 2
ENDMDL
MODEL 2
REMARK VINA RESULT:      -3.5      8.804      8.991
REMARK  Name = 9543427
REMARK  2 active torsions:
REMARK  status: ('A' for Active; 'I' for Inactive)
REMARK    1  A    between atoms: S_1  and  C_4
REMARK    2  A    between atoms: C_4  and  S_5
REMARK                            x       y       z     vdW  Elec       q    Type
REMARK                         _______ _______ _______ _____ _____    ______ ____
ROOT
ATOM      1  S   UNL     1      35.851 -24.660 -11.932  0.00  0.00    +0.054 S 
ATOM      2  O   UNL     1      35.333 -25.077 -10.588  0.00  0.00    -0.255 OA
ATOM      3  C   UNL     1      36.915 -23.218 -11.675  0.00  0.00    +0.107 C 
ENDROOT
BRANCH   1   4
ATOM      4  C   UNL     1      37.199 -25.799 -12.383  0.00  0.00    +0.149 C 
BRANCH   4   5
ATOM      5  S   UNL     1      37.196 -26.160 -14.160  0.00  0.00    -0.125 S 
ATOM      6  C   UNL     1      38.586 -25.111 -14.648  0.00  0.00    +0.070 C 
ENDBRANCH   4   5
ENDBRANCH   1   4
TORSDOF 2
ENDMDL
MODEL 3
REMARK VINA RESULT:      -3.4      9.399     10.084
REMARK  Name = 9543427
REMARK  2 active torsions:
REMARK  status: ('A' for Active; 'I' for Inactive)
REMARK    1  A    between atoms: S_1  and  C_4
REMARK    2  A    between atoms: C_4  and  S_5
REMARK                            x       y       z     vdW  Elec       q    Type
REMARK                         _______ _______ _______ _____ _____    ______ ____
ROOT
ATOM      1  S   UNL     1      37.522 -23.965 -12.046  0.00  0.00    +0.054 S 
ATOM      2  O   UNL     1      38.762 -23.218 -11.656  0.00  0.00    -0.255 OA
ATOM      3  C   UNL     1      37.060 -23.411 -13.707  0.00  0.00    +0.107 C 
ENDROOT
BRANCH   1   4
ATOM      4  C   UNL     1      38.022 -25.642 -12.550  0.00  0.00    +0.149 C 
BRANCH   4   5
ATOM      5  S   UNL     1      38.391 -25.721 -14.325  0.00  0.00    -0.125 S 
ATOM      6  C   UNL     1      40.192 -25.575 -14.230  0.00  0.00    +0.070 C 
ENDBRANCH   4   5
ENDBRANCH   1   4
TORSDOF 2
ENDMDL
MODEL 4
REMARK VINA RESULT:      -3.4      7.995      8.675
REMARK  Name = 9543427
REMARK  2 active torsions:
REMARK  status: ('A' for Active; 'I' for Inactive)
REMARK    1  A    between atoms: S_1  and  C_4
REMARK    2  A    between atoms: C_4  and  S_5
REMARK                            x       y       z     vdW  Elec       q    Type
REMARK                         _______ _______ _______ _____ _____    ______ ____
ROOT
ATOM      1  S   UNL     1      36.877 -26.572 -14.836  0.00  0.00    +0.054 S 
ATOM      2  O   UNL     1      36.771 -27.295 -16.145  0.00  0.00    -0.255 OA
ATOM      3  C   UNL     1      38.572 -25.949 -14.701  0.00  0.00    +0.107 C 
ENDROOT
BRANCH   1   4
ATOM      4  C   UNL     1      36.102 -24.937 -15.042  0.00  0.00    +0.149 C 
BRANCH   4   5
ATOM      5  S   UNL     1      37.176 -23.610 -14.428  0.00  0.00    -0.125 S 
ATOM      6  C   UNL     1      37.297 -22.638 -15.948  0.00  0.00    +0.070 C 
ENDBRANCH   4   5
ENDBRANCH   1   4
TORSDOF 2
ENDMDL
MODEL 5
REMARK VINA RESULT:      -3.3      9.463      9.996
REMARK  Name = 9543427
REMARK  2 active torsions:
REMARK  status: ('A' for Active; 'I' for Inactive)
REMARK    1  A    between atoms: S_1  and  C_4
REMARK    2  A    between atoms: C_4  and  S_5
REMARK                            x       y       z     vdW  Elec       q    Type
REMARK                         _______ _______ _______ _____ _____    ______ ____
ROOT
ATOM      1  S   UNL     1      37.942 -24.287 -12.030  0.00  0.00    +0.054 S 
ATOM      2  O   UNL     1      38.483 -22.939 -11.659  0.00  0.00    -0.255 OA
ATOM      3  C   UNL     1      36.177 -24.289 -11.629  0.00  0.00    +0.107 C 
ENDROOT
BRANCH   1   4
ATOM      4  C   UNL     1      37.715 -24.314 -13.837  0.00  0.00    +0.149 C 
BRANCH   4   5
ATOM      5  S   UNL     1      38.405 -25.822 -14.571  0.00  0.00    -0.125 S 
ATOM      6  C   UNL     1      40.148 -25.538 -14.179  0.00  0.00    +0.070 C 
ENDBRANCH   4   5
ENDBRANCH   1   4
TORSDOF 2
ENDMDL
MODEL 6
REMARK VINA RESULT:      -3.3      9.527     10.336
REMARK  Name = 9543427
REMARK  2 active torsions:
REMARK  status: ('A' for Active; 'I' for Inactive)
REMARK    1  A    between atoms: S_1  and  C_4
REMARK    2  A    between atoms: C_4  and  S_5
REMARK                            x       y       z     vdW  Elec       q    Type
REMARK                         _______ _______ _______ _____ _____    ______ ____
ROOT
ATOM      1  S   UNL     1      34.324 -16.369 -21.253  0.00  0.00    +0.054 S 
ATOM      2  O   UNL     1      34.915 -15.387 -20.286  0.00  0.00    -0.255 OA
ATOM      3  C   UNL     1      34.863 -15.881 -22.912  0.00  0.00    +0.107 C 
ENDROOT
BRANCH   1   4
ATOM      4  C   UNL     1      35.326 -17.888 -21.180  0.00  0.00    +0.149 C 
BRANCH   4   5
ATOM      5  S   UNL     1      34.552 -19.239 -22.111  0.00  0.00    -0.125 S 
ATOM      6  C   UNL     1      33.483 -19.886 -20.804  0.00  0.00    +0.070 C 
ENDBRANCH   4   5
ENDBRANCH   1   4
TORSDOF 2
ENDMDL
MODEL 7
REMARK VINA RESULT:      -3.3      7.390      8.217
REMARK  Name = 9543427
REMARK  2 active torsions:
REMARK  status: ('A' for Active; 'I' for Inactive)
REMARK    1  A    between atoms: S_1  and  C_4
REMARK    2  A    between atoms: C_4  and  S_5
REMARK                            x       y       z     vdW  Elec       q    Type
REMARK                         _______ _______ _______ _____ _____    ______ ____
ROOT
ATOM      1  S   UNL     1      36.088 -24.497 -11.729  0.00  0.00    +0.054 S 
ATOM      2  O   UNL     1      35.290 -25.134 -10.630  0.00  0.00    -0.255 OA
ATOM      3  C   UNL     1      37.072 -25.802 -12.507  0.00  0.00    +0.107 C 
ENDROOT
BRANCH   1   4
ATOM      4  C   UNL     1      34.973 -24.245 -13.147  0.00  0.00    +0.149 C 
BRANCH   4   5
ATOM      5  S   UNL     1      35.699 -24.878 -14.684  0.00  0.00    -0.125 S 
ATOM      6  C   UNL     1      36.405 -23.332 -15.303  0.00  0.00    +0.070 C 
ENDBRANCH   4   5
ENDBRANCH   1   4
TORSDOF 2
ENDMDL
MODEL 8
REMARK VINA RESULT:      -3.3      7.701      8.465
REMARK  Name = 9543427
REMARK  2 active torsions:
REMARK  status: ('A' for Active; 'I' for Inactive)
REMARK    1  A    between atoms: S_1  and  C_4
REMARK    2  A    between atoms: C_4  and  S_5
REMARK                            x       y       z     vdW  Elec       q    Type
REMARK                         _______ _______ _______ _____ _____    ______ ____
ROOT
ATOM      1  S   UNL     1      36.816 -26.600 -14.859  0.00  0.00    +0.054 S 
ATOM      2  O   UNL     1      36.764 -27.289 -16.190  0.00  0.00    -0.255 OA
ATOM      3  C   UNL     1      38.439 -25.808 -14.726  0.00  0.00    +0.107 C 
ENDROOT
BRANCH   1   4
ATOM      4  C   UNL     1      35.872 -25.049 -15.001  0.00  0.00    +0.149 C 
BRANCH   4   5
ATOM      5  S   UNL     1      36.368 -23.850 -13.734  0.00  0.00    -0.125 S 
ATOM      6  C   UNL     1      35.334 -24.451 -12.378  0.00  0.00    +0.070 C 
ENDBRANCH   4   5
ENDBRANCH   1   4
TORSDOF 2
ENDMDL
MODEL 9
REMARK VINA RESULT:      -3.3      9.637     10.412
REMARK  Name = 9543427
REMARK  2 active torsions:
REMARK  status: ('A' for Active; 'I' for Inactive)
REMARK    1  A    between atoms: S_1  and  C_4
REMARK    2  A    between atoms: C_4  and  S_5
REMARK                            x       y       z     vdW  Elec       q    Type
REMARK                         _______ _______ _______ _____ _____    ______ ____
ROOT
ATOM      1  S   UNL     1      35.188 -19.442 -21.295  0.00  0.00    +0.054 S 
ATOM      2  O   UNL     1      35.626 -18.178 -20.616  0.00  0.00    -0.255 OA
ATOM      3  C   UNL     1      33.457 -19.722 -20.845  0.00  0.00    +0.107 C 
ENDROOT
BRANCH   1   4
ATOM      4  C   UNL     1      34.857 -19.046 -23.041  0.00  0.00    +0.149 C 
BRANCH   4   5
ATOM      5  S   UNL     1      34.948 -17.261 -23.347  0.00  0.00    -0.125 S 
ATOM      6  C   UNL     1      34.619 -17.277 -25.125  0.00  0.00    +0.070 C 
ENDBRANCH   4   5
ENDBRANCH   1   4
TORSDOF 2
ENDMDL
