MODEL 1
REMARK VINA RESULT:      -8.3      0.000      0.000
REMARK  Name = 235905
REMARK  3 active torsions:
REMARK  status: ('A' for Active; 'I' for Inactive)
REMARK    1  A    between atoms: C_5  and  O_19
REMARK    2  A    between atoms: C_5  and  C_21
REMARK    3  A    between atoms: C_21  and  C_22
REMARK                            x       y       z     vdW  Elec       q    Type
REMARK                         _______ _______ _______ _____ _____    ______ ____
ROOT
ATOM      1  C   UNL     1      35.616 -24.348 -14.972  0.00  0.00    +0.023 C 
ATOM      2  C   UNL     1      36.484 -23.199 -15.531  0.00  0.00    +0.002 C 
ATOM      3  C   UNL     1      36.226 -22.928 -17.018  0.00  0.00    +0.001 C 
ATOM      4  C   UNL     1      34.728 -22.545 -17.208  0.00  0.00    +0.004 C 
ATOM      5  C   UNL     1      36.185 -24.457 -13.523  0.00  0.00    +0.092 C 
ATOM      6  C   UNL     1      34.142 -23.936 -15.115  0.00  0.00    +0.002 C 
ATOM      7  C   UNL     1      37.896 -23.572 -15.093  0.00  0.00    +0.002 C 
ATOM      8  C   UNL     1      33.778 -23.590 -16.571  0.00  0.00    +0.000 C 
ATOM      9  C   UNL     1      37.710 -24.256 -13.726  0.00  0.00    +0.027 C 
ATOM     10  C   UNL     1      34.407 -22.286 -18.710  0.00  0.00    +0.018 C 
ATOM     11  C   UNL     1      37.127 -21.811 -17.563  0.00  0.00    +0.004 C 
ATOM     12  C   UNL     1      35.827 -25.702 -15.711  0.00  0.00    +0.002 C 
ATOM     13  C   UNL     1      36.856 -21.568 -19.044  0.00  0.00    +0.022 C 
ATOM     14  C   UNL     1      35.397 -21.298 -19.311  0.00  0.00    -0.049 C 
ATOM     15  C   UNL     1      32.940 -21.834 -18.892  0.00  0.00    +0.004 C 
ATOM     16  C   UNL     1      32.698 -21.200 -20.256  0.00  0.00    +0.005 C 
ATOM     17  C   UNL     1      35.015 -20.251 -20.065  0.00  0.00    -0.035 C 
ATOM     18  C   UNL     1      33.594 -19.981 -20.453  0.00  0.00    +0.025 C 
ENDROOT
BRANCH   5  19
ATOM     19  O   UNL     1      35.956 -25.744 -12.957  0.00  0.00    -0.386 OA
ATOM     20  H   UNL     1      36.489 -25.843 -12.151  0.00  0.00    +0.210 HD
ENDBRANCH   5  19
BRANCH   5  21
ATOM     21  C   UNL     1      35.641 -23.434 -12.518  0.00  0.00    +0.053 C 
BRANCH  21  22
ATOM     22  C   UNL     1      36.299 -23.591 -11.185  0.00  0.00    -0.024 C 
ATOM     23  C   UNL     1      35.742 -24.231 -10.151  0.00  0.00    -0.005 C 
ENDBRANCH  21  22
ENDBRANCH   5  21
TORSDOF 3
ENDMDL
MODEL 2
REMARK VINA RESULT:      -8.3      9.817     13.878
REMARK  Name = 235905
REMARK  3 active torsions:
REMARK  status: ('A' for Active; 'I' for Inactive)
REMARK    1  A    between atoms: C_5  and  O_19
REMARK    2  A    between atoms: C_5  and  C_21
REMARK    3  A    between atoms: C_21  and  C_22
REMARK                            x       y       z     vdW  Elec       q    Type
REMARK                         _______ _______ _______ _____ _____    ______ ____
ROOT
ATOM      1  C   UNL     1      31.981 -10.531 -22.178  0.00  0.00    +0.023 C 
ATOM      2  C   UNL     1      32.395 -11.429 -20.991  0.00  0.00    +0.002 C 
ATOM      3  C   UNL     1      32.313 -12.923 -21.319  0.00  0.00    +0.001 C 
ATOM      4  C   UNL     1      33.262 -13.230 -22.516  0.00  0.00    +0.004 C 
ATOM      5  C   UNL     1      32.048  -9.123 -21.509  0.00  0.00    +0.092 C 
ATOM      6  C   UNL     1      32.958 -10.802 -23.335  0.00  0.00    +0.002 C 
ATOM      7  C   UNL     1      31.565 -10.891 -19.831  0.00  0.00    +0.002 C 
ATOM      8  C   UNL     1      32.996 -12.292 -23.720  0.00  0.00    +0.000 C 
ATOM      9  C   UNL     1      31.466  -9.376 -20.094  0.00  0.00    +0.027 C 
ATOM     10  C   UNL     1      33.194 -14.736 -22.908  0.00  0.00    +0.018 C 
ATOM     11  C   UNL     1      32.689 -13.797 -20.114  0.00  0.00    +0.004 C 
ATOM     12  C   UNL     1      30.531 -10.795 -22.680  0.00  0.00    +0.002 C 
ATOM     13  C   UNL     1      32.591 -15.279 -20.465  0.00  0.00    +0.022 C 
ATOM     14  C   UNL     1      33.405 -15.621 -21.686  0.00  0.00    -0.049 C 
ATOM     15  C   UNL     1      34.190 -15.058 -24.045  0.00  0.00    +0.004 C 
ATOM     16  C   UNL     1      34.442 -16.553 -24.185  0.00  0.00    +0.005 C 
ATOM     17  C   UNL     1      34.244 -16.672 -21.685  0.00  0.00    -0.035 C 
ATOM     18  C   UNL     1      35.006 -17.130 -22.891  0.00  0.00    +0.025 C 
ENDROOT
BRANCH   5  19
ATOM     19  O   UNL     1      31.229  -8.173 -22.186  0.00  0.00    -0.386 OA
ATOM     20  H   UNL     1      31.743  -7.368 -22.359  0.00  0.00    +0.210 HD
ENDBRANCH   5  19
BRANCH   5  21
ATOM     21  C   UNL     1      33.447  -8.502 -21.408  0.00  0.00    +0.053 C 
BRANCH  21  22
ATOM     22  C   UNL     1      33.667  -7.501 -22.497  0.00  0.00    -0.024 C 
ATOM     23  C   UNL     1      34.667  -7.573 -23.382  0.00  0.00    -0.005 C 
ENDBRANCH  21  22
ENDBRANCH   5  21
TORSDOF 3
ENDMDL
MODEL 3
REMARK VINA RESULT:      -7.9      6.130     10.132
REMARK  Name = 235905
REMARK  3 active torsions:
REMARK  status: ('A' for Active; 'I' for Inactive)
REMARK    1  A    between atoms: C_5  and  O_19
REMARK    2  A    between atoms: C_5  and  C_21
REMARK    3  A    between atoms: C_21  and  C_22
REMARK                            x       y       z     vdW  Elec       q    Type
REMARK                         _______ _______ _______ _____ _____    ______ ____
ROOT
ATOM      1  C   UNL     1      34.308 -17.507 -21.787  0.00  0.00    +0.023 C 
ATOM      2  C   UNL     1      34.531 -17.359 -23.308  0.00  0.00    +0.002 C 
ATOM      3  C   UNL     1      33.760 -16.179 -23.910  0.00  0.00    +0.001 C 
ATOM      4  C   UNL     1      34.229 -14.864 -23.218  0.00  0.00    +0.004 C 
ATOM      5  C   UNL     1      35.098 -18.824 -21.508  0.00  0.00    +0.092 C 
ATOM      6  C   UNL     1      34.824 -16.227 -21.109  0.00  0.00    +0.002 C 
ATOM      7  C   UNL     1      34.259 -18.759 -23.847  0.00  0.00    +0.002 C 
ATOM      8  C   UNL     1      34.149 -14.963 -21.674  0.00  0.00    +0.000 C 
ATOM      9  C   UNL     1      34.760 -19.706 -22.740  0.00  0.00    +0.027 C 
ATOM     10  C   UNL     1      33.452 -13.635 -23.777  0.00  0.00    +0.018 C 
ATOM     11  C   UNL     1      33.963 -16.075 -25.428  0.00  0.00    +0.004 C 
ATOM     12  C   UNL     1      32.815 -17.709 -21.395  0.00  0.00    +0.002 C 
ATOM     13  C   UNL     1      33.179 -14.899 -26.002  0.00  0.00    +0.022 C 
ATOM     14  C   UNL     1      33.508 -13.608 -25.298  0.00  0.00    -0.049 C 
ATOM     15  C   UNL     1      33.967 -12.322 -23.145  0.00  0.00    +0.004 C 
ATOM     16  C   UNL     1      33.529 -11.093 -23.932  0.00  0.00    +0.005 C 
ATOM     17  C   UNL     1      33.804 -12.497 -25.996  0.00  0.00    -0.035 C 
ATOM     18  C   UNL     1      34.042 -11.158 -25.367  0.00  0.00    +0.025 C 
ENDROOT
BRANCH   5  19
ATOM     19  O   UNL     1      34.642 -19.479 -20.328  0.00  0.00    -0.386 OA
ATOM     20  H   UNL     1      34.375 -20.387 -20.544  0.00  0.00    +0.210 HD
ENDBRANCH   5  19
BRANCH   5  21
ATOM     21  C   UNL     1      36.617 -18.669 -21.364  0.00  0.00    +0.053 C 
BRANCH  21  22
ATOM     22  C   UNL     1      37.140 -19.530 -20.258  0.00  0.00    -0.024 C 
ATOM     23  C   UNL     1      37.103 -20.866 -20.276  0.00  0.00    -0.005 C 
ENDBRANCH  21  22
ENDBRANCH   5  21
TORSDOF 3
ENDMDL
MODEL 4
REMARK VINA RESULT:      -7.9      2.395      3.911
REMARK  Name = 235905
REMARK  3 active torsions:
REMARK  status: ('A' for Active; 'I' for Inactive)
REMARK    1  A    between atoms: C_5  and  O_19
REMARK    2  A    between atoms: C_5  and  C_21
REMARK    3  A    between atoms: C_21  and  C_22
REMARK                            x       y       z     vdW  Elec       q    Type
REMARK                         _______ _______ _______ _____ _____    ______ ____
ROOT
ATOM      1  C   UNL     1      35.758 -24.366 -14.412  0.00  0.00    +0.023 C 
ATOM      2  C   UNL     1      35.245 -23.257 -15.357  0.00  0.00    +0.002 C 
ATOM      3  C   UNL     1      33.888 -23.590 -15.985  0.00  0.00    +0.001 C 
ATOM      4  C   UNL     1      32.840 -23.785 -14.849  0.00  0.00    +0.004 C 
ATOM      5  C   UNL     1      37.166 -23.803 -14.046  0.00  0.00    +0.092 C 
ATOM      6  C   UNL     1      34.744 -24.512 -13.265  0.00  0.00    +0.002 C 
ATOM      7  C   UNL     1      36.431 -22.999 -16.280  0.00  0.00    +0.002 C 
ATOM      8  C   UNL     1      33.323 -24.802 -13.784  0.00  0.00    +0.000 C 
ATOM      9  C   UNL     1      37.670 -23.212 -15.389  0.00  0.00    +0.027 C 
ATOM     10  C   UNL     1      31.445 -24.154 -15.436  0.00  0.00    +0.018 C 
ATOM     11  C   UNL     1      33.417 -22.495 -16.952  0.00  0.00    +0.004 C 
ATOM     12  C   UNL     1      35.920 -25.749 -15.109  0.00  0.00    +0.002 C 
ATOM     13  C   UNL     1      32.069 -22.855 -17.568  0.00  0.00    +0.022 C 
ATOM     14  C   UNL     1      31.035 -23.163 -16.516  0.00  0.00    -0.049 C 
ATOM     15  C   UNL     1      30.388 -24.274 -14.315  0.00  0.00    +0.004 C 
ATOM     16  C   UNL     1      28.965 -24.239 -14.859  0.00  0.00    +0.005 C 
ATOM     17  C   UNL     1      29.813 -22.603 -16.564  0.00  0.00    -0.035 C 
ATOM     18  C   UNL     1      28.706 -22.939 -15.612  0.00  0.00    +0.025 C 
ENDROOT
BRANCH   5  19
ATOM     19  O   UNL     1      38.058 -24.832 -13.627  0.00  0.00    -0.386 OA
ATOM     20  H   UNL     1      38.681 -25.032 -14.344  0.00  0.00    +0.210 HD
ENDBRANCH   5  19
BRANCH   5  21
ATOM     21  C   UNL     1      37.188 -22.731 -12.949  0.00  0.00    +0.053 C 
BRANCH  21  22
ATOM     22  C   UNL     1      37.561 -23.324 -11.629  0.00  0.00    -0.024 C 
ATOM     23  C   UNL     1      36.692 -23.530 -10.633  0.00  0.00    -0.005 C 
ENDBRANCH  21  22
ENDBRANCH   5  21
TORSDOF 3
ENDMDL
MODEL 5
REMARK VINA RESULT:      -7.8      3.027      7.609
REMARK  Name = 235905
REMARK  3 active torsions:
REMARK  status: ('A' for Active; 'I' for Inactive)
REMARK    1  A    between atoms: C_5  and  O_19
REMARK    2  A    between atoms: C_5  and  C_21
REMARK    3  A    between atoms: C_21  and  C_22
REMARK                            x       y       z     vdW  Elec       q    Type
REMARK                         _______ _______ _______ _____ _____    ______ ____
ROOT
ATOM      1  C   UNL     1      35.552 -20.353 -20.642  0.00  0.00    +0.023 C 
ATOM      2  C   UNL     1      34.230 -20.536 -19.864  0.00  0.00    +0.002 C 
ATOM      3  C   UNL     1      34.215 -21.807 -19.007  0.00  0.00    +0.001 C 
ATOM      4  C   UNL     1      35.382 -21.735 -17.977  0.00  0.00    +0.004 C 
ATOM      5  C   UNL     1      35.215 -19.083 -21.484  0.00  0.00    +0.092 C 
ATOM      6  C   UNL     1      36.689 -20.228 -19.614  0.00  0.00    +0.002 C 
ATOM      7  C   UNL     1      33.159 -20.367 -20.935  0.00  0.00    +0.002 C 
ATOM      8  C   UNL     1      36.740 -21.436 -18.661  0.00  0.00    +0.000 C 
ATOM      9  C   UNL     1      33.739 -19.318 -21.903  0.00  0.00    +0.027 C 
ATOM     10  C   UNL     1      35.428 -23.020 -17.098  0.00  0.00    +0.018 C 
ATOM     11  C   UNL     1      32.879 -21.991 -18.275  0.00  0.00    +0.004 C 
ATOM     12  C   UNL     1      35.877 -21.536 -21.601  0.00  0.00    +0.002 C 
ATOM     13  C   UNL     1      32.888 -23.266 -17.438  0.00  0.00    +0.022 C 
ATOM     14  C   UNL     1      34.061 -23.308 -16.492  0.00  0.00    -0.049 C 
ATOM     15  C   UNL     1      36.537 -22.918 -16.027  0.00  0.00    +0.004 C 
ATOM     16  C   UNL     1      36.363 -23.948 -14.918  0.00  0.00    +0.005 C 
ATOM     17  C   UNL     1      33.890 -23.613 -15.193  0.00  0.00    -0.035 C 
ATOM     18  C   UNL     1      35.018 -23.771 -14.221  0.00  0.00    +0.025 C 
ENDROOT
BRANCH   5  19
ATOM     19  O   UNL     1      36.022 -18.991 -22.655  0.00  0.00    -0.386 OA
ATOM     20  H   UNL     1      35.485 -19.203 -23.435  0.00  0.00    +0.210 HD
ENDBRANCH   5  19
BRANCH   5  21
ATOM     21  C   UNL     1      35.354 -17.744 -20.750  0.00  0.00    +0.053 C 
BRANCH  21  22
ATOM     22  C   UNL     1      34.381 -16.740 -21.279  0.00  0.00    -0.024 C 
ATOM     23  C   UNL     1      34.298 -15.480 -20.838  0.00  0.00    -0.005 C 
ENDBRANCH  21  22
ENDBRANCH   5  21
TORSDOF 3
ENDMDL
MODEL 6
REMARK VINA RESULT:      -7.7     11.782     16.363
REMARK  Name = 235905
REMARK  3 active torsions:
REMARK  status: ('A' for Active; 'I' for Inactive)
REMARK    1  A    between atoms: C_5  and  O_19
REMARK    2  A    between atoms: C_5  and  C_21
REMARK    3  A    between atoms: C_21  and  C_22
REMARK                            x       y       z     vdW  Elec       q    Type
REMARK                         _______ _______ _______ _____ _____    ______ ____
ROOT
ATOM      1  C   UNL     1      32.010  -8.145 -23.419  0.00  0.00    +0.023 C 
ATOM      2  C   UNL     1      32.298  -8.417 -21.926  0.00  0.00    +0.002 C 
ATOM      3  C   UNL     1      31.764  -9.774 -21.454  0.00  0.00    +0.001 C 
ATOM      4  C   UNL     1      32.438 -10.901 -22.294  0.00  0.00    +0.004 C 
ATOM      5  C   UNL     1      32.546  -6.686 -23.553  0.00  0.00    +0.092 C 
ATOM      6  C   UNL     1      32.724  -9.231 -24.241  0.00  0.00    +0.002 C 
ATOM      7  C   UNL     1      31.798  -7.156 -21.231  0.00  0.00    +0.002 C 
ATOM      8  C   UNL     1      32.299 -10.649 -23.816  0.00  0.00    +0.000 C 
ATOM      9  C   UNL     1      32.092  -6.019 -22.228  0.00  0.00    +0.027 C 
ATOM     10  C   UNL     1      31.906 -12.302 -21.871  0.00  0.00    +0.018 C 
ATOM     11  C   UNL     1      32.025 -10.006 -19.959  0.00  0.00    +0.004 C 
ATOM     12  C   UNL     1      30.494  -8.172 -23.773  0.00  0.00    +0.002 C 
ATOM     13  C   UNL     1      31.477 -11.358 -19.515  0.00  0.00    +0.022 C 
ATOM     14  C   UNL     1      32.009 -12.486 -20.362  0.00  0.00    -0.049 C 
ATOM     15  C   UNL     1      32.628 -13.425 -22.650  0.00  0.00    +0.004 C 
ATOM     16  C   UNL     1      32.435 -14.791 -22.003  0.00  0.00    +0.005 C 
ATOM     17  C   UNL     1      32.516 -13.595 -19.797  0.00  0.00    -0.035 C 
ATOM     18  C   UNL     1      32.969 -14.793 -20.575  0.00  0.00    +0.025 C 
ENDROOT
BRANCH   5  19
ATOM     19  O   UNL     1      31.948  -5.998 -24.649  0.00  0.00    -0.386 OA
ATOM     20  H   UNL     1      30.991  -5.928 -24.503  0.00  0.00    +0.210 HD
ENDBRANCH   5  19
BRANCH   5  21
ATOM     21  C   UNL     1      34.064  -6.550 -23.727  0.00  0.00    +0.053 C 
BRANCH  21  22
ATOM     22  C   UNL     1      34.456  -6.719 -25.160  0.00  0.00    -0.024 C 
ATOM     23  C   UNL     1      34.685  -5.699 -25.993  0.00  0.00    -0.005 C 
ENDBRANCH  21  22
ENDBRANCH   5  21
TORSDOF 3
ENDMDL
MODEL 7
REMARK VINA RESULT:      -7.6      1.565      3.453
REMARK  Name = 235905
REMARK  3 active torsions:
REMARK  status: ('A' for Active; 'I' for Inactive)
REMARK    1  A    between atoms: C_5  and  O_19
REMARK    2  A    between atoms: C_5  and  C_21
REMARK    3  A    between atoms: C_21  and  C_22
REMARK                            x       y       z     vdW  Elec       q    Type
REMARK                         _______ _______ _______ _____ _____    ______ ____
ROOT
ATOM      1  C   UNL     1      37.305 -23.790 -13.967  0.00  0.00    +0.023 C 
ATOM      2  C   UNL     1      35.981 -24.373 -14.511  0.00  0.00    +0.002 C 
ATOM      3  C   UNL     1      35.213 -23.382 -15.392  0.00  0.00    +0.001 C 
ATOM      4  C   UNL     1      36.107 -22.986 -16.605  0.00  0.00    +0.004 C 
ATOM      5  C   UNL     1      37.771 -24.956 -13.040  0.00  0.00    +0.092 C 
ATOM      6  C   UNL     1      38.201 -23.454 -15.171  0.00  0.00    +0.002 C 
ATOM      7  C   UNL     1      35.296 -24.925 -13.267  0.00  0.00    +0.002 C 
ATOM      8  C   UNL     1      37.507 -22.496 -16.156  0.00  0.00    +0.000 C 
ATOM      9  C   UNL     1      36.450 -25.433 -12.381  0.00  0.00    +0.027 C 
ATOM     10  C   UNL     1      35.380 -21.955 -17.518  0.00  0.00    +0.018 C 
ATOM     11  C   UNL     1      33.883 -23.965 -15.888  0.00  0.00    +0.004 C 
ATOM     12  C   UNL     1      37.112 -22.501 -13.116  0.00  0.00    +0.002 C 
ATOM     13  C   UNL     1      33.135 -22.956 -16.754  0.00  0.00    +0.022 C 
ATOM     14  C   UNL     1      33.988 -22.450 -17.889  0.00  0.00    -0.049 C 
ATOM     15  C   UNL     1      36.234 -21.618 -18.761  0.00  0.00    +0.004 C 
ATOM     16  C   UNL     1      35.418 -20.941 -19.855  0.00  0.00    +0.005 C 
ATOM     17  C   UNL     1      33.515 -22.419 -19.147  0.00  0.00    -0.035 C 
ATOM     18  C   UNL     1      34.268 -21.837 -20.305  0.00  0.00    +0.025 C 
ENDROOT
BRANCH   5  19
ATOM     19  O   UNL     1      38.661 -24.504 -12.023  0.00  0.00    -0.386 OA
ATOM     20  H   UNL     1      39.576 -24.569 -12.342  0.00  0.00    +0.210 HD
ENDBRANCH   5  19
BRANCH   5  21
ATOM     21  C   UNL     1      38.469 -26.126 -13.745  0.00  0.00    +0.053 C 
BRANCH  21  22
ATOM     22  C   UNL     1      39.949 -25.920 -13.785  0.00  0.00    -0.024 C 
ATOM     23  C   UNL     1      40.666 -25.899 -14.914  0.00  0.00    -0.005 C 
ENDBRANCH  21  22
ENDBRANCH   5  21
TORSDOF 3
ENDMDL
MODEL 8
REMARK VINA RESULT:      -7.4      2.933      6.468
REMARK  Name = 235905
REMARK  3 active torsions:
REMARK  status: ('A' for Active; 'I' for Inactive)
REMARK    1  A    between atoms: C_5  and  O_19
REMARK    2  A    between atoms: C_5  and  C_21
REMARK    3  A    between atoms: C_21  and  C_22
REMARK                            x       y       z     vdW  Elec       q    Type
REMARK                         _______ _______ _______ _____ _____    ______ ____
ROOT
ATOM      1  C   UNL     1      32.000 -23.429 -14.585  0.00  0.00    +0.023 C 
ATOM      2  C   UNL     1      33.038 -23.495 -15.727  0.00  0.00    +0.002 C 
ATOM      3  C   UNL     1      34.474 -23.275 -15.239  0.00  0.00    +0.001 C 
ATOM      4  C   UNL     1      34.828 -24.376 -14.194  0.00  0.00    +0.004 C 
ATOM      5  C   UNL     1      30.674 -23.562 -15.395  0.00  0.00    +0.092 C 
ATOM      6  C   UNL     1      32.325 -24.555 -13.588  0.00  0.00    +0.002 C 
ATOM      7  C   UNL     1      32.472 -22.548 -16.778  0.00  0.00    +0.002 C 
ATOM      8  C   UNL     1      33.771 -24.462 -13.065  0.00  0.00    +0.000 C 
ATOM      9  C   UNL     1      30.945 -22.702 -16.659  0.00  0.00    +0.027 C 
ATOM     10  C   UNL     1      36.272 -24.179 -13.646  0.00  0.00    +0.018 C 
ATOM     11  C   UNL     1      35.484 -23.303 -16.394  0.00  0.00    +0.004 C 
ATOM     12  C   UNL     1      32.004 -22.073 -13.820  0.00  0.00    +0.002 C 
ATOM     13  C   UNL     1      36.903 -23.073 -15.883  0.00  0.00    +0.022 C 
ATOM     14  C   UNL     1      37.269 -24.043 -14.788  0.00  0.00    -0.049 C 
ATOM     15  C   UNL     1      36.651 -25.313 -12.666  0.00  0.00    +0.004 C 
ATOM     16  C   UNL     1      38.152 -25.383 -12.419  0.00  0.00    +0.005 C 
ATOM     17  C   UNL     1      38.431 -24.719 -14.824  0.00  0.00    -0.035 C 
ATOM     18  C   UNL     1      38.905 -25.619 -13.725  0.00  0.00    +0.025 C 
ENDROOT
BRANCH   5  19
ATOM     19  O   UNL     1      29.562 -23.015 -14.690  0.00  0.00    -0.386 OA
ATOM     20  H   UNL     1      29.677 -23.166 -13.738  0.00  0.00    +0.210 HD
ENDBRANCH   5  19
BRANCH   5  21
ATOM     21  C   UNL     1      30.279 -24.989 -15.795  0.00  0.00    +0.053 C 
BRANCH  21  22
ATOM     22  C   UNL     1      28.804 -25.096 -16.011  0.00  0.00    -0.024 C 
ATOM     23  C   UNL     1      28.155 -24.501 -17.019  0.00  0.00    -0.005 C 
ENDBRANCH  21  22
ENDBRANCH   5  21
TORSDOF 3
ENDMDL
MODEL 9
REMARK VINA RESULT:      -6.9      2.630      4.674
REMARK  Name = 235905
REMARK  3 active torsions:
REMARK  status: ('A' for Active; 'I' for Inactive)
REMARK    1  A    between atoms: C_5  and  O_19
REMARK    2  A    between atoms: C_5  and  C_21
REMARK    3  A    between atoms: C_21  and  C_22
REMARK                            x       y       z     vdW  Elec       q    Type
REMARK                         _______ _______ _______ _____ _____    ______ ____
ROOT
ATOM      1  C   UNL     1      36.836 -23.991 -13.920  0.00  0.00    +0.023 C 
ATOM      2  C   UNL     1      35.629 -24.780 -13.366  0.00  0.00    +0.002 C 
ATOM      3  C   UNL     1      34.296 -24.055 -13.579  0.00  0.00    +0.001 C 
ATOM      4  C   UNL     1      34.078 -23.838 -15.107  0.00  0.00    +0.004 C 
ATOM      5  C   UNL     1      38.013 -24.903 -13.451  0.00  0.00    +0.092 C 
ATOM      6  C   UNL     1      36.638 -23.831 -15.436  0.00  0.00    +0.002 C 
ATOM      7  C   UNL     1      36.051 -25.126 -11.942  0.00  0.00    +0.002 C 
ATOM      8  C   UNL     1      35.297 -23.152 -15.773  0.00  0.00    +0.000 C 
ATOM      9  C   UNL     1      37.573 -25.346 -12.031  0.00  0.00    +0.027 C 
ATOM     10  C   UNL     1      32.745 -23.077 -15.375  0.00  0.00    +0.018 C 
ATOM     11  C   UNL     1      33.115 -24.835 -12.985  0.00  0.00    +0.004 C 
ATOM     12  C   UNL     1      36.996 -22.577 -13.287  0.00  0.00    +0.002 C 
ATOM     13  C   UNL     1      31.803 -24.088 -13.204  0.00  0.00    +0.022 C 
ATOM     14  C   UNL     1      31.584 -23.751 -14.657  0.00  0.00    -0.049 C 
ATOM     15  C   UNL     1      32.491 -22.927 -16.892  0.00  0.00    +0.004 C 
ATOM     16  C   UNL     1      31.046 -22.556 -17.200  0.00  0.00    +0.005 C 
ATOM     17  C   UNL     1      30.411 -24.014 -15.258  0.00  0.00    -0.035 C 
ATOM     18  C   UNL     1      30.089 -23.616 -16.666  0.00  0.00    +0.025 C 
ENDROOT
BRANCH   5  19
ATOM     19  O   UNL     1      39.239 -24.182 -13.355  0.00  0.00    -0.386 OA
ATOM     20  H   UNL     1      39.111 -23.401 -12.793  0.00  0.00    +0.210 HD
ENDBRANCH   5  19
BRANCH   5  21
ATOM     21  C   UNL     1      38.293 -26.128 -14.330  0.00  0.00    +0.053 C 
BRANCH  21  22
ATOM     22  C   UNL     1      39.659 -26.052 -14.933  0.00  0.00    -0.024 C 
ATOM     23  C   UNL     1      40.761 -26.524 -14.340  0.00  0.00    -0.005 C 
ENDBRANCH  21  22
ENDBRANCH   5  21
TORSDOF 3
ENDMDL
