MODEL 1
REMARK VINA RESULT:     -11.0      0.000      0.000
REMARK  Name = 24864078
REMARK  4 active torsions:
REMARK  status: ('A' for Active; 'I' for Inactive)
REMARK    1  A    between atoms: C_3  and  C_9
REMARK    2  A    between atoms: C_4  and  N_19
REMARK    3  A    between atoms: N_8  and  C_12
REMARK    4  A    between atoms: C_20  and  C_22
REMARK                            x       y       z     vdW  Elec       q    Type
REMARK                         _______ _______ _______ _____ _____    ______ ____
ROOT
ATOM      1  N   UNL     1      38.437 -23.169 -16.098  0.00  0.00    -0.230 N 
ATOM      2  N   UNL     1      38.518 -24.143 -15.176  0.00  0.00    -0.178 NA
ATOM      3  C   UNL     1      37.171 -22.701 -16.296  0.00  0.00    +0.134 C 
ATOM      4  C   UNL     1      36.368 -23.420 -15.444  0.00  0.00    +0.091 C 
ATOM      5  C   UNL     1      37.252 -24.292 -14.780  0.00  0.00    +0.134 C 
ATOM      6  H   UNL     1      39.219 -22.824 -16.587  0.00  0.00    +0.175 HD
ENDROOT
BRANCH   3   9
ATOM      7  O   UNL     1      37.329 -20.523 -17.097  0.00  0.00    -0.268 OA
ATOM      8  N   UNL     1      35.952 -22.016 -18.271  0.00  0.00    -0.279 N 
ATOM      9  C   UNL     1      36.832 -21.669 -17.222  0.00  0.00    +0.266 C 
ATOM     10  H   UNL     1      35.631 -22.946 -18.260  0.00  0.00    +0.155 HD
BRANCH   8  12
ATOM     11  F   UNL     1      34.036 -18.904 -22.442  0.00  0.00    -0.204 F 
ATOM     12  C   UNL     1      35.462 -21.220 -19.337  0.00  0.00    +0.051 C 
ATOM     13  C   UNL     1      36.352 -20.501 -20.135  0.00  0.00    +0.017 C 
ATOM     14  C   UNL     1      34.091 -21.157 -19.587  0.00  0.00    +0.017 C 
ATOM     15  C   UNL     1      35.869 -19.718 -21.185  0.00  0.00    +0.031 C 
ATOM     16  C   UNL     1      33.610 -20.374 -20.636  0.00  0.00    +0.031 C 
ATOM     17  C   UNL     1      34.498 -19.654 -21.435  0.00  0.00    +0.140 C 
ENDBRANCH   8  12
ENDBRANCH   3   9
BRANCH   4  19
ATOM     18  O   UNL     1      34.139 -23.983 -17.366  0.00  0.00    -0.270 OA
ATOM     19  N   UNL     1      34.967 -23.296 -15.282  0.00  0.00    -0.278 N 
ATOM     20  C   UNL     1      33.952 -23.571 -16.210  0.00  0.00    +0.250 C 
ATOM     21  H   UNL     1      34.665 -22.974 -14.402  0.00  0.00    +0.155 HD
BRANCH  20  22
ATOM     22  C   UNL     1      32.594 -23.318 -15.759  0.00  0.00    +0.054 C 
ATOM     23  C   UNL     1      31.586 -23.066 -16.690  0.00  0.00    +0.005 C 
ATOM     24  C   UNL     1      32.297 -23.328 -14.396  0.00  0.00    +0.005 C 
ATOM     25  C   UNL     1      30.282 -22.823 -16.259  0.00  0.00    +0.000 C 
ATOM     26  C   UNL     1      30.993 -23.086 -13.965  0.00  0.00    +0.000 C 
ATOM     27  C   UNL     1      29.986 -22.833 -14.895  0.00  0.00    +0.000 C 
ENDBRANCH  20  22
ENDBRANCH   4  19
TORSDOF 4
ENDMDL
MODEL 2
REMARK VINA RESULT:     -10.7      3.425      6.954
REMARK  Name = 24864078
REMARK  4 active torsions:
REMARK  status: ('A' for Active; 'I' for Inactive)
REMARK    1  A    between atoms: C_3  and  C_9
REMARK    2  A    between atoms: C_4  and  N_19
REMARK    3  A    between atoms: N_8  and  C_12
REMARK    4  A    between atoms: C_20  and  C_22
REMARK                            x       y       z     vdW  Elec       q    Type
REMARK                         _______ _______ _______ _____ _____    ______ ____
ROOT
ATOM      1  N   UNL     1      31.806 -24.486 -14.621  0.00  0.00    -0.230 N 
ATOM      2  N   UNL     1      30.544 -24.378 -15.068  0.00  0.00    -0.178 NA
ATOM      3  C   UNL     1      32.717 -23.801 -15.370  0.00  0.00    +0.134 C 
ATOM      4  C   UNL     1      32.000 -23.202 -16.378  0.00  0.00    +0.091 C 
ATOM      5  C   UNL     1      30.668 -23.593 -16.140  0.00  0.00    +0.134 C 
ATOM      6  H   UNL     1      32.052 -25.013 -13.826  0.00  0.00    +0.175 HD
ENDROOT
BRANCH   3   9
ATOM      7  O   UNL     1      34.760 -22.695 -15.242  0.00  0.00    -0.268 OA
ATOM      8  N   UNL     1      34.710 -24.961 -14.635  0.00  0.00    -0.279 N 
ATOM      9  C   UNL     1      34.118 -23.764 -15.095  0.00  0.00    +0.266 C 
ATOM     10  H   UNL     1      34.101 -25.730 -14.561  0.00  0.00    +0.155 HD
BRANCH   8  12
ATOM     11  F   UNL     1      39.969 -25.961 -13.187  0.00  0.00    -0.204 F 
ATOM     12  C   UNL     1      36.054 -25.217 -14.265  0.00  0.00    +0.051 C 
ATOM     13  C   UNL     1      36.881 -25.957 -15.110  0.00  0.00    +0.017 C 
ATOM     14  C   UNL     1      36.549 -24.729 -13.055  0.00  0.00    +0.017 C 
ATOM     15  C   UNL     1      38.204 -26.208 -14.745  0.00  0.00    +0.031 C 
ATOM     16  C   UNL     1      37.871 -24.981 -12.691  0.00  0.00    +0.031 C 
ATOM     17  C   UNL     1      38.699 -25.721 -13.536  0.00  0.00    +0.140 C 
ENDBRANCH   8  12
ENDBRANCH   3   9
BRANCH   4  19
ATOM     18  O   UNL     1      33.805 -23.868 -18.676  0.00  0.00    -0.270 OA
ATOM     19  N   UNL     1      32.505 -22.379 -17.413  0.00  0.00    -0.278 N 
ATOM     20  C   UNL     1      33.350 -22.730 -18.475  0.00  0.00    +0.250 C 
ATOM     21  H   UNL     1      32.226 -21.435 -17.383  0.00  0.00    +0.155 HD
BRANCH  20  22
ATOM     22  C   UNL     1      33.723 -21.649 -19.373  0.00  0.00    +0.054 C 
ATOM     23  C   UNL     1      32.738 -20.832 -19.928  0.00  0.00    +0.005 C 
ATOM     24  C   UNL     1      35.066 -21.428 -19.679  0.00  0.00    +0.005 C 
ATOM     25  C   UNL     1      33.094 -19.795 -20.790  0.00  0.00    +0.000 C 
ATOM     26  C   UNL     1      35.422 -20.390 -20.541  0.00  0.00    +0.000 C 
ATOM     27  C   UNL     1      34.437 -19.574 -21.095  0.00  0.00    +0.000 C 
ENDBRANCH  20  22
ENDBRANCH   4  19
TORSDOF 4
ENDMDL
MODEL 3
REMARK VINA RESULT:     -10.7      6.322      9.765
REMARK  Name = 24864078
REMARK  4 active torsions:
REMARK  status: ('A' for Active; 'I' for Inactive)
REMARK    1  A    between atoms: C_3  and  C_9
REMARK    2  A    between atoms: C_4  and  N_19
REMARK    3  A    between atoms: N_8  and  C_12
REMARK    4  A    between atoms: C_20  and  C_22
REMARK                            x       y       z     vdW  Elec       q    Type
REMARK                         _______ _______ _______ _____ _____    ______ ____
ROOT
ATOM      1  N   UNL     1      35.001 -17.622 -24.775  0.00  0.00    -0.230 N 
ATOM      2  N   UNL     1      34.793 -16.865 -25.865  0.00  0.00    -0.178 NA
ATOM      3  C   UNL     1      34.542 -17.064 -23.619  0.00  0.00    +0.134 C 
ATOM      4  C   UNL     1      33.994 -15.856 -23.978  0.00  0.00    +0.091 C 
ATOM      5  C   UNL     1      34.177 -15.788 -25.373  0.00  0.00    +0.134 C 
ATOM      6  H   UNL     1      35.446 -18.501 -24.808  0.00  0.00    +0.175 HD
ENDROOT
BRANCH   3   9
ATOM      7  O   UNL     1      34.835 -16.969 -21.314  0.00  0.00    -0.268 OA
ATOM      8  N   UNL     1      34.505 -19.081 -22.282  0.00  0.00    -0.279 N 
ATOM      9  C   UNL     1      34.647 -17.676 -22.334  0.00  0.00    +0.266 C 
ATOM     10  H   UNL     1      34.361 -19.521 -23.150  0.00  0.00    +0.155 HD
BRANCH   8  12
ATOM     11  F   UNL     1      34.637 -22.477 -17.900  0.00  0.00    -0.204 F 
ATOM     12  C   UNL     1      34.539 -19.949 -21.162  0.00  0.00    +0.051 C 
ATOM     13  C   UNL     1      35.764 -20.357 -20.633  0.00  0.00    +0.017 C 
ATOM     14  C   UNL     1      33.348 -20.396 -20.590  0.00  0.00    +0.017 C 
ATOM     15  C   UNL     1      35.797 -21.211 -19.530  0.00  0.00    +0.031 C 
ATOM     16  C   UNL     1      33.381 -21.250 -19.489  0.00  0.00    +0.031 C 
ATOM     17  C   UNL     1      34.605 -21.658 -18.958  0.00  0.00    +0.140 C 
ENDBRANCH   8  12
ENDBRANCH   3   9
BRANCH   4  19
ATOM     18  O   UNL     1      33.394 -12.953 -24.423  0.00  0.00    -0.270 OA
ATOM     19  N   UNL     1      33.384 -14.906 -23.123  0.00  0.00    -0.278 N 
ATOM     20  C   UNL     1      33.120 -13.551 -23.370  0.00  0.00    +0.250 C 
ATOM     21  H   UNL     1      33.110 -15.241 -22.239  0.00  0.00    +0.155 HD
BRANCH  20  22
ATOM     22  C   UNL     1      32.503 -12.816 -22.278  0.00  0.00    +0.054 C 
ATOM     23  C   UNL     1      31.904 -11.579 -22.521  0.00  0.00    +0.005 C 
ATOM     24  C   UNL     1      32.507 -13.347 -20.988  0.00  0.00    +0.005 C 
ATOM     25  C   UNL     1      31.312 -10.873 -21.474  0.00  0.00    +0.000 C 
ATOM     26  C   UNL     1      31.914 -12.641 -19.942  0.00  0.00    +0.000 C 
ATOM     27  C   UNL     1      31.317 -11.404 -20.184  0.00  0.00    +0.000 C 
ENDBRANCH  20  22
ENDBRANCH   4  19
TORSDOF 4
ENDMDL
MODEL 4
REMARK VINA RESULT:     -10.7      7.330     10.860
REMARK  Name = 24864078
REMARK  4 active torsions:
REMARK  status: ('A' for Active; 'I' for Inactive)
REMARK    1  A    between atoms: C_3  and  C_9
REMARK    2  A    between atoms: C_4  and  N_19
REMARK    3  A    between atoms: N_8  and  C_12
REMARK    4  A    between atoms: C_20  and  C_22
REMARK                            x       y       z     vdW  Elec       q    Type
REMARK                         _______ _______ _______ _____ _____    ______ ____
ROOT
ATOM      1  N   UNL     1      34.035 -16.137 -25.636  0.00  0.00    -0.230 N 
ATOM      2  N   UNL     1      33.472 -15.393 -26.603  0.00  0.00    -0.178 NA
ATOM      3  C   UNL     1      33.858 -15.636 -24.380  0.00  0.00    +0.134 C 
ATOM      4  C   UNL     1      33.129 -14.482 -24.536  0.00  0.00    +0.091 C 
ATOM      5  C   UNL     1      32.920 -14.384 -25.925  0.00  0.00    +0.134 C 
ATOM      6  H   UNL     1      34.530 -16.969 -25.818  0.00  0.00    +0.175 HD
ENDROOT
BRANCH   3   9
ATOM      7  O   UNL     1      34.631 -15.546 -22.188  0.00  0.00    -0.268 OA
ATOM      8  N   UNL     1      34.509 -17.653 -23.212  0.00  0.00    -0.279 N 
ATOM      9  C   UNL     1      34.363 -16.248 -23.193  0.00  0.00    +0.266 C 
ATOM     10  H   UNL     1      34.265 -18.090 -24.059  0.00  0.00    +0.155 HD
BRANCH   8  12
ATOM     11  F   UNL     1      36.263 -21.070 -19.212  0.00  0.00    -0.204 F 
ATOM     12  C   UNL     1      34.958 -18.526 -22.189  0.00  0.00    +0.051 C 
ATOM     13  C   UNL     1      34.056 -19.388 -21.563  0.00  0.00    +0.017 C 
ATOM     14  C   UNL     1      36.300 -18.524 -21.809  0.00  0.00    +0.017 C 
ATOM     15  C   UNL     1      34.498 -20.247 -20.557  0.00  0.00    +0.031 C 
ATOM     16  C   UNL     1      36.741 -19.383 -20.803  0.00  0.00    +0.031 C 
ATOM     17  C   UNL     1      35.840 -20.244 -20.176  0.00  0.00    +0.140 C 
ENDBRANCH   8  12
ENDBRANCH   3   9
BRANCH   4  19
ATOM     18  O   UNL     1      33.642 -11.555 -24.151  0.00  0.00    -0.270 OA
ATOM     19  N   UNL     1      32.692 -13.603 -23.515  0.00  0.00    -0.278 N 
ATOM     20  C   UNL     1      32.955 -12.233 -23.371  0.00  0.00    +0.250 C 
ATOM     21  H   UNL     1      32.130 -14.006 -22.815  0.00  0.00    +0.155 HD
BRANCH  20  22
ATOM     22  C   UNL     1      32.386 -11.599 -22.193  0.00  0.00    +0.054 C 
ATOM     23  C   UNL     1      32.039 -12.372 -21.084  0.00  0.00    +0.005 C 
ATOM     24  C   UNL     1      32.189 -10.219 -22.170  0.00  0.00    +0.005 C 
ATOM     25  C   UNL     1      31.493 -11.765 -19.953  0.00  0.00    +0.000 C 
ATOM     26  C   UNL     1      31.644  -9.612 -21.038  0.00  0.00    +0.000 C 
ATOM     27  C   UNL     1      31.296 -10.384 -19.931  0.00  0.00    +0.000 C 
ENDBRANCH  20  22
ENDBRANCH   4  19
TORSDOF 4
ENDMDL
MODEL 5
REMARK VINA RESULT:     -10.6      5.883      8.657
REMARK  Name = 24864078
REMARK  4 active torsions:
REMARK  status: ('A' for Active; 'I' for Inactive)
REMARK    1  A    between atoms: C_3  and  C_9
REMARK    2  A    between atoms: C_4  and  N_19
REMARK    3  A    between atoms: N_8  and  C_12
REMARK    4  A    between atoms: C_20  and  C_22
REMARK                            x       y       z     vdW  Elec       q    Type
REMARK                         _______ _______ _______ _____ _____    ______ ____
ROOT
ATOM      1  N   UNL     1      34.630 -16.163 -25.025  0.00  0.00    -0.230 N 
ATOM      2  N   UNL     1      34.926 -17.157 -25.880  0.00  0.00    -0.178 NA
ATOM      3  C   UNL     1      34.404 -16.583 -23.748  0.00  0.00    +0.134 C 
ATOM      4  C   UNL     1      34.563 -17.947 -23.767  0.00  0.00    +0.091 C 
ATOM      5  C   UNL     1      34.884 -18.244 -25.106  0.00  0.00    +0.134 C 
ATOM      6  H   UNL     1      34.580 -15.218 -25.297  0.00  0.00    +0.175 HD
ENDROOT
BRANCH   3   9
ATOM      7  O   UNL     1      34.649 -15.841 -21.557  0.00  0.00    -0.268 OA
ATOM      8  N   UNL     1      33.104 -14.717 -22.918  0.00  0.00    -0.279 N 
ATOM      9  C   UNL     1      34.072 -15.714 -22.664  0.00  0.00    +0.266 C 
ATOM     10  H   UNL     1      32.725 -14.720 -23.826  0.00  0.00    +0.155 HD
BRANCH   8  12
ATOM     11  F   UNL     1      31.123 -10.786 -19.545  0.00  0.00    -0.204 F 
ATOM     12  C   UNL     1      32.598 -13.712 -22.056  0.00  0.00    +0.051 C 
ATOM     13  C   UNL     1      32.073 -12.535 -22.590  0.00  0.00    +0.017 C 
ATOM     14  C   UNL     1      32.625 -13.901 -20.674  0.00  0.00    +0.017 C 
ATOM     15  C   UNL     1      31.575 -11.546 -21.741  0.00  0.00    +0.031 C 
ATOM     16  C   UNL     1      32.128 -12.912 -19.826  0.00  0.00    +0.031 C 
ATOM     17  C   UNL     1      31.603 -11.735 -20.359  0.00  0.00    +0.140 C 
ENDBRANCH   8  12
ENDBRANCH   3   9
BRANCH   4  19
ATOM     18  O   UNL     1      36.500 -18.641 -21.589  0.00  0.00    -0.270 OA
ATOM     19  N   UNL     1      34.431 -18.839 -22.675  0.00  0.00    -0.278 N 
ATOM     20  C   UNL     1      35.365 -19.137 -21.673  0.00  0.00    +0.250 C 
ATOM     21  H   UNL     1      33.570 -19.312 -22.611  0.00  0.00    +0.155 HD
BRANCH  20  22
ATOM     22  C   UNL     1      34.948 -20.124 -20.690  0.00  0.00    +0.054 C 
ATOM     23  C   UNL     1      35.905 -20.890 -20.023  0.00  0.00    +0.005 C 
ATOM     24  C   UNL     1      33.593 -20.306 -20.414  0.00  0.00    +0.005 C 
ATOM     25  C   UNL     1      35.507 -21.838 -19.081  0.00  0.00    +0.000 C 
ATOM     26  C   UNL     1      33.196 -21.253 -19.471  0.00  0.00    +0.000 C 
ATOM     27  C   UNL     1      34.152 -22.019 -18.804  0.00  0.00    +0.000 C 
ENDBRANCH  20  22
ENDBRANCH   4  19
TORSDOF 4
ENDMDL
MODEL 6
REMARK VINA RESULT:     -10.3      2.800      5.918
REMARK  Name = 24864078
REMARK  4 active torsions:
REMARK  status: ('A' for Active; 'I' for Inactive)
REMARK    1  A    between atoms: C_3  and  C_9
REMARK    2  A    between atoms: C_4  and  N_19
REMARK    3  A    between atoms: N_8  and  C_12
REMARK    4  A    between atoms: C_20  and  C_22
REMARK                            x       y       z     vdW  Elec       q    Type
REMARK                         _______ _______ _______ _____ _____    ______ ____
ROOT
ATOM      1  N   UNL     1      35.218 -24.921 -13.693  0.00  0.00    -0.230 N 
ATOM      2  N   UNL     1      36.508 -25.089 -14.030  0.00  0.00    -0.178 NA
ATOM      3  C   UNL     1      34.526 -24.112 -14.544  0.00  0.00    +0.134 C 
ATOM      4  C   UNL     1      35.427 -23.722 -15.506  0.00  0.00    +0.091 C 
ATOM      5  C   UNL     1      36.630 -24.354 -15.138  0.00  0.00    +0.134 C 
ATOM      6  H   UNL     1      34.810 -25.344 -12.903  0.00  0.00    +0.175 HD
ENDROOT
BRANCH   3   9
ATOM      7  O   UNL     1      32.721 -23.320 -13.309  0.00  0.00    -0.268 OA
ATOM      8  N   UNL     1      32.316 -23.983 -15.523  0.00  0.00    -0.279 N 
ATOM      9  C   UNL     1      33.145 -23.784 -14.396  0.00  0.00    +0.266 C 
ATOM     10  H   UNL     1      32.767 -24.352 -16.316  0.00  0.00    +0.155 HD
BRANCH   8  12
ATOM     11  F   UNL     1      26.895 -22.989 -16.131  0.00  0.00    -0.204 F 
ATOM     12  C   UNL     1      30.931 -23.729 -15.679  0.00  0.00    +0.051 C 
ATOM     13  C   UNL     1      29.995 -24.586 -15.098  0.00  0.00    +0.017 C 
ATOM     14  C   UNL     1      30.503 -22.622 -16.412  0.00  0.00    +0.017 C 
ATOM     15  C   UNL     1      28.631 -24.336 -15.252  0.00  0.00    +0.031 C 
ATOM     16  C   UNL     1      29.139 -22.373 -16.566  0.00  0.00    +0.031 C 
ATOM     17  C   UNL     1      28.203 -23.229 -15.986  0.00  0.00    +0.140 C 
ENDBRANCH   8  12
ENDBRANCH   3   9
BRANCH   4  19
ATOM     18  O   UNL     1      33.791 -24.185 -17.975  0.00  0.00    -0.270 OA
ATOM     19  N   UNL     1      35.181 -22.874 -16.614  0.00  0.00    -0.278 N 
ATOM     20  C   UNL     1      34.406 -23.129 -17.754  0.00  0.00    +0.250 C 
ATOM     21  H   UNL     1      35.610 -21.989 -16.578  0.00  0.00    +0.155 HD
BRANCH  20  22
ATOM     22  C   UNL     1      34.364 -22.065 -18.743  0.00  0.00    +0.054 C 
ATOM     23  C   UNL     1      33.136 -21.554 -19.165  0.00  0.00    +0.005 C 
ATOM     24  C   UNL     1      35.550 -21.553 -19.270  0.00  0.00    +0.005 C 
ATOM     25  C   UNL     1      33.094 -20.533 -20.115  0.00  0.00    +0.000 C 
ATOM     26  C   UNL     1      35.507 -20.532 -20.219  0.00  0.00    +0.000 C 
ATOM     27  C   UNL     1      34.281 -20.022 -20.641  0.00  0.00    +0.000 C 
ENDBRANCH  20  22
ENDBRANCH   4  19
TORSDOF 4
ENDMDL
MODEL 7
REMARK VINA RESULT:     -10.2      7.442     10.541
REMARK  Name = 24864078
REMARK  4 active torsions:
REMARK  status: ('A' for Active; 'I' for Inactive)
REMARK    1  A    between atoms: C_3  and  C_9
REMARK    2  A    between atoms: C_4  and  N_19
REMARK    3  A    between atoms: N_8  and  C_12
REMARK    4  A    between atoms: C_20  and  C_22
REMARK                            x       y       z     vdW  Elec       q    Type
REMARK                         _______ _______ _______ _____ _____    ______ ____
ROOT
ATOM      1  N   UNL     1      33.119 -14.187 -25.612  0.00  0.00    -0.230 N 
ATOM      2  N   UNL     1      33.247 -15.111 -26.579  0.00  0.00    -0.178 NA
ATOM      3  C   UNL     1      33.504 -14.622 -24.378  0.00  0.00    +0.134 C 
ATOM      4  C   UNL     1      33.914 -15.922 -24.550  0.00  0.00    +0.091 C 
ATOM      5  C   UNL     1      33.733 -16.168 -25.924  0.00  0.00    +0.134 C 
ATOM      6  H   UNL     1      32.777 -13.278 -25.778  0.00  0.00    +0.175 HD
ENDROOT
BRANCH   3   9
ATOM      7  O   UNL     1      34.341 -13.960 -22.311  0.00  0.00    -0.268 OA
ATOM      8  N   UNL     1      32.411 -12.882 -23.099  0.00  0.00    -0.279 N 
ATOM      9  C   UNL     1      33.460 -13.824 -23.195  0.00  0.00    +0.266 C 
ATOM     10  H   UNL     1      31.784 -12.872 -23.858  0.00  0.00    +0.155 HD
BRANCH   8  12
ATOM     11  F   UNL     1      31.304  -9.236 -19.071  0.00  0.00    -0.204 F 
ATOM     12  C   UNL     1      32.128 -11.950 -22.069  0.00  0.00    +0.051 C 
ATOM     13  C   UNL     1      32.116 -10.584 -22.350  0.00  0.00    +0.017 C 
ATOM     14  C   UNL     1      31.862 -12.400 -20.776  0.00  0.00    +0.017 C 
ATOM     15  C   UNL     1      31.837  -9.667 -21.336  0.00  0.00    +0.031 C 
ATOM     16  C   UNL     1      31.584 -11.483 -19.763  0.00  0.00    +0.031 C 
ATOM     17  C   UNL     1      31.572 -10.116 -20.043  0.00  0.00    +0.140 C 
ENDBRANCH   8  12
ENDBRANCH   3   9
BRANCH   4  19
ATOM     18  O   UNL     1      34.588 -18.839 -24.704  0.00  0.00    -0.270 OA
ATOM     19  N   UNL     1      34.406 -16.802 -23.555  0.00  0.00    -0.278 N 
ATOM     20  C   UNL     1      34.710 -18.166 -23.668  0.00  0.00    +0.250 C 
ATOM     21  H   UNL     1      34.554 -16.403 -22.667  0.00  0.00    +0.155 HD
BRANCH  20  22
ATOM     22  C   UNL     1      35.175 -18.815 -22.453  0.00  0.00    +0.054 C 
ATOM     23  C   UNL     1      34.311 -19.634 -21.725  0.00  0.00    +0.005 C 
ATOM     24  C   UNL     1      36.485 -18.620 -22.015  0.00  0.00    +0.005 C 
ATOM     25  C   UNL     1      34.756 -20.257 -20.560  0.00  0.00    +0.000 C 
ATOM     26  C   UNL     1      36.930 -19.244 -20.850  0.00  0.00    +0.000 C 
ATOM     27  C   UNL     1      36.067 -20.062 -20.122  0.00  0.00    +0.000 C 
ENDBRANCH  20  22
ENDBRANCH   4  19
TORSDOF 4
ENDMDL
MODEL 8
REMARK VINA RESULT:     -10.0      2.657      6.437
REMARK  Name = 24864078
REMARK  4 active torsions:
REMARK  status: ('A' for Active; 'I' for Inactive)
REMARK    1  A    between atoms: C_3  and  C_9
REMARK    2  A    between atoms: C_4  and  N_19
REMARK    3  A    between atoms: N_8  and  C_12
REMARK    4  A    between atoms: C_20  and  C_22
REMARK                            x       y       z     vdW  Elec       q    Type
REMARK                         _______ _______ _______ _____ _____    ______ ____
ROOT
ATOM      1  N   UNL     1      36.642 -23.633 -15.396  0.00  0.00    -0.230 N 
ATOM      2  N   UNL     1      37.896 -23.151 -15.446  0.00  0.00    -0.178 NA
ATOM      3  C   UNL     1      35.792 -23.050 -16.289  0.00  0.00    +0.134 C 
ATOM      4  C   UNL     1      36.542 -22.122 -16.971  0.00  0.00    +0.091 C 
ATOM      5  C   UNL     1      37.829 -22.229 -16.409  0.00  0.00    +0.134 C 
ATOM      6  H   UNL     1      36.363 -24.341 -14.772  0.00  0.00    +0.175 HD
ENDROOT
BRANCH   3   9
ATOM      7  O   UNL     1      33.936 -23.643 -17.559  0.00  0.00    -0.268 OA
ATOM      8  N   UNL     1      33.650 -23.455 -15.238  0.00  0.00    -0.279 N 
ATOM      9  C   UNL     1      34.413 -23.392 -16.426  0.00  0.00    +0.266 C 
ATOM     10  H   UNL     1      34.138 -23.237 -14.413  0.00  0.00    +0.155 HD
BRANCH   8  12
ATOM     11  F   UNL     1      28.302 -24.751 -14.547  0.00  0.00    -0.204 F 
ATOM     12  C   UNL     1      32.283 -23.787 -15.062  0.00  0.00    +0.051 C 
ATOM     13  C   UNL     1      31.921 -24.801 -14.175  0.00  0.00    +0.017 C 
ATOM     14  C   UNL     1      31.301 -23.098 -15.775  0.00  0.00    +0.017 C 
ATOM     15  C   UNL     1      30.575 -25.126 -14.001  0.00  0.00    +0.031 C 
ATOM     16  C   UNL     1      29.957 -23.425 -15.601  0.00  0.00    +0.031 C 
ATOM     17  C   UNL     1      29.593 -24.439 -14.715  0.00  0.00    +0.140 C 
ENDBRANCH   8  12
ENDBRANCH   3   9
BRANCH   4  19
ATOM     18  O   UNL     1      35.656 -22.745 -19.765  0.00  0.00    -0.270 OA
ATOM     19  N   UNL     1      36.102 -21.260 -18.005  0.00  0.00    -0.278 N 
ATOM     20  C   UNL     1      35.694 -21.593 -19.304  0.00  0.00    +0.250 C 
ATOM     21  H   UNL     1      36.079 -20.302 -17.782  0.00  0.00    +0.155 HD
BRANCH  20  22
ATOM     22  C   UNL     1      35.320 -20.476 -20.157  0.00  0.00    +0.054 C 
ATOM     23  C   UNL     1      36.305 -19.634 -20.675  0.00  0.00    +0.005 C 
ATOM     24  C   UNL     1      33.978 -20.247 -20.459  0.00  0.00    +0.005 C 
ATOM     25  C   UNL     1      35.948 -18.562 -21.492  0.00  0.00    +0.000 C 
ATOM     26  C   UNL     1      33.621 -19.175 -21.277  0.00  0.00    +0.000 C 
ATOM     27  C   UNL     1      34.605 -18.334 -21.794  0.00  0.00    +0.000 C 
ENDBRANCH  20  22
ENDBRANCH   4  19
TORSDOF 4
ENDMDL
MODEL 9
REMARK VINA RESULT:      -9.9      2.809      6.005
REMARK  Name = 24864078
REMARK  4 active torsions:
REMARK  status: ('A' for Active; 'I' for Inactive)
REMARK    1  A    between atoms: C_3  and  C_9
REMARK    2  A    between atoms: C_4  and  N_19
REMARK    3  A    between atoms: N_8  and  C_12
REMARK    4  A    between atoms: C_20  and  C_22
REMARK                            x       y       z     vdW  Elec       q    Type
REMARK                         _______ _______ _______ _____ _____    ______ ____
ROOT
ATOM      1  N   UNL     1      36.681 -24.988 -12.805  0.00  0.00    -0.230 N 
ATOM      2  N   UNL     1      37.963 -25.057 -13.203  0.00  0.00    -0.178 NA
ATOM      3  C   UNL     1      35.847 -24.430 -13.728  0.00  0.00    +0.134 C 
ATOM      4  C   UNL     1      36.638 -24.111 -14.805  0.00  0.00    +0.091 C 
ATOM      5  C   UNL     1      37.931 -24.521 -14.424  0.00  0.00    +0.134 C 
ATOM      6  H   UNL     1      36.372 -25.311 -11.928  0.00  0.00    +0.175 HD
ENDROOT
BRANCH   3   9
ATOM      7  O   UNL     1      33.993 -23.996 -12.393  0.00  0.00    -0.268 OA
ATOM      8  N   UNL     1      33.625 -24.341 -14.685  0.00  0.00    -0.279 N 
ATOM      9  C   UNL     1      34.444 -24.248 -13.537  0.00  0.00    +0.266 C 
ATOM     10  H   UNL     1      34.099 -24.542 -15.523  0.00  0.00    +0.155 HD
BRANCH   8  12
ATOM     11  F   UNL     1      28.134 -23.733 -15.158  0.00  0.00    -0.204 F 
ATOM     12  C   UNL     1      32.222 -24.185 -14.805  0.00  0.00    +0.051 C 
ATOM     13  C   UNL     1      31.699 -23.131 -15.556  0.00  0.00    +0.017 C 
ATOM     14  C   UNL     1      31.364 -25.086 -14.174  0.00  0.00    +0.017 C 
ATOM     15  C   UNL     1      30.317 -22.979 -15.675  0.00  0.00    +0.031 C 
ATOM     16  C   UNL     1      29.983 -24.932 -14.293  0.00  0.00    +0.031 C 
ATOM     17  C   UNL     1      29.459 -23.879 -15.043  0.00  0.00    +0.140 C 
ENDBRANCH   8  12
ENDBRANCH   3   9
BRANCH   4  19
ATOM     18  O   UNL     1      37.563 -21.581 -16.120  0.00  0.00    -0.270 OA
ATOM     19  N   UNL     1      36.228 -23.507 -16.019  0.00  0.00    -0.278 N 
ATOM     20  C   UNL     1      36.688 -22.318 -16.602  0.00  0.00    +0.250 C 
ATOM     21  H   UNL     1      35.528 -23.986 -16.519  0.00  0.00    +0.155 HD
BRANCH  20  22
ATOM     22  C   UNL     1      36.050 -21.936 -17.851  0.00  0.00    +0.054 C 
ATOM     23  C   UNL     1      34.722 -22.292 -18.093  0.00  0.00    +0.005 C 
ATOM     24  C   UNL     1      36.763 -21.214 -18.808  0.00  0.00    +0.005 C 
ATOM     25  C   UNL     1      34.108 -21.927 -19.291  0.00  0.00    +0.000 C 
ATOM     26  C   UNL     1      36.149 -20.848 -20.005  0.00  0.00    +0.000 C 
ATOM     27  C   UNL     1      34.822 -21.204 -20.247  0.00  0.00    +0.000 C 
ENDBRANCH  20  22
ENDBRANCH   4  19
TORSDOF 4
ENDMDL
