MODEL 1
REMARK VINA RESULT:      -8.1      0.000      0.000
REMARK  Name = 9906614
REMARK  2 active torsions:
REMARK  status: ('A' for Active; 'I' for Inactive)
REMARK    1  A    between atoms: C_7  and  C_24
REMARK    2  A    between atoms: C_7  and  O_26
REMARK                            x       y       z     vdW  Elec       q    Type
REMARK                         _______ _______ _______ _____ _____    ______ ____
ROOT
ATOM      1  O   UNL     1      34.909 -17.676 -22.933  0.00  0.00    -0.291 OA
ATOM      2  C   UNL     1      33.075  -9.350 -23.484  0.00  0.00    +0.033 C 
ATOM      3  C   UNL     1      32.895 -10.234 -22.216  0.00  0.00    +0.011 C 
ATOM      4  C   UNL     1      32.509 -11.681 -22.559  0.00  0.00    +0.022 C 
ATOM      5  C   UNL     1      33.659 -12.298 -23.407  0.00  0.00    +0.008 C 
ATOM      6  C   UNL     1      34.211  -9.963 -24.323  0.00  0.00    +0.003 C 
ATOM      7  C   UNL     1      33.364  -7.974 -22.816  0.00  0.00    +0.154 C 
ATOM      8  C   UNL     1      33.422 -13.828 -23.664  0.00  0.00    +0.019 C 
ATOM      9  C   UNL     1      33.949 -11.443 -24.666  0.00  0.00    +0.001 C 
ATOM     10  C   UNL     1      31.957  -9.406 -21.336  0.00  0.00    +0.025 C 
ATOM     11  C   UNL     1      32.424  -7.992 -21.620  0.00  0.00    -0.014 C 
ATOM     12  C   UNL     1      31.792  -9.268 -24.363  0.00  0.00    +0.003 C 
ATOM     13  C   UNL     1      32.231 -12.531 -21.350  0.00  0.00    -0.031 C 
ATOM     14  C   UNL     1      33.295 -14.546 -22.302  0.00  0.00    -0.024 C 
ATOM     15  C   UNL     1      34.637 -14.399 -24.446  0.00  0.00    +0.012 C 
ATOM     16  C   UNL     1      32.594 -13.823 -21.222  0.00  0.00    -0.030 C 
ATOM     17  C   UNL     1      32.133 -14.081 -24.484  0.00  0.00    +0.004 C 
ATOM     18  C   UNL     1      34.647 -15.918 -24.529  0.00  0.00    +0.069 C 
ATOM     19  C   UNL     1      33.811 -15.774 -22.100  0.00  0.00    +0.033 C 
ATOM     20  C   UNL     1      32.052  -6.937 -20.882  0.00  0.00    -0.006 C 
ATOM     21  C   UNL     1      34.505 -16.537 -23.166  0.00  0.00    +0.173 C 
ATOM     22  C   UNL     1      32.237 -14.554 -19.952  0.00  0.00    +0.030 C 
ENDROOT
BRANCH   7  24
ATOM     23  O   UNL     1      32.130  -6.088 -23.616  0.00  0.00    -0.293 OA
ATOM     24  C   UNL     1      33.139  -6.783 -23.709  0.00  0.00    +0.178 C 
ATOM     25  C   UNL     1      34.213  -6.482 -24.720  0.00  0.00    +0.075 C 
ENDBRANCH   7  24
BRANCH   7  26
ATOM     26  O   UNL     1      34.691  -7.881 -22.315  0.00  0.00    -0.376 OA
ATOM     27  H   UNL     1      35.216  -7.309 -22.895  0.00  0.00    +0.211 HD
ENDBRANCH   7  26
TORSDOF 2
ENDMDL
MODEL 2
REMARK VINA RESULT:      -7.6     12.337     15.902
REMARK  Name = 9906614
REMARK  2 active torsions:
REMARK  status: ('A' for Active; 'I' for Inactive)
REMARK    1  A    between atoms: C_7  and  C_24
REMARK    2  A    between atoms: C_7  and  O_26
REMARK                            x       y       z     vdW  Elec       q    Type
REMARK                         _______ _______ _______ _____ _____    ______ ____
ROOT
ATOM      1  O   UNL     1      28.114 -21.819 -16.435  0.00  0.00    -0.291 OA
ATOM      2  C   UNL     1      35.828 -24.353 -13.780  0.00  0.00    +0.033 C 
ATOM      3  C   UNL     1      35.536 -23.566 -15.090  0.00  0.00    +0.011 C 
ATOM      4  C   UNL     1      34.181 -23.941 -15.710  0.00  0.00    +0.022 C 
ATOM      5  C   UNL     1      33.067 -23.583 -14.685  0.00  0.00    +0.008 C 
ATOM      6  C   UNL     1      34.724 -24.000 -12.767  0.00  0.00    +0.003 C 
ATOM      7  C   UNL     1      37.261 -23.830 -13.464  0.00  0.00    +0.154 C 
ATOM      8  C   UNL     1      31.638 -23.781 -15.300  0.00  0.00    +0.019 C 
ATOM      9  C   UNL     1      33.313 -24.280 -13.323  0.00  0.00    +0.001 C 
ATOM     10  C   UNL     1      36.809 -23.765 -15.916  0.00  0.00    +0.025 C 
ATOM     11  C   UNL     1      37.885 -23.740 -14.848  0.00  0.00    -0.014 C 
ATOM     12  C   UNL     1      35.848 -25.897 -13.983  0.00  0.00    +0.003 C 
ATOM     13  C   UNL     1      33.918 -23.268 -17.030  0.00  0.00    -0.031 C 
ATOM     14  C   UNL     1      31.519 -22.909 -16.570  0.00  0.00    -0.024 C 
ATOM     15  C   UNL     1      30.575 -23.335 -14.258  0.00  0.00    +0.012 C 
ATOM     16  C   UNL     1      32.721 -22.789 -17.420  0.00  0.00    -0.030 C 
ATOM     17  C   UNL     1      31.376 -25.258 -15.685  0.00  0.00    +0.004 C 
ATOM     18  C   UNL     1      29.169 -23.236 -14.827  0.00  0.00    +0.069 C 
ATOM     19  C   UNL     1      30.374 -22.272 -16.885  0.00  0.00    +0.033 C 
ATOM     20  C   UNL     1      39.191 -23.633 -15.128  0.00  0.00    -0.006 C 
ATOM     21  C   UNL     1      29.143 -22.384 -16.066  0.00  0.00    +0.173 C 
ATOM     22  C   UNL     1      32.605 -22.146 -18.780  0.00  0.00    +0.030 C 
ENDROOT
BRANCH   7  24
ATOM     23  O   UNL     1      37.972 -24.581 -11.307  0.00  0.00    -0.293 OA
ATOM     24  C   UNL     1      38.055 -24.702 -12.528  0.00  0.00    +0.178 C 
ATOM     25  C   UNL     1      38.952 -25.732 -13.159  0.00  0.00    +0.075 C 
ENDBRANCH   7  24
BRANCH   7  26
ATOM     26  O   UNL     1      37.250 -22.520 -12.913  0.00  0.00    -0.376 OA
ATOM     27  H   UNL     1      37.857 -21.954 -13.414  0.00  0.00    +0.211 HD
ENDBRANCH   7  26
TORSDOF 2
ENDMDL
MODEL 3
REMARK VINA RESULT:      -7.3      2.191      8.345
REMARK  Name = 9906614
REMARK  2 active torsions:
REMARK  status: ('A' for Active; 'I' for Inactive)
REMARK    1  A    between atoms: C_7  and  C_24
REMARK    2  A    between atoms: C_7  and  O_26
REMARK                            x       y       z     vdW  Elec       q    Type
REMARK                         _______ _______ _______ _____ _____    ______ ____
ROOT
ATOM      1  O   UNL     1      33.662  -9.048 -24.755  0.00  0.00    -0.291 OA
ATOM      2  C   UNL     1      34.548 -17.200 -22.361  0.00  0.00    +0.033 C 
ATOM      3  C   UNL     1      34.541 -16.684 -23.829  0.00  0.00    +0.011 C 
ATOM      4  C   UNL     1      33.614 -15.474 -24.021  0.00  0.00    +0.022 C 
ATOM      5  C   UNL     1      34.136 -14.320 -23.116  0.00  0.00    +0.008 C 
ATOM      6  C   UNL     1      35.061 -16.057 -21.467  0.00  0.00    +0.003 C 
ATOM      7  C   UNL     1      35.478 -18.440 -22.514  0.00  0.00    +0.154 C 
ATOM      8  C   UNL     1      33.344 -12.990 -23.373  0.00  0.00    +0.019 C 
ATOM      9  C   UNL     1      34.233 -14.768 -21.637  0.00  0.00    +0.001 C 
ATOM     10  C   UNL     1      34.286 -17.950 -24.650  0.00  0.00    +0.025 C 
ATOM     11  C   UNL     1      35.057 -18.995 -23.866  0.00  0.00    -0.014 C 
ATOM     12  C   UNL     1      33.140 -17.638 -21.857  0.00  0.00    +0.003 C 
ATOM     13  C   UNL     1      33.513 -15.017 -25.450  0.00  0.00    -0.031 C 
ATOM     14  C   UNL     1      33.470 -12.618 -24.867  0.00  0.00    -0.024 C 
ATOM     15  C   UNL     1      33.960 -11.863 -22.499  0.00  0.00    +0.012 C 
ATOM     16  C   UNL     1      33.459 -13.729 -25.841  0.00  0.00    -0.030 C 
ATOM     17  C   UNL     1      31.843 -13.136 -23.020  0.00  0.00    +0.004 C 
ATOM     18  C   UNL     1      33.449 -10.474 -22.850  0.00  0.00    +0.069 C 
ATOM     19  C   UNL     1      33.597 -11.339 -25.269  0.00  0.00    +0.033 C 
ATOM     20  C   UNL     1      35.324 -20.218 -24.345  0.00  0.00    -0.006 C 
ATOM     21  C   UNL     1      33.594 -10.197 -24.321  0.00  0.00    +0.173 C 
ATOM     22  C   UNL     1      33.347 -13.421 -27.313  0.00  0.00    +0.030 C 
ENDROOT
BRANCH   7  24
ATOM     23  O   UNL     1      34.318 -20.088 -21.226  0.00  0.00    -0.293 OA
ATOM     24  C   UNL     1      35.356 -19.456 -21.409  0.00  0.00    +0.178 C 
ATOM     25  C   UNL     1      36.570 -19.663 -20.543  0.00  0.00    +0.075 C 
ENDBRANCH   7  24
BRANCH   7  26
ATOM     26  O   UNL     1      36.850 -18.080 -22.607  0.00  0.00    -0.376 OA
ATOM     27  H   UNL     1      36.986 -17.213 -22.195  0.00  0.00    +0.211 HD
ENDBRANCH   7  26
TORSDOF 2
ENDMDL
MODEL 4
REMARK VINA RESULT:      -6.7      1.781      7.775
REMARK  Name = 9906614
REMARK  2 active torsions:
REMARK  status: ('A' for Active; 'I' for Inactive)
REMARK    1  A    between atoms: C_7  and  C_24
REMARK    2  A    between atoms: C_7  and  O_26
REMARK                            x       y       z     vdW  Elec       q    Type
REMARK                         _______ _______ _______ _____ _____    ______ ____
ROOT
ATOM      1  O   UNL     1      32.150  -7.249 -20.470  0.00  0.00    -0.291 OA
ATOM      2  C   UNL     1      33.279 -15.674 -21.317  0.00  0.00    +0.033 C 
ATOM      3  C   UNL     1      33.663 -14.599 -22.374  0.00  0.00    +0.011 C 
ATOM      4  C   UNL     1      32.696 -13.405 -22.376  0.00  0.00    +0.022 C 
ATOM      5  C   UNL     1      32.759 -12.734 -20.974  0.00  0.00    +0.008 C 
ATOM      6  C   UNL     1      33.339 -15.007 -19.931  0.00  0.00    +0.003 C 
ATOM      7  C   UNL     1      34.361 -16.752 -21.621  0.00  0.00    +0.154 C 
ATOM      8  C   UNL     1      31.923 -11.406 -20.938  0.00  0.00    +0.019 C 
ATOM      9  C   UNL     1      32.447 -13.752 -19.850  0.00  0.00    +0.001 C 
ATOM     10  C   UNL     1      33.840 -15.411 -23.659  0.00  0.00    +0.025 C 
ATOM     11  C   UNL     1      34.455 -16.696 -23.139  0.00  0.00    -0.014 C 
ATOM     12  C   UNL     1      31.852 -16.262 -21.530  0.00  0.00    +0.003 C 
ATOM     13  C   UNL     1      32.987 -12.399 -23.456  0.00  0.00    -0.031 C 
ATOM     14  C   UNL     1      32.459 -10.453 -22.031  0.00  0.00    -0.024 C 
ATOM     15  C   UNL     1      32.088 -10.746 -19.542  0.00  0.00    +0.012 C 
ATOM     16  C   UNL     1      32.893 -11.064 -23.303  0.00  0.00    -0.030 C 
ATOM     17  C   UNL     1      30.419 -11.665 -21.198  0.00  0.00    +0.004 C 
ATOM     18  C   UNL     1      31.539  -9.330 -19.469  0.00  0.00    +0.069 C 
ATOM     19  C   UNL     1      32.541  -9.123 -21.830  0.00  0.00    +0.033 C 
ATOM     20  C   UNL     1      35.012 -17.616 -23.938  0.00  0.00    -0.006 C 
ATOM     21  C   UNL     1      32.097  -8.474 -20.572  0.00  0.00    +0.173 C 
ATOM     22  C   UNL     1      33.206 -10.176 -24.482  0.00  0.00    +0.030 C 
ENDROOT
BRANCH   7  24
ATOM     23  O   UNL     1      32.876 -18.472 -20.873  0.00  0.00    -0.293 OA
ATOM     24  C   UNL     1      34.032 -18.131 -21.114  0.00  0.00    +0.178 C 
ATOM     25  C   UNL     1      35.189 -19.075 -20.921  0.00  0.00    +0.075 C 
ENDBRANCH   7  24
BRANCH   7  26
ATOM     26  O   UNL     1      35.636 -16.404 -21.100  0.00  0.00    -0.376 OA
ATOM     27  H   UNL     1      35.837 -16.965 -20.335  0.00  0.00    +0.211 HD
ENDBRANCH   7  26
TORSDOF 2
ENDMDL
MODEL 5
REMARK VINA RESULT:      -6.2      2.841      5.516
REMARK  Name = 9906614
REMARK  2 active torsions:
REMARK  status: ('A' for Active; 'I' for Inactive)
REMARK    1  A    between atoms: C_7  and  C_24
REMARK    2  A    between atoms: C_7  and  O_26
REMARK                            x       y       z     vdW  Elec       q    Type
REMARK                         _______ _______ _______ _____ _____    ______ ____
ROOT
ATOM      1  O   UNL     1      32.131 -13.427 -22.311  0.00  0.00    -0.291 OA
ATOM      2  C   UNL     1      31.616  -5.043 -23.868  0.00  0.00    +0.033 C 
ATOM      3  C   UNL     1      32.539  -6.047 -24.618  0.00  0.00    +0.011 C 
ATOM      4  C   UNL     1      33.041  -7.177 -23.705  0.00  0.00    +0.022 C 
ATOM      5  C   UNL     1      31.802  -7.966 -23.190  0.00  0.00    +0.008 C 
ATOM      6  C   UNL     1      30.393  -5.825 -23.357  0.00  0.00    +0.003 C 
ATOM      7  C   UNL     1      31.360  -4.010 -25.005  0.00  0.00    +0.154 C 
ATOM      8  C   UNL     1      32.232  -9.239 -22.381  0.00  0.00    +0.019 C 
ATOM      9  C   UNL     1      30.796  -7.027 -22.479  0.00  0.00    +0.001 C 
ATOM     10  C   UNL     1      33.562  -5.143 -25.309  0.00  0.00    +0.025 C 
ATOM     11  C   UNL     1      32.715  -3.946 -25.694  0.00  0.00    -0.014 C 
ATOM     12  C   UNL     1      32.313  -4.355 -22.657  0.00  0.00    +0.003 C 
ATOM     13  C   UNL     1      34.013  -8.105 -24.379  0.00  0.00    -0.031 C 
ATOM     14  C   UNL     1      33.114 -10.128 -23.286  0.00  0.00    -0.024 C 
ATOM     15  C   UNL     1      30.957 -10.022 -21.961  0.00  0.00    +0.012 C 
ATOM     16  C   UNL     1      34.045  -9.441 -24.204  0.00  0.00    -0.030 C 
ATOM     17  C   UNL     1      33.036  -8.870 -21.110  0.00  0.00    +0.004 C 
ATOM     18  C   UNL     1      31.249 -11.404 -21.398  0.00  0.00    +0.069 C 
ATOM     19  C   UNL     1      33.032 -11.472 -23.252  0.00  0.00    +0.033 C 
ATOM     20  C   UNL     1      33.133  -2.997 -26.543  0.00  0.00    -0.006 C 
ATOM     21  C   UNL     1      32.123 -12.197 -22.330  0.00  0.00    +0.173 C 
ATOM     22  C   UNL     1      35.087 -10.245 -24.940  0.00  0.00    +0.030 C 
ENDROOT
BRANCH   7  24
ATOM     23  O   UNL     1      29.736  -2.276 -24.724  0.00  0.00    -0.293 OA
ATOM     24  C   UNL     1      30.888  -2.661 -24.532  0.00  0.00    +0.178 C 
ATOM     25  C   UNL     1      31.895  -1.807 -23.810  0.00  0.00    +0.075 C 
ENDBRANCH   7  24
BRANCH   7  26
ATOM     26  O   UNL     1      30.416  -4.477 -25.960  0.00  0.00    -0.376 OA
ATOM     27  H   UNL     1      29.613  -3.935 -25.912  0.00  0.00    +0.211 HD
ENDBRANCH   7  26
TORSDOF 2
ENDMDL
MODEL 6
REMARK VINA RESULT:      -6.0      1.312      1.586
REMARK  Name = 9906614
REMARK  2 active torsions:
REMARK  status: ('A' for Active; 'I' for Inactive)
REMARK    1  A    between atoms: C_7  and  C_24
REMARK    2  A    between atoms: C_7  and  O_26
REMARK                            x       y       z     vdW  Elec       q    Type
REMARK                         _______ _______ _______ _____ _____    ______ ____
ROOT
ATOM      1  O   UNL     1      34.049 -16.628 -21.044  0.00  0.00    -0.291 OA
ATOM      2  C   UNL     1      33.136  -8.623 -23.883  0.00  0.00    +0.033 C 
ATOM      3  C   UNL     1      32.816  -9.113 -22.441  0.00  0.00    +0.011 C 
ATOM      4  C   UNL     1      32.291 -10.557 -22.415  0.00  0.00    +0.022 C 
ATOM      5  C   UNL     1      33.399 -11.483 -22.995  0.00  0.00    +0.008 C 
ATOM      6  C   UNL     1      34.231  -9.541 -24.456  0.00  0.00    +0.003 C 
ATOM      7  C   UNL     1      33.546  -7.150 -23.583  0.00  0.00    +0.154 C 
ATOM      8  C   UNL     1      33.010 -12.996 -22.856  0.00  0.00    +0.019 C 
ATOM      9  C   UNL     1      33.824 -11.028 -24.414  0.00  0.00    +0.001 C 
ATOM     10  C   UNL     1      31.940  -7.996 -21.872  0.00  0.00    +0.025 C 
ATOM     11  C   UNL     1      32.565  -6.759 -22.487  0.00  0.00    -0.014 C 
ATOM     12  C   UNL     1      31.902  -8.660 -24.833  0.00  0.00    +0.003 C 
ATOM     13  C   UNL     1      31.880 -11.022 -21.045  0.00  0.00    -0.031 C 
ATOM     14  C   UNL     1      32.756 -13.308 -21.363  0.00  0.00    -0.024 C 
ATOM     15  C   UNL     1      34.185 -13.867 -23.380  0.00  0.00    +0.012 C 
ATOM     16  C   UNL     1      32.098 -12.259 -20.559  0.00  0.00    -0.030 C 
ATOM     17  C   UNL     1      31.732 -13.339 -23.660  0.00  0.00    +0.004 C 
ATOM     18  C   UNL     1      34.036 -15.347 -23.059  0.00  0.00    +0.069 C 
ATOM     19  C   UNL     1      33.131 -14.479 -20.812  0.00  0.00    +0.033 C 
ATOM     20  C   UNL     1      32.281  -5.515 -22.079  0.00  0.00    -0.006 C 
ATOM     21  C   UNL     1      33.778 -15.562 -21.593  0.00  0.00    +0.173 C 
ATOM     22  C   UNL     1      31.618 -12.586 -19.167  0.00  0.00    +0.030 C 
ENDROOT
BRANCH   7  24
ATOM     23  O   UNL     1      34.419  -6.126 -25.561  0.00  0.00    -0.293 OA
ATOM     24  C   UNL     1      33.482  -6.227 -24.771  0.00  0.00    +0.178 C 
ATOM     25  C   UNL     1      32.214  -5.437 -24.946  0.00  0.00    +0.075 C 
ENDBRANCH   7  24
BRANCH   7  26
ATOM     26  O   UNL     1      34.856  -7.051 -23.041  0.00  0.00    -0.376 OA
ATOM     27  H   UNL     1      35.416  -6.537 -23.642  0.00  0.00    +0.211 HD
ENDBRANCH   7  26
TORSDOF 2
ENDMDL
MODEL 7
REMARK VINA RESULT:      -5.9      1.830      3.733
REMARK  Name = 9906614
REMARK  2 active torsions:
REMARK  status: ('A' for Active; 'I' for Inactive)
REMARK    1  A    between atoms: C_7  and  C_24
REMARK    2  A    between atoms: C_7  and  O_26
REMARK                            x       y       z     vdW  Elec       q    Type
REMARK                         _______ _______ _______ _____ _____    ______ ____
ROOT
ATOM      1  O   UNL     1      33.433 -16.082 -25.863  0.00  0.00    -0.291 OA
ATOM      2  C   UNL     1      32.208  -8.333 -22.482  0.00  0.00    +0.033 C 
ATOM      3  C   UNL     1      32.817  -8.622 -23.884  0.00  0.00    +0.011 C 
ATOM      4  C   UNL     1      33.640  -9.919 -23.911  0.00  0.00    +0.022 C 
ATOM      5  C   UNL     1      32.690 -11.099 -23.555  0.00  0.00    +0.008 C 
ATOM      6  C   UNL     1      31.270  -9.502 -22.131  0.00  0.00    +0.003 C 
ATOM      7  C   UNL     1      31.535  -6.956 -22.758  0.00  0.00    +0.154 C 
ATOM      8  C   UNL     1      33.411 -12.483 -23.718  0.00  0.00    +0.019 C 
ATOM      9  C   UNL     1      31.989 -10.864 -22.194  0.00  0.00    +0.001 C 
ATOM     10  C   UNL     1      33.501  -7.304 -24.254  0.00  0.00    +0.025 C 
ATOM     11  C   UNL     1      32.546  -6.279 -23.671  0.00  0.00    -0.014 C 
ATOM     12  C   UNL     1      33.281  -8.197 -21.362  0.00  0.00    +0.003 C 
ATOM     13  C   UNL     1      34.322 -10.170 -25.227  0.00  0.00    -0.031 C 
ATOM     14  C   UNL     1      33.924 -12.607 -25.171  0.00  0.00    -0.024 C 
ATOM     15  C   UNL     1      32.392 -13.618 -23.425  0.00  0.00    +0.012 C 
ATOM     16  C   UNL     1      34.444 -11.380 -25.808  0.00  0.00    -0.030 C 
ATOM     17  C   UNL     1      34.613 -12.624 -22.752  0.00  0.00    +0.004 C 
ATOM     18  C   UNL     1      32.898 -15.002 -23.800  0.00  0.00    +0.069 C 
ATOM     19  C   UNL     1      33.889 -13.778 -25.835  0.00  0.00    +0.033 C 
ATOM     20  C   UNL     1      32.608  -4.973 -23.963  0.00  0.00    -0.006 C 
ATOM     21  C   UNL     1      33.391 -15.034 -25.221  0.00  0.00    +0.173 C 
ATOM     22  C   UNL     1      35.165 -11.481 -27.129  0.00  0.00    +0.030 C 
ENDROOT
BRANCH   7  24
ATOM     23  O   UNL     1      31.932  -6.228 -20.514  0.00  0.00    -0.293 OA
ATOM     24  C   UNL     1      31.237  -6.145 -21.525  0.00  0.00    +0.178 C 
ATOM     25  C   UNL     1      30.050  -5.223 -21.591  0.00  0.00    +0.075 C 
ENDBRANCH   7  24
BRANCH   7  26
ATOM     26  O   UNL     1      30.319  -7.082 -23.484  0.00  0.00    -0.376 OA
ATOM     27  H   UNL     1      30.453  -6.774 -24.393  0.00  0.00    +0.211 HD
ENDBRANCH   7  26
TORSDOF 2
ENDMDL
MODEL 8
REMARK VINA RESULT:      -5.7     13.728     16.046
REMARK  Name = 9906614
REMARK  2 active torsions:
REMARK  status: ('A' for Active; 'I' for Inactive)
REMARK    1  A    between atoms: C_7  and  C_24
REMARK    2  A    between atoms: C_7  and  O_26
REMARK                            x       y       z     vdW  Elec       q    Type
REMARK                         _______ _______ _______ _____ _____    ______ ____
ROOT
ATOM      1  O   UNL     1      27.447 -23.747 -16.239  0.00  0.00    -0.291 OA
ATOM      2  C   UNL     1      35.899 -23.989 -15.020  0.00  0.00    +0.033 C 
ATOM      3  C   UNL     1      34.837 -24.718 -14.147  0.00  0.00    +0.011 C 
ATOM      4  C   UNL     1      33.525 -23.927 -14.035  0.00  0.00    +0.022 C 
ATOM      5  C   UNL     1      32.934 -23.772 -15.466  0.00  0.00    +0.008 C 
ATOM      6  C   UNL     1      35.311 -23.834 -16.435  0.00  0.00    +0.003 C 
ATOM      7  C   UNL     1      37.098 -24.970 -14.865  0.00  0.00    +0.154 C 
ATOM      8  C   UNL     1      31.508 -23.117 -15.428  0.00  0.00    +0.019 C 
ATOM      9  C   UNL     1      33.952 -23.106 -16.425  0.00  0.00    +0.001 C 
ATOM     10  C   UNL     1      35.605 -25.063 -12.869  0.00  0.00    +0.025 C 
ATOM     11  C   UNL     1      36.984 -25.392 -13.408  0.00  0.00    -0.014 C 
ATOM     12  C   UNL     1      36.278 -22.579 -14.477  0.00  0.00    +0.003 C 
ATOM     13  C   UNL     1      32.518 -24.562 -13.115  0.00  0.00    -0.031 C 
ATOM     14  C   UNL     1      30.587 -23.986 -14.542  0.00  0.00    -0.024 C 
ATOM     15  C   UNL     1      30.943 -23.061 -16.874  0.00  0.00    +0.012 C 
ATOM     16  C   UNL     1      31.191 -24.603 -13.344  0.00  0.00    -0.030 C 
ATOM     17  C   UNL     1      31.549 -21.683 -14.847  0.00  0.00    +0.004 C 
ATOM     18  C   UNL     1      29.470 -22.687 -16.937  0.00  0.00    +0.069 C 
ATOM     19  C   UNL     1      29.291 -24.186 -14.853  0.00  0.00    +0.033 C 
ATOM     20  C   UNL     1      37.933 -25.988 -12.674  0.00  0.00    -0.006 C 
ATOM     21  C   UNL     1      28.647 -23.568 -16.038  0.00  0.00    +0.173 C 
ATOM     22  C   UNL     1      30.299 -25.266 -12.324  0.00  0.00    +0.030 C 
ENDROOT
BRANCH   7  24
ATOM     23  O   UNL     1      38.550 -23.243 -15.658  0.00  0.00    -0.293 OA
ATOM     24  C   UNL     1      38.442 -24.375 -15.191  0.00  0.00    +0.178 C 
ATOM     25  C   UNL     1      39.647 -25.232 -14.912  0.00  0.00    +0.075 C 
ENDBRANCH   7  24
BRANCH   7  26
ATOM     26  O   UNL     1      36.950 -26.138 -15.661  0.00  0.00    -0.376 OA
ATOM     27  H   UNL     1      36.137 -26.601 -15.407  0.00  0.00    +0.211 HD
ENDBRANCH   7  26
TORSDOF 2
ENDMDL
MODEL 9
REMARK VINA RESULT:      -5.6      1.462      7.544
REMARK  Name = 9906614
REMARK  2 active torsions:
REMARK  status: ('A' for Active; 'I' for Inactive)
REMARK    1  A    between atoms: C_7  and  C_24
REMARK    2  A    between atoms: C_7  and  O_26
REMARK                            x       y       z     vdW  Elec       q    Type
REMARK                         _______ _______ _______ _____ _____    ______ ____
ROOT
ATOM      1  O   UNL     1      32.688  -6.334 -21.769  0.00  0.00    -0.291 OA
ATOM      2  C   UNL     1      33.213 -14.859 -21.621  0.00  0.00    +0.033 C 
ATOM      3  C   UNL     1      33.981 -13.922 -22.598  0.00  0.00    +0.011 C 
ATOM      4  C   UNL     1      33.172 -12.671 -22.970  0.00  0.00    +0.022 C 
ATOM      5  C   UNL     1      32.896 -11.871 -21.664  0.00  0.00    +0.008 C 
ATOM      6  C   UNL     1      32.939 -14.065 -20.331  0.00  0.00    +0.003 C 
ATOM      7  C   UNL     1      34.230 -16.034 -21.516  0.00  0.00    +0.154 C 
ATOM      8  C   UNL     1      32.214 -10.492 -21.972  0.00  0.00    +0.019 C 
ATOM      9  C   UNL     1      32.183 -12.750 -20.607  0.00  0.00    +0.001 C 
ATOM     10  C   UNL     1      34.439 -14.867 -23.711  0.00  0.00    +0.025 C 
ATOM     11  C   UNL     1      34.757 -16.134 -22.940  0.00  0.00    -0.014 C 
ATOM     12  C   UNL     1      31.857 -15.366 -22.196  0.00  0.00    +0.003 C 
ATOM     13  C   UNL     1      33.851 -11.798 -23.989  0.00  0.00    -0.031 C 
ATOM     14  C   UNL     1      33.125  -9.690 -22.929  0.00  0.00    -0.024 C 
ATOM     15  C   UNL     1      32.036  -9.710 -20.641  0.00  0.00    +0.012 C 
ATOM     16  C   UNL     1      33.844 -10.451 -23.970  0.00  0.00    -0.030 C 
ATOM     17  C   UNL     1      30.828 -10.671 -22.639  0.00  0.00    +0.004 C 
ATOM     18  C   UNL     1      31.625  -8.259 -20.838  0.00  0.00    +0.069 C 
ATOM     19  C   UNL     1      33.272  -8.356 -22.812  0.00  0.00    +0.033 C 
ATOM     20  C   UNL     1      35.429 -17.164 -23.471  0.00  0.00    -0.006 C 
ATOM     21  C   UNL     1      32.552  -7.556 -21.790  0.00  0.00    +0.173 C 
ATOM     22  C   UNL     1      34.561  -9.706 -25.069  0.00  0.00    +0.030 C 
ENDROOT
BRANCH   7  24
ATOM     23  O   UNL     1      32.473 -17.410 -20.656  0.00  0.00    -0.293 OA
ATOM     24  C   UNL     1      33.643 -17.331 -21.026  0.00  0.00    +0.178 C 
ATOM     25  C   UNL     1      34.557 -18.526 -21.015  0.00  0.00    +0.075 C 
ENDBRANCH   7  24
BRANCH   7  26
ATOM     26  O   UNL     1      35.332 -15.724 -20.673  0.00  0.00    -0.376 OA
ATOM     27  H   UNL     1      35.927 -15.111 -21.131  0.00  0.00    +0.211 HD
ENDBRANCH   7  26
TORSDOF 2
ENDMDL
