MODEL 1
REMARK VINA RESULT:      -8.6      0.000      0.000
REMARK  Name = 6726
REMARK  3 active torsions:
REMARK  status: ('A' for Active; 'I' for Inactive)
REMARK    1  A    between atoms: C_1  and  N_2
REMARK    2  A    between atoms: C_1  and  C_11
REMARK    3  A    between atoms: C_1  and  C_17
REMARK                            x       y       z     vdW  Elec       q    Type
REMARK                         _______ _______ _______ _____ _____    ______ ____
ROOT
ATOM      1  C   UNL     1      34.514 -23.456 -15.108  0.00  0.00    -0.012 C 
ENDROOT
BRANCH   1   2
ATOM      2  N   UNL     1      33.174 -24.021 -15.251  0.00  0.00    +0.390 N 
ATOM      3  N   UNL     1      30.360 -24.175 -14.600  0.00  0.00    +0.383 N 
ATOM      4  C   UNL     1      32.226 -23.003 -15.720  0.00  0.00    -0.100 C 
ATOM      5  C   UNL     1      32.716 -24.603 -13.983  0.00  0.00    -0.100 C 
ATOM      6  C   UNL     1      30.820 -23.595 -15.867  0.00  0.00    -0.101 C 
ATOM      7  C   UNL     1      31.310 -25.194 -14.130  0.00  0.00    -0.101 C 
ATOM      8  C   UNL     1      29.021 -24.742 -14.744  0.00  0.00    -0.101 C 
ATOM      9  H   UNL     1      33.218 -24.764 -15.948  0.00  0.00    -0.079 HD
ATOM     10  H   UNL     1      30.315 -23.433 -13.903  0.00  0.00    -0.080 HD
ENDBRANCH   1   2
BRANCH   1  11
ATOM     11  C   UNL     1      35.031 -22.856 -16.408  0.00  0.00    -0.038 C 
ATOM     12  C   UNL     1      36.286 -22.282 -16.425  0.00  0.00    -0.006 C 
ATOM     13  C   UNL     1      34.230 -22.903 -17.531  0.00  0.00    -0.006 C 
ATOM     14  C   UNL     1      36.761 -21.732 -17.616  0.00  0.00    -0.000 C 
ATOM     15  C   UNL     1      34.704 -22.354 -18.722  0.00  0.00    -0.000 C 
ATOM     16  C   UNL     1      35.969 -21.768 -18.764  0.00  0.00    -0.000 C 
ENDBRANCH   1  11
BRANCH   1  17
ATOM     17  C   UNL     1      35.500 -24.448 -14.511  0.00  0.00    -0.038 C 
ATOM     18  C   UNL     1      36.006 -24.209 -13.249  0.00  0.00    -0.006 C 
ATOM     19  C   UNL     1      35.861 -25.558 -15.249  0.00  0.00    -0.006 C 
ATOM     20  C   UNL     1      36.910 -25.119 -12.701  0.00  0.00    -0.000 C 
ATOM     21  C   UNL     1      36.766 -26.467 -14.700  0.00  0.00    -0.000 C 
ATOM     22  C   UNL     1      37.290 -26.248 -13.426  0.00  0.00    -0.000 C 
ENDBRANCH   1  17
TORSDOF 3
ENDMDL
MODEL 2
REMARK VINA RESULT:      -8.2      1.587      5.790
REMARK  Name = 6726
REMARK  3 active torsions:
REMARK  status: ('A' for Active; 'I' for Inactive)
REMARK    1  A    between atoms: C_1  and  N_2
REMARK    2  A    between atoms: C_1  and  C_11
REMARK    3  A    between atoms: C_1  and  C_17
REMARK                            x       y       z     vdW  Elec       q    Type
REMARK                         _______ _______ _______ _____ _____    ______ ____
ROOT
ATOM      1  C   UNL     1      34.408 -23.068 -14.909  0.00  0.00    -0.012 C 
ENDROOT
BRANCH   1   2
ATOM      2  N   UNL     1      35.424 -23.972 -14.375  0.00  0.00    +0.390 N 
ATOM      3  N   UNL     1      38.141 -24.928 -14.114  0.00  0.00    +0.383 N 
ATOM      4  C   UNL     1      36.422 -23.231 -13.592  0.00  0.00    -0.100 C 
ATOM      5  C   UNL     1      36.075 -24.722 -15.456  0.00  0.00    -0.100 C 
ATOM      6  C   UNL     1      37.489 -24.178 -13.033  0.00  0.00    -0.101 C 
ATOM      7  C   UNL     1      37.143 -25.668 -14.898  0.00  0.00    -0.101 C 
ATOM      8  C   UNL     1      39.156 -25.833 -13.579  0.00  0.00    -0.101 C 
ATOM      9  H   UNL     1      34.961 -24.637 -13.755  0.00  0.00    -0.079 HD
ATOM     10  H   UNL     1      38.606 -24.263 -14.732  0.00  0.00    -0.080 HD
ENDBRANCH   1   2
BRANCH   1  11
ATOM     11  C   UNL     1      32.995 -23.519 -14.568  0.00  0.00    -0.038 C 
ATOM     12  C   UNL     1      32.809 -24.765 -14.004  0.00  0.00    -0.006 C 
ATOM     13  C   UNL     1      31.940 -22.670 -14.835  0.00  0.00    -0.006 C 
ATOM     14  C   UNL     1      31.514 -25.179 -13.691  0.00  0.00    -0.000 C 
ATOM     15  C   UNL     1      30.644 -23.084 -14.523  0.00  0.00    -0.000 C 
ATOM     16  C   UNL     1      30.432 -24.338 -13.951  0.00  0.00    -0.000 C 
ENDBRANCH   1  11
BRANCH   1  17
ATOM     17  C   UNL     1      34.580 -22.820 -16.399  0.00  0.00    -0.038 C 
ATOM     18  C   UNL     1      33.593 -23.249 -17.265  0.00  0.00    -0.006 C 
ATOM     19  C   UNL     1      35.717 -22.176 -16.843  0.00  0.00    -0.006 C 
ATOM     20  C   UNL     1      33.751 -23.021 -18.633  0.00  0.00    -0.000 C 
ATOM     21  C   UNL     1      35.874 -21.949 -18.211  0.00  0.00    -0.000 C 
ATOM     22  C   UNL     1      34.891 -22.372 -19.105  0.00  0.00    -0.000 C 
ENDBRANCH   1  17
TORSDOF 3
ENDMDL
MODEL 3
REMARK VINA RESULT:      -8.1      1.536      4.893
REMARK  Name = 6726
REMARK  3 active torsions:
REMARK  status: ('A' for Active; 'I' for Inactive)
REMARK    1  A    between atoms: C_1  and  N_2
REMARK    2  A    between atoms: C_1  and  C_11
REMARK    3  A    between atoms: C_1  and  C_17
REMARK                            x       y       z     vdW  Elec       q    Type
REMARK                         _______ _______ _______ _____ _____    ______ ____
ROOT
ATOM      1  C   UNL     1      34.534 -24.130 -15.259  0.00  0.00    -0.012 C 
ENDROOT
BRANCH   1   2
ATOM      2  N   UNL     1      34.881 -23.041 -16.170  0.00  0.00    +0.390 N 
ATOM      3  N   UNL     1      36.113 -21.974 -18.558  0.00  0.00    +0.383 N 
ATOM      4  C   UNL     1      34.292 -23.262 -17.496  0.00  0.00    -0.100 C 
ATOM      5  C   UNL     1      36.338 -22.893 -16.275  0.00  0.00    -0.100 C 
ATOM      6  C   UNL     1      34.657 -22.121 -18.452  0.00  0.00    -0.101 C 
ATOM      7  C   UNL     1      36.704 -21.753 -17.231  0.00  0.00    -0.101 C 
ATOM      8  C   UNL     1      36.460 -20.883 -19.467  0.00  0.00    -0.101 C 
ATOM      9  H   UNL     1      34.497 -22.176 -15.788  0.00  0.00    -0.079 HD
ATOM     10  H   UNL     1      36.497 -22.837 -18.941  0.00  0.00    -0.080 HD
ENDBRANCH   1   2
BRANCH   1  11
ATOM     11  C   UNL     1      33.117 -24.003 -14.718  0.00  0.00    -0.038 C 
ATOM     12  C   UNL     1      32.416 -22.837 -14.949  0.00  0.00    -0.006 C 
ATOM     13  C   UNL     1      32.575 -25.058 -14.012  0.00  0.00    -0.006 C 
ATOM     14  C   UNL     1      31.117 -22.721 -14.453  0.00  0.00    -0.000 C 
ATOM     15  C   UNL     1      31.276 -24.942 -13.516  0.00  0.00    -0.000 C 
ATOM     16  C   UNL     1      30.548 -23.773 -13.737  0.00  0.00    -0.000 C 
ENDBRANCH   1  11
BRANCH   1  17
ATOM     17  C   UNL     1      35.553 -24.298 -14.143  0.00  0.00    -0.038 C 
ATOM     18  C   UNL     1      36.387 -25.398 -14.160  0.00  0.00    -0.006 C 
ATOM     19  C   UNL     1      35.614 -23.346 -13.145  0.00  0.00    -0.006 C 
ATOM     20  C   UNL     1      37.322 -25.552 -13.136  0.00  0.00    -0.000 C 
ATOM     21  C   UNL     1      36.550 -23.501 -12.121  0.00  0.00    -0.000 C 
ATOM     22  C   UNL     1      37.403 -24.604 -12.117  0.00  0.00    -0.000 C 
ENDBRANCH   1  17
TORSDOF 3
ENDMDL
MODEL 4
REMARK VINA RESULT:      -8.1     15.107     17.938
REMARK  Name = 6726
REMARK  3 active torsions:
REMARK  status: ('A' for Active; 'I' for Inactive)
REMARK    1  A    between atoms: C_1  and  N_2
REMARK    2  A    between atoms: C_1  and  C_11
REMARK    3  A    between atoms: C_1  and  C_17
REMARK                            x       y       z     vdW  Elec       q    Type
REMARK                         _______ _______ _______ _____ _____    ______ ____
ROOT
ATOM      1  C   UNL     1      31.923  -8.839 -23.060  0.00  0.00    -0.012 C 
ENDROOT
BRANCH   1   2
ATOM      2  N   UNL     1      31.999  -7.380 -23.023  0.00  0.00    +0.390 N 
ATOM      3  N   UNL     1      30.945  -4.732 -23.517  0.00  0.00    +0.383 N 
ATOM      4  C   UNL     1      30.920  -6.822 -22.198  0.00  0.00    -0.100 C 
ATOM      5  C   UNL     1      31.948  -6.821 -24.380  0.00  0.00    -0.100 C 
ATOM      6  C   UNL     1      30.997  -5.292 -22.161  0.00  0.00    -0.101 C 
ATOM      7  C   UNL     1      32.024  -5.291 -24.343  0.00  0.00    -0.101 C 
ATOM      8  C   UNL     1      31.023  -3.274 -23.480  0.00  0.00    -0.101 C 
ATOM      9  H   UNL     1      32.891  -7.121 -22.602  0.00  0.00    -0.079 HD
ATOM     10  H   UNL     1      30.053  -4.990 -23.938  0.00  0.00    -0.080 HD
ENDBRANCH   1   2
BRANCH   1  11
ATOM     11  C   UNL     1      31.764  -9.446 -21.673  0.00  0.00    -0.038 C 
ATOM     12  C   UNL     1      31.024 -10.602 -21.532  0.00  0.00    -0.006 C 
ATOM     13  C   UNL     1      32.364  -8.821 -20.598  0.00  0.00    -0.006 C 
ATOM     14  C   UNL     1      30.878 -11.159 -20.261  0.00  0.00    -0.000 C 
ATOM     15  C   UNL     1      32.217  -9.378 -19.327  0.00  0.00    -0.000 C 
ATOM     16  C   UNL     1      31.475 -10.547 -19.159  0.00  0.00    -0.000 C 
ENDBRANCH   1  11
BRANCH   1  17
ATOM     17  C   UNL     1      33.086  -9.459 -23.819  0.00  0.00    -0.038 C 
ATOM     18  C   UNL     1      34.271  -8.758 -23.915  0.00  0.00    -0.006 C 
ATOM     19  C   UNL     1      32.921 -10.705 -24.392  0.00  0.00    -0.006 C 
ATOM     20  C   UNL     1      35.337  -9.327 -24.612  0.00  0.00    -0.000 C 
ATOM     21  C   UNL     1      33.988 -11.273 -25.089  0.00  0.00    -0.000 C 
ATOM     22  C   UNL     1      35.195 -10.585 -25.199  0.00  0.00    -0.000 C 
ENDBRANCH   1  17
TORSDOF 3
ENDMDL
MODEL 5
REMARK VINA RESULT:      -7.9     15.051     17.684
REMARK  Name = 6726
REMARK  3 active torsions:
REMARK  status: ('A' for Active; 'I' for Inactive)
REMARK    1  A    between atoms: C_1  and  N_2
REMARK    2  A    between atoms: C_1  and  C_11
REMARK    3  A    between atoms: C_1  and  C_17
REMARK                            x       y       z     vdW  Elec       q    Type
REMARK                         _______ _______ _______ _____ _____    ______ ____
ROOT
ATOM      1  C   UNL     1      33.002  -8.501 -22.530  0.00  0.00    -0.012 C 
ENDROOT
BRANCH   1   2
ATOM      2  N   UNL     1      32.186  -7.437 -23.112  0.00  0.00    +0.390 N 
ATOM      3  N   UNL     1      31.637  -4.673 -23.761  0.00  0.00    +0.383 N 
ATOM      4  C   UNL     1      32.918  -6.745 -24.181  0.00  0.00    -0.100 C 
ATOM      5  C   UNL     1      31.759  -6.483 -22.081  0.00  0.00    -0.100 C 
ATOM      6  C   UNL     1      32.063  -5.628 -24.791  0.00  0.00    -0.101 C 
ATOM      7  C   UNL     1      30.906  -5.366 -22.691  0.00  0.00    -0.101 C 
ATOM      8  C   UNL     1      30.819  -3.611 -24.344  0.00  0.00    -0.101 C 
ATOM      9  H   UNL     1      31.354  -7.866 -23.519  0.00  0.00    -0.079 HD
ATOM     10  H   UNL     1      32.468  -4.245 -23.356  0.00  0.00    -0.080 HD
ENDBRANCH   1   2
BRANCH   1  11
ATOM     11  C   UNL     1      33.667  -9.367 -23.589  0.00  0.00    -0.038 C 
ATOM     12  C   UNL     1      33.047 -10.536 -23.982  0.00  0.00    -0.006 C 
ATOM     13  C   UNL     1      34.872  -8.959 -24.126  0.00  0.00    -0.006 C 
ATOM     14  C   UNL     1      33.657 -11.330 -24.953  0.00  0.00    -0.000 C 
ATOM     15  C   UNL     1      35.481  -9.753 -25.098  0.00  0.00    -0.000 C 
ATOM     16  C   UNL     1      34.874 -10.938 -25.511  0.00  0.00    -0.000 C 
ENDBRANCH   1  11
BRANCH   1  17
ATOM     17  C   UNL     1      32.229  -9.335 -21.520  0.00  0.00    -0.038 C 
ATOM     18  C   UNL     1      32.426  -9.103 -20.173  0.00  0.00    -0.006 C 
ATOM     19  C   UNL     1      31.356 -10.300 -21.979  0.00  0.00    -0.006 C 
ATOM     20  C   UNL     1      31.717  -9.868 -19.246  0.00  0.00    -0.000 C 
ATOM     21  C   UNL     1      30.648 -11.066 -21.051  0.00  0.00    -0.000 C 
ATOM     22  C   UNL     1      30.829 -10.850 -19.686  0.00  0.00    -0.000 C 
ENDBRANCH   1  17
TORSDOF 3
ENDMDL
MODEL 6
REMARK VINA RESULT:      -7.9     10.139     13.294
REMARK  Name = 6726
REMARK  3 active torsions:
REMARK  status: ('A' for Active; 'I' for Inactive)
REMARK    1  A    between atoms: C_1  and  N_2
REMARK    2  A    between atoms: C_1  and  C_11
REMARK    3  A    between atoms: C_1  and  C_17
REMARK                            x       y       z     vdW  Elec       q    Type
REMARK                         _______ _______ _______ _____ _____    ______ ____
ROOT
ATOM      1  C   UNL     1      32.632 -13.994 -23.017  0.00  0.00    -0.012 C 
ENDROOT
BRANCH   1   2
ATOM      2  N   UNL     1      33.650 -14.871 -22.443  0.00  0.00    +0.390 N 
ATOM      3  N   UNL     1      34.806 -17.465 -21.897  0.00  0.00    +0.383 N 
ATOM      4  C   UNL     1      34.327 -15.641 -23.495  0.00  0.00    -0.100 C 
ATOM      5  C   UNL     1      33.061 -15.773 -21.447  0.00  0.00    -0.100 C 
ATOM      6  C   UNL     1      35.395 -16.562 -22.893  0.00  0.00    -0.101 C 
ATOM      7  C   UNL     1      34.127 -16.695 -20.846  0.00  0.00    -0.101 C 
ATOM      8  C   UNL     1      35.825 -18.340 -21.323  0.00  0.00    -0.101 C 
ATOM      9  H   UNL     1      34.344 -14.286 -21.977  0.00  0.00    -0.079 HD
ATOM     10  H   UNL     1      34.114 -18.051 -22.363  0.00  0.00    -0.080 HD
ENDBRANCH   1   2
BRANCH   1  11
ATOM     11  C   UNL     1      33.077 -13.371 -24.332  0.00  0.00    -0.038 C 
ATOM     12  C   UNL     1      32.737 -13.996 -25.515  0.00  0.00    -0.006 C 
ATOM     13  C   UNL     1      33.808 -12.201 -24.304  0.00  0.00    -0.006 C 
ATOM     14  C   UNL     1      33.145 -13.426 -26.721  0.00  0.00    -0.000 C 
ATOM     15  C   UNL     1      34.215 -11.630 -25.510  0.00  0.00    -0.000 C 
ATOM     16  C   UNL     1      33.884 -12.243 -26.718  0.00  0.00    -0.000 C 
ENDBRANCH   1  11
BRANCH   1  17
ATOM     17  C   UNL     1      32.149 -12.944 -22.028  0.00  0.00    -0.038 C 
ATOM     18  C   UNL     1      32.398 -13.130 -20.683  0.00  0.00    -0.006 C 
ATOM     19  C   UNL     1      31.475 -11.838 -22.504  0.00  0.00    -0.006 C 
ATOM     20  C   UNL     1      31.955 -12.167 -19.776  0.00  0.00    -0.000 C 
ATOM     21  C   UNL     1      31.032 -10.875 -21.596  0.00  0.00    -0.000 C 
ATOM     22  C   UNL     1      31.272 -11.040 -20.232  0.00  0.00    -0.000 C 
ENDBRANCH   1  17
TORSDOF 3
ENDMDL
MODEL 7
REMARK VINA RESULT:      -7.8      1.779      4.702
REMARK  Name = 6726
REMARK  3 active torsions:
REMARK  status: ('A' for Active; 'I' for Inactive)
REMARK    1  A    between atoms: C_1  and  N_2
REMARK    2  A    between atoms: C_1  and  C_11
REMARK    3  A    between atoms: C_1  and  C_17
REMARK                            x       y       z     vdW  Elec       q    Type
REMARK                         _______ _______ _______ _____ _____    ______ ____
ROOT
ATOM      1  C   UNL     1      34.467 -24.017 -15.725  0.00  0.00    -0.012 C 
ENDROOT
BRANCH   1   2
ATOM      2  N   UNL     1      35.591 -23.734 -14.834  0.00  0.00    +0.390 N 
ATOM      3  N   UNL     1      37.384 -24.387 -12.661  0.00  0.00    +0.383 N 
ATOM      4  C   UNL     1      36.649 -24.740 -14.994  0.00  0.00    -0.100 C 
ATOM      5  C   UNL     1      35.147 -23.676 -13.436  0.00  0.00    -0.100 C 
ATOM      6  C   UNL     1      37.827 -24.445 -14.059  0.00  0.00    -0.101 C 
ATOM      7  C   UNL     1      36.325 -23.381 -12.501  0.00  0.00    -0.101 C 
ATOM      8  C   UNL     1      38.508 -24.102 -11.772  0.00  0.00    -0.101 C 
ATOM      9  H   UNL     1      35.974 -22.823 -15.089  0.00  0.00    -0.079 HD
ATOM     10  H   UNL     1      37.003 -25.297 -12.406  0.00  0.00    -0.080 HD
ENDBRANCH   1   2
BRANCH   1  11
ATOM     11  C   UNL     1      34.515 -23.187 -17.000  0.00  0.00    -0.038 C 
ATOM     12  C   UNL     1      35.650 -22.453 -17.276  0.00  0.00    -0.006 C 
ATOM     13  C   UNL     1      33.421 -23.192 -17.841  0.00  0.00    -0.006 C 
ATOM     14  C   UNL     1      35.694 -21.692 -18.445  0.00  0.00    -0.000 C 
ATOM     15  C   UNL     1      33.465 -22.431 -19.010  0.00  0.00    -0.000 C 
ATOM     16  C   UNL     1      34.601 -21.682 -19.311  0.00  0.00    -0.000 C 
ENDBRANCH   1  11
BRANCH   1  17
ATOM     17  C   UNL     1      33.126 -23.896 -15.019  0.00  0.00    -0.038 C 
ATOM     18  C   UNL     1      32.464 -22.684 -15.047  0.00  0.00    -0.006 C 
ATOM     19  C   UNL     1      32.609 -25.000 -14.371  0.00  0.00    -0.006 C 
ATOM     20  C   UNL     1      31.234 -22.572 -14.399  0.00  0.00    -0.000 C 
ATOM     21  C   UNL     1      31.378 -24.887 -13.724  0.00  0.00    -0.000 C 
ATOM     22  C   UNL     1      30.691 -23.674 -13.738  0.00  0.00    -0.000 C 
ENDBRANCH   1  17
TORSDOF 3
ENDMDL
MODEL 8
REMARK VINA RESULT:      -7.8     10.147     13.657
REMARK  Name = 6726
REMARK  3 active torsions:
REMARK  status: ('A' for Active; 'I' for Inactive)
REMARK    1  A    between atoms: C_1  and  N_2
REMARK    2  A    between atoms: C_1  and  C_11
REMARK    3  A    between atoms: C_1  and  C_17
REMARK                            x       y       z     vdW  Elec       q    Type
REMARK                         _______ _______ _______ _____ _____    ______ ____
ROOT
ATOM      1  C   UNL     1      33.816 -13.448 -23.011  0.00  0.00    -0.012 C 
ENDROOT
BRANCH   1   2
ATOM      2  N   UNL     1      33.935 -14.830 -22.554  0.00  0.00    +0.390 N 
ATOM      3  N   UNL     1      35.452 -17.134 -21.685  0.00  0.00    +0.383 N 
ATOM      4  C   UNL     1      34.537 -14.887 -21.216  0.00  0.00    -0.100 C 
ATOM      5  C   UNL     1      34.722 -15.627 -23.503  0.00  0.00    -0.100 C 
ATOM      6  C   UNL     1      34.664 -16.337 -20.736  0.00  0.00    -0.101 C 
ATOM      7  C   UNL     1      34.851 -17.077 -23.024  0.00  0.00    -0.101 C 
ATOM      8  C   UNL     1      35.569 -18.517 -21.228  0.00  0.00    -0.101 C 
ATOM      9  H   UNL     1      32.997 -15.227 -22.501  0.00  0.00    -0.079 HD
ATOM     10  H   UNL     1      36.390 -16.739 -21.737  0.00  0.00    -0.080 HD
ENDBRANCH   1   2
BRANCH   1  11
ATOM     11  C   UNL     1      32.783 -12.662 -22.216  0.00  0.00    -0.038 C 
ATOM     12  C   UNL     1      32.468 -13.076 -20.938  0.00  0.00    -0.006 C 
ATOM     13  C   UNL     1      32.190 -11.559 -22.798  0.00  0.00    -0.006 C 
ATOM     14  C   UNL     1      31.522 -12.356 -20.209  0.00  0.00    -0.000 C 
ATOM     15  C   UNL     1      31.244 -10.839 -22.068  0.00  0.00    -0.000 C 
ATOM     16  C   UNL     1      30.910 -11.237 -20.774  0.00  0.00    -0.000 C 
ENDBRANCH   1  11
BRANCH   1  17
ATOM     17  C   UNL     1      33.570 -13.353 -24.509  0.00  0.00    -0.038 C 
ATOM     18  C   UNL     1      32.877 -14.369 -25.137  0.00  0.00    -0.006 C 
ATOM     19  C   UNL     1      34.047 -12.255 -25.196  0.00  0.00    -0.006 C 
ATOM     20  C   UNL     1      32.652 -14.282 -26.511  0.00  0.00    -0.000 C 
ATOM     21  C   UNL     1      33.821 -12.169 -26.571  0.00  0.00    -0.000 C 
ATOM     22  C   UNL     1      33.124 -13.182 -27.228  0.00  0.00    -0.000 C 
ENDBRANCH   1  17
TORSDOF 3
ENDMDL
MODEL 9
REMARK VINA RESULT:      -7.8      6.512      9.344
REMARK  Name = 6726
REMARK  3 active torsions:
REMARK  status: ('A' for Active; 'I' for Inactive)
REMARK    1  A    between atoms: C_1  and  N_2
REMARK    2  A    between atoms: C_1  and  C_11
REMARK    3  A    between atoms: C_1  and  C_17
REMARK                            x       y       z     vdW  Elec       q    Type
REMARK                         _______ _______ _______ _____ _____    ______ ____
ROOT
ATOM      1  C   UNL     1      35.098 -17.978 -21.497  0.00  0.00    -0.012 C 
ENDROOT
BRANCH   1   2
ATOM      2  N   UNL     1      34.374 -16.863 -20.890  0.00  0.00    +0.390 N 
ATOM      3  N   UNL     1      32.870 -14.396 -21.013  0.00  0.00    +0.383 N 
ATOM      4  C   UNL     1      32.975 -16.844 -21.338  0.00  0.00    -0.100 C 
ATOM      5  C   UNL     1      35.029 -15.586 -21.200  0.00  0.00    -0.100 C 
ATOM      6  C   UNL     1      32.216 -15.674 -20.703  0.00  0.00    -0.101 C 
ATOM      7  C   UNL     1      34.269 -14.416 -20.567  0.00  0.00    -0.101 C 
ATOM      8  C   UNL     1      32.147 -13.282 -20.405  0.00  0.00    -0.101 C 
ATOM      9  H   UNL     1      34.385 -16.994 -19.878  0.00  0.00    -0.079 HD
ATOM     10  H   UNL     1      32.858 -14.265 -22.024  0.00  0.00    -0.080 HD
ENDBRANCH   1   2
BRANCH   1  11
ATOM     11  C   UNL     1      34.877 -18.063 -23.000  0.00  0.00    -0.038 C 
ATOM     12  C   UNL     1      34.657 -19.299 -23.574  0.00  0.00    -0.006 C 
ATOM     13  C   UNL     1      34.905 -16.902 -23.746  0.00  0.00    -0.006 C 
ATOM     14  C   UNL     1      34.455 -19.377 -24.952  0.00  0.00    -0.000 C 
ATOM     15  C   UNL     1      34.703 -16.980 -25.124  0.00  0.00    -0.000 C 
ATOM     16  C   UNL     1      34.478 -18.217 -25.727  0.00  0.00    -0.000 C 
ENDBRANCH   1  11
BRANCH   1  17
ATOM     17  C   UNL     1      34.805 -19.302 -20.807  0.00  0.00    -0.038 C 
ATOM     18  C   UNL     1      35.862 -20.100 -20.418  0.00  0.00    -0.006 C 
ATOM     19  C   UNL     1      33.491 -19.666 -20.590  0.00  0.00    -0.006 C 
ATOM     20  C   UNL     1      35.594 -21.314 -19.785  0.00  0.00    -0.000 C 
ATOM     21  C   UNL     1      33.224 -20.881 -19.957  0.00  0.00    -0.000 C 
ATOM     22  C   UNL     1      34.275 -21.704 -19.555  0.00  0.00    -0.000 C 
ENDBRANCH   1  17
TORSDOF 3
ENDMDL
