MODEL 1
REMARK VINA RESULT:      -6.7      0.000      0.000
REMARK  Name = 24752837
REMARK  10 active torsions:
REMARK  status: ('A' for Active; 'I' for Inactive)
REMARK    1  A    between atoms: C_2  and  C_25
REMARK    2  A    between atoms: C_3  and  C_30
REMARK    3  A    between atoms: C_6  and  C_8
REMARK    4  A    between atoms: C_7  and  C_16
REMARK    5  A    between atoms: C_13  and  O_14
REMARK    6  A    between atoms: C_21  and  O_22
REMARK    7  A    between atoms: C_25  and  O_26
REMARK    8  A    between atoms: O_26  and  C_27
REMARK    9  A    between atoms: C_30  and  O_31
REMARK   10  A    between atoms: O_31  and  C_32
REMARK                            x       y       z     vdW  Elec       q    Type
REMARK                         _______ _______ _______ _____ _____    ______ ____
ROOT
ATOM      1  O   UNL     1      35.601 -14.525 -21.237  0.00  0.00    -0.349 OA
ATOM      2  C   UNL     1      33.413 -13.999 -20.863  0.00  0.00    +0.144 C 
ATOM      3  C   UNL     1      33.688 -15.451 -20.388  0.00  0.00    +0.144 C 
ATOM      4  C   UNL     1      34.526 -13.804 -21.907  0.00  0.00    +0.149 C 
ATOM      5  C   UNL     1      34.938 -15.823 -21.219  0.00  0.00    +0.149 C 
ATOM      6  C   UNL     1      34.328 -14.704 -23.106  0.00  0.00    +0.003 C 
ATOM      7  C   UNL     1      34.637 -15.952 -22.695  0.00  0.00    +0.003 C 
ENDROOT
BRANCH   6   8
ATOM      8  C   UNL     1      33.895 -14.190 -24.404  0.00  0.00    -0.002 C 
ATOM      9  C   UNL     1      34.034 -12.834 -24.699  0.00  0.00    +0.003 C 
ATOM     10  C   UNL     1      33.344 -15.056 -25.348  0.00  0.00    +0.003 C 
ATOM     11  C   UNL     1      33.621 -12.343 -25.938  0.00  0.00    +0.037 C 
ATOM     12  C   UNL     1      32.931 -14.566 -26.587  0.00  0.00    +0.037 C 
ATOM     13  C   UNL     1      33.070 -13.210 -26.882  0.00  0.00    +0.134 C 
BRANCH  13  14
ATOM     14  O   UNL     1      32.668 -12.732 -28.091  0.00  0.00    -0.506 OA
ATOM     15  H   UNL     1      32.907 -13.183 -28.876  0.00  0.00    +0.292 HD
ENDBRANCH  13  14
ENDBRANCH   6   8
BRANCH   7  16
ATOM     16  C   UNL     1      34.726 -17.229 -23.413  0.00  0.00    -0.002 C 
ATOM     17  C   UNL     1      35.418 -18.299 -22.848  0.00  0.00    +0.003 C 
ATOM     18  C   UNL     1      34.119 -17.371 -24.661  0.00  0.00    +0.003 C 
ATOM     19  C   UNL     1      35.503 -19.513 -23.531  0.00  0.00    +0.037 C 
ATOM     20  C   UNL     1      34.203 -18.585 -25.343  0.00  0.00    +0.037 C 
ATOM     21  C   UNL     1      34.896 -19.655 -24.778  0.00  0.00    +0.134 C 
BRANCH  21  22
ATOM     22  O   UNL     1      34.977 -20.840 -25.444  0.00  0.00    -0.506 OA
ATOM     23  H   UNL     1      34.209 -21.217 -25.825  0.00  0.00    +0.292 HD
ENDBRANCH  21  22
ENDBRANCH   7  16
BRANCH   2  25
ATOM     24  O   UNL     1      31.620 -14.078 -22.466  0.00  0.00    -0.250 OA
ATOM     25  C   UNL     1      32.042 -13.695 -21.384  0.00  0.00    +0.320 C 
BRANCH  25  26
ATOM     26  O   UNL     1      31.365 -12.939 -20.472  0.00  0.00    -0.448 OA
BRANCH  26  27
ATOM     27  C   UNL     1      31.486 -11.522 -20.636  0.00  0.00    +0.209 C 
ATOM     28  C   UNL     1      31.448 -10.864 -19.273  0.00  0.00    +0.051 C 
ENDBRANCH  26  27
ENDBRANCH  25  26
ENDBRANCH   2  25
BRANCH   3  30
ATOM     29  O   UNL     1      31.383 -16.144 -20.377  0.00  0.00    -0.250 OA
ATOM     30  C   UNL     1      32.562 -16.427 -20.542  0.00  0.00    +0.320 C 
BRANCH  30  31
ATOM     31  O   UNL     1      33.061 -17.648 -20.887  0.00  0.00    -0.448 OA
BRANCH  31  32
ATOM     32  C   UNL     1      32.207 -18.762 -20.607  0.00  0.00    +0.209 C 
ATOM     33  C   UNL     1      33.041 -20.025 -20.575  0.00  0.00    +0.051 C 
ENDBRANCH  31  32
ENDBRANCH  30  31
ENDBRANCH   3  30
TORSDOF 10
ENDMDL
MODEL 2
REMARK VINA RESULT:      -6.4      7.801     12.032
REMARK  Name = 24752837
REMARK  10 active torsions:
REMARK  status: ('A' for Active; 'I' for Inactive)
REMARK    1  A    between atoms: C_2  and  C_25
REMARK    2  A    between atoms: C_3  and  C_30
REMARK    3  A    between atoms: C_6  and  C_8
REMARK    4  A    between atoms: C_7  and  C_16
REMARK    5  A    between atoms: C_13  and  O_14
REMARK    6  A    between atoms: C_21  and  O_22
REMARK    7  A    between atoms: C_25  and  O_26
REMARK    8  A    between atoms: O_26  and  C_27
REMARK    9  A    between atoms: C_30  and  O_31
REMARK   10  A    between atoms: O_31  and  C_32
REMARK                            x       y       z     vdW  Elec       q    Type
REMARK                         _______ _______ _______ _____ _____    ______ ____
ROOT
ATOM      1  O   UNL     1      34.977 -26.118 -15.477  0.00  0.00    -0.349 OA
ATOM      2  C   UNL     1      36.511 -24.681 -14.591  0.00  0.00    +0.144 C 
ATOM      3  C   UNL     1      35.342 -24.876 -13.590  0.00  0.00    +0.144 C 
ATOM      4  C   UNL     1      35.829 -25.025 -15.927  0.00  0.00    +0.149 C 
ATOM      5  C   UNL     1      34.199 -25.335 -14.525  0.00  0.00    +0.149 C 
ATOM      6  C   UNL     1      34.768 -24.010 -16.287  0.00  0.00    +0.003 C 
ATOM      7  C   UNL     1      33.730 -24.238 -15.453  0.00  0.00    +0.003 C 
ENDROOT
BRANCH   6   8
ATOM      8  C   UNL     1      34.951 -23.035 -17.360  0.00  0.00    -0.002 C 
ATOM      9  C   UNL     1      33.937 -22.829 -18.295  0.00  0.00    +0.003 C 
ATOM     10  C   UNL     1      36.140 -22.311 -17.450  0.00  0.00    +0.003 C 
ATOM     11  C   UNL     1      34.112 -21.899 -19.321  0.00  0.00    +0.037 C 
ATOM     12  C   UNL     1      36.315 -21.382 -18.474  0.00  0.00    +0.037 C 
ATOM     13  C   UNL     1      35.302 -21.175 -19.409  0.00  0.00    +0.134 C 
BRANCH  13  14
ATOM     14  O   UNL     1      35.472 -20.267 -20.409  0.00  0.00    -0.506 OA
ATOM     15  H   UNL     1      36.212 -20.334 -20.980  0.00  0.00    +0.292 HD
ENDBRANCH  13  14
ENDBRANCH   6   8
BRANCH   7  16
ATOM     16  C   UNL     1      32.389 -23.648 -15.368  0.00  0.00    -0.002 C 
ATOM     17  C   UNL     1      31.722 -23.607 -14.146  0.00  0.00    +0.003 C 
ATOM     18  C   UNL     1      31.783 -23.128 -16.512  0.00  0.00    +0.003 C 
ATOM     19  C   UNL     1      30.446 -23.046 -14.065  0.00  0.00    +0.037 C 
ATOM     20  C   UNL     1      30.508 -22.568 -16.432  0.00  0.00    +0.037 C 
ATOM     21  C   UNL     1      29.840 -22.527 -15.209  0.00  0.00    +0.134 C 
BRANCH  21  22
ATOM     22  O   UNL     1      28.597 -21.979 -15.131  0.00  0.00    -0.506 OA
ATOM     23  H   UNL     1      28.323 -21.347 -15.766  0.00  0.00    +0.292 HD
ENDBRANCH  21  22
ENDBRANCH   7  16
BRANCH   2  25
ATOM     24  O   UNL     1      36.612 -22.276 -14.603  0.00  0.00    -0.250 OA
ATOM     25  C   UNL     1      37.198 -23.350 -14.594  0.00  0.00    +0.320 C 
BRANCH  25  26
ATOM     26  O   UNL     1      38.550 -23.535 -14.584  0.00  0.00    -0.448 OA
BRANCH  26  27
ATOM     27  C   UNL     1      38.992 -24.815 -14.123  0.00  0.00    +0.209 C 
ATOM     28  C   UNL     1      40.138 -25.283 -14.994  0.00  0.00    +0.051 C 
ENDBRANCH  26  27
ENDBRANCH  25  26
ENDBRANCH   2  25
BRANCH   3  30
ATOM     29  O   UNL     1      33.845 -23.243 -12.649  0.00  0.00    -0.250 OA
ATOM     30  C   UNL     1      34.979 -23.691 -12.749  0.00  0.00    +0.320 C 
BRANCH  30  31
ATOM     31  O   UNL     1      36.096 -23.211 -12.131  0.00  0.00    -0.448 OA
BRANCH  31  32
ATOM     32  C   UNL     1      36.667 -24.071 -11.140  0.00  0.00    +0.209 C 
ATOM     33  C   UNL     1      35.595 -24.449 -10.140  0.00  0.00    +0.051 C 
ENDBRANCH  31  32
ENDBRANCH  30  31
ENDBRANCH   3  30
TORSDOF 10
ENDMDL
MODEL 3
REMARK VINA RESULT:      -6.0      5.320      7.900
REMARK  Name = 24752837
REMARK  10 active torsions:
REMARK  status: ('A' for Active; 'I' for Inactive)
REMARK    1  A    between atoms: C_2  and  C_25
REMARK    2  A    between atoms: C_3  and  C_30
REMARK    3  A    between atoms: C_6  and  C_8
REMARK    4  A    between atoms: C_7  and  C_16
REMARK    5  A    between atoms: C_13  and  O_14
REMARK    6  A    between atoms: C_21  and  O_22
REMARK    7  A    between atoms: C_25  and  O_26
REMARK    8  A    between atoms: O_26  and  C_27
REMARK    9  A    between atoms: C_30  and  O_31
REMARK   10  A    between atoms: O_31  and  C_32
REMARK                            x       y       z     vdW  Elec       q    Type
REMARK                         _______ _______ _______ _____ _____    ______ ____
ROOT
ATOM      1  O   UNL     1      34.004  -7.726 -21.556  0.00  0.00    -0.349 OA
ATOM      2  C   UNL     1      31.830  -7.123 -21.893  0.00  0.00    +0.144 C 
ATOM      3  C   UNL     1      31.936  -8.670 -21.813  0.00  0.00    +0.144 C 
ATOM      4  C   UNL     1      33.255  -6.743 -22.330  0.00  0.00    +0.149 C 
ATOM      5  C   UNL     1      33.418  -8.904 -22.183  0.00  0.00    +0.149 C 
ATOM      6  C   UNL     1      33.560  -7.236 -23.726  0.00  0.00    +0.003 C 
ATOM      7  C   UNL     1      33.717  -8.574 -23.628  0.00  0.00    +0.003 C 
ENDROOT
BRANCH   6   8
ATOM      8  C   UNL     1      33.651  -6.332 -24.871  0.00  0.00    -0.002 C 
ATOM      9  C   UNL     1      34.839  -6.242 -25.595  0.00  0.00    +0.003 C 
ATOM     10  C   UNL     1      32.550  -5.559 -25.239  0.00  0.00    +0.003 C 
ATOM     11  C   UNL     1      34.928  -5.378 -26.688  0.00  0.00    +0.037 C 
ATOM     12  C   UNL     1      32.637  -4.696 -26.331  0.00  0.00    +0.037 C 
ATOM     13  C   UNL     1      33.825  -4.606 -27.055  0.00  0.00    +0.134 C 
BRANCH  13  14
ATOM     14  O   UNL     1      33.911  -3.764 -28.121  0.00  0.00    -0.506 OA
ATOM     15  H   UNL     1      34.189  -2.878 -27.997  0.00  0.00    +0.292 HD
ENDBRANCH  13  14
ENDBRANCH   6   8
BRANCH   7  16
ATOM     16  C   UNL     1      34.108  -9.592 -24.609  0.00  0.00    -0.002 C 
ATOM     17  C   UNL     1      35.263  -9.418 -25.370  0.00  0.00    +0.003 C 
ATOM     18  C   UNL     1      33.324 -10.733 -24.780  0.00  0.00    +0.003 C 
ATOM     19  C   UNL     1      35.636 -10.386 -26.304  0.00  0.00    +0.037 C 
ATOM     20  C   UNL     1      33.697 -11.701 -25.713  0.00  0.00    +0.037 C 
ATOM     21  C   UNL     1      34.852 -11.527 -26.475  0.00  0.00    +0.134 C 
BRANCH  21  22
ATOM     22  O   UNL     1      35.216 -12.472 -27.385  0.00  0.00    -0.506 OA
ATOM     23  H   UNL     1      35.961 -12.330 -27.935  0.00  0.00    +0.292 HD
ENDBRANCH  21  22
ENDBRANCH   7  16
BRANCH   2  25
ATOM     24  O   UNL     1      30.565  -6.903 -23.929  0.00  0.00    -0.250 OA
ATOM     25  C   UNL     1      30.761  -6.552 -22.773  0.00  0.00    +0.320 C 
BRANCH  25  26
ATOM     26  O   UNL     1      30.063  -5.602 -22.085  0.00  0.00    -0.448 OA
BRANCH  26  27
ATOM     27  C   UNL     1      30.782  -4.398 -21.800  0.00  0.00    +0.209 C 
ATOM     28  C   UNL     1      30.795  -3.527 -23.037  0.00  0.00    +0.051 C 
ENDBRANCH  26  27
ENDBRANCH  25  26
ENDBRANCH   2  25
BRANCH   3  30
ATOM     29  O   UNL     1      30.414  -8.992 -23.650  0.00  0.00    -0.250 OA
ATOM     30  C   UNL     1      30.982  -9.448 -22.666  0.00  0.00    +0.320 C 
BRANCH  30  31
ATOM     31  O   UNL     1      30.857 -10.713 -22.174  0.00  0.00    -0.448 OA
BRANCH  31  32
ATOM     32  C   UNL     1      30.796 -10.815 -20.748  0.00  0.00    +0.209 C 
ATOM     33  C   UNL     1      31.689 -11.951 -20.296  0.00  0.00    +0.051 C 
ENDBRANCH  31  32
ENDBRANCH  30  31
ENDBRANCH   3  30
TORSDOF 10
ENDMDL
MODEL 4
REMARK VINA RESULT:      -5.8      8.823     13.020
REMARK  Name = 24752837
REMARK  10 active torsions:
REMARK  status: ('A' for Active; 'I' for Inactive)
REMARK    1  A    between atoms: C_2  and  C_25
REMARK    2  A    between atoms: C_3  and  C_30
REMARK    3  A    between atoms: C_6  and  C_8
REMARK    4  A    between atoms: C_7  and  C_16
REMARK    5  A    between atoms: C_13  and  O_14
REMARK    6  A    between atoms: C_21  and  O_22
REMARK    7  A    between atoms: C_25  and  O_26
REMARK    8  A    between atoms: O_26  and  C_27
REMARK    9  A    between atoms: C_30  and  O_31
REMARK   10  A    between atoms: O_31  and  C_32
REMARK                            x       y       z     vdW  Elec       q    Type
REMARK                         _______ _______ _______ _____ _____    ______ ____
ROOT
ATOM      1  O   UNL     1      37.240 -22.068 -13.383  0.00  0.00    -0.349 OA
ATOM      2  C   UNL     1      37.401 -24.307 -12.973  0.00  0.00    +0.144 C 
ATOM      3  C   UNL     1      38.190 -23.956 -14.263  0.00  0.00    +0.144 C 
ATOM      4  C   UNL     1      36.386 -23.152 -12.914  0.00  0.00    +0.149 C 
ATOM      5  C   UNL     1      37.512 -22.636 -14.698  0.00  0.00    +0.149 C 
ATOM      6  C   UNL     1      35.404 -23.215 -14.062  0.00  0.00    +0.003 C 
ATOM      7  C   UNL     1      36.089 -22.840 -15.164  0.00  0.00    +0.003 C 
ENDROOT
BRANCH   6   8
ATOM      8  C   UNL     1      34.009 -23.608 -13.875  0.00  0.00    -0.002 C 
ATOM      9  C   UNL     1      33.027 -22.632 -13.704  0.00  0.00    +0.003 C 
ATOM     10  C   UNL     1      33.659 -24.958 -13.868  0.00  0.00    +0.003 C 
ATOM     11  C   UNL     1      31.694 -23.007 -13.525  0.00  0.00    +0.037 C 
ATOM     12  C   UNL     1      32.327 -25.333 -13.690  0.00  0.00    +0.037 C 
ATOM     13  C   UNL     1      31.346 -24.357 -13.519  0.00  0.00    +0.134 C 
BRANCH  13  14
ATOM     14  O   UNL     1      30.046 -24.723 -13.345  0.00  0.00    -0.506 OA
ATOM     15  H   UNL     1      29.531 -24.317 -12.676  0.00  0.00    +0.292 HD
ENDBRANCH  13  14
ENDBRANCH   6   8
BRANCH   7  16
ATOM     16  C   UNL     1      35.669 -22.618 -16.553  0.00  0.00    -0.002 C 
ATOM     17  C   UNL     1      34.420 -23.063 -16.983  0.00  0.00    +0.003 C 
ATOM     18  C   UNL     1      36.521 -21.962 -17.442  0.00  0.00    +0.003 C 
ATOM     19  C   UNL     1      34.021 -22.852 -18.303  0.00  0.00    +0.037 C 
ATOM     20  C   UNL     1      36.123 -21.751 -18.761  0.00  0.00    +0.037 C 
ATOM     21  C   UNL     1      34.873 -22.196 -19.192  0.00  0.00    +0.134 C 
BRANCH  21  22
ATOM     22  O   UNL     1      34.484 -21.989 -20.480  0.00  0.00    -0.506 OA
ATOM     23  H   UNL     1      34.243 -22.717 -21.019  0.00  0.00    +0.292 HD
ENDBRANCH  21  22
ENDBRANCH   7  16
BRANCH   2  25
ATOM     24  O   UNL     1      36.831 -26.495 -13.798  0.00  0.00    -0.250 OA
ATOM     25  C   UNL     1      36.771 -25.663 -12.902  0.00  0.00    +0.320 C 
BRANCH  25  26
ATOM     26  O   UNL     1      36.137 -25.810 -11.702  0.00  0.00    -0.448 OA
BRANCH  26  27
ATOM     27  C   UNL     1      36.384 -24.774 -10.746  0.00  0.00    +0.209 C 
ATOM     28  C   UNL     1      35.146 -24.583  -9.896  0.00  0.00    +0.051 C 
ENDBRANCH  26  27
ENDBRANCH  25  26
ENDBRANCH   2  25
BRANCH   3  30
ATOM     29  O   UNL     1      37.200 -25.473 -15.847  0.00  0.00    -0.250 OA
ATOM     30  C   UNL     1      38.207 -24.997 -15.339  0.00  0.00    +0.320 C 
BRANCH  30  31
ATOM     31  O   UNL     1      39.496 -25.315 -15.647  0.00  0.00    -0.448 OA
BRANCH  31  32
ATOM     32  C   UNL     1      40.428 -25.221 -14.564  0.00  0.00    +0.209 C 
ATOM     33  C   UNL     1      40.809 -26.617 -14.120  0.00  0.00    +0.051 C 
ENDBRANCH  31  32
ENDBRANCH  30  31
ENDBRANCH   3  30
TORSDOF 10
ENDMDL
MODEL 5
REMARK VINA RESULT:      -5.1      3.210      7.265
REMARK  Name = 24752837
REMARK  10 active torsions:
REMARK  status: ('A' for Active; 'I' for Inactive)
REMARK    1  A    between atoms: C_2  and  C_25
REMARK    2  A    between atoms: C_3  and  C_30
REMARK    3  A    between atoms: C_6  and  C_8
REMARK    4  A    between atoms: C_7  and  C_16
REMARK    5  A    between atoms: C_13  and  O_14
REMARK    6  A    between atoms: C_21  and  O_22
REMARK    7  A    between atoms: C_25  and  O_26
REMARK    8  A    between atoms: O_26  and  C_27
REMARK    9  A    between atoms: C_30  and  O_31
REMARK   10  A    between atoms: O_31  and  C_32
REMARK                            x       y       z     vdW  Elec       q    Type
REMARK                         _______ _______ _______ _____ _____    ______ ____
ROOT
ATOM      1  O   UNL     1      30.054 -10.745 -22.492  0.00  0.00    -0.349 OA
ATOM      2  C   UNL     1      30.879 -10.193 -20.438  0.00  0.00    +0.144 C 
ATOM      3  C   UNL     1      31.231  -9.077 -21.458  0.00  0.00    +0.144 C 
ATOM      4  C   UNL     1      30.700 -11.407 -21.366  0.00  0.00    +0.149 C 
ATOM      5  C   UNL     1      31.154  -9.841 -22.800  0.00  0.00    +0.149 C 
ATOM      6  C   UNL     1      32.004 -11.804 -22.021  0.00  0.00    +0.003 C 
ATOM      7  C   UNL     1      32.260 -10.861 -22.952  0.00  0.00    +0.003 C 
ENDROOT
BRANCH   6   8
ATOM      8  C   UNL     1      32.736 -13.009 -21.636  0.00  0.00    -0.002 C 
ATOM      9  C   UNL     1      32.320 -13.755 -20.533  0.00  0.00    +0.003 C 
ATOM     10  C   UNL     1      33.850 -13.413 -22.370  0.00  0.00    +0.003 C 
ATOM     11  C   UNL     1      33.019 -14.905 -20.164  0.00  0.00    +0.037 C 
ATOM     12  C   UNL     1      34.550 -14.563 -22.003  0.00  0.00    +0.037 C 
ATOM     13  C   UNL     1      34.133 -15.309 -20.900  0.00  0.00    +0.134 C 
BRANCH  13  14
ATOM     14  O   UNL     1      34.815 -16.431 -20.541  0.00  0.00    -0.506 OA
ATOM     15  H   UNL     1      35.522 -16.740 -21.074  0.00  0.00    +0.292 HD
ENDBRANCH  13  14
ENDBRANCH   6   8
BRANCH   7  16
ATOM     16  C   UNL     1      33.317 -10.739 -23.963  0.00  0.00    -0.002 C 
ATOM     17  C   UNL     1      34.248  -9.705 -23.876  0.00  0.00    +0.003 C 
ATOM     18  C   UNL     1      33.389 -11.658 -25.010  0.00  0.00    +0.003 C 
ATOM     19  C   UNL     1      35.253  -9.589 -24.837  0.00  0.00    +0.037 C 
ATOM     20  C   UNL     1      34.394 -11.542 -25.971  0.00  0.00    +0.037 C 
ATOM     21  C   UNL     1      35.325 -10.508 -25.884  0.00  0.00    +0.134 C 
BRANCH  21  22
ATOM     22  O   UNL     1      36.306 -10.395 -26.821  0.00  0.00    -0.506 OA
ATOM     23  H   UNL     1      37.202 -10.324 -26.555  0.00  0.00    +0.292 HD
ENDBRANCH  21  22
ENDBRANCH   7  16
BRANCH   2  25
ATOM     24  O   UNL     1      32.951  -9.908 -19.246  0.00  0.00    -0.250 OA
ATOM     25  C   UNL     1      31.847 -10.431 -19.320  0.00  0.00    +0.320 C 
BRANCH  25  26
ATOM     26  O   UNL     1      31.303 -11.304 -18.424  0.00  0.00    -0.448 OA
BRANCH  26  27
ATOM     27  C   UNL     1      31.481 -10.961 -17.046  0.00  0.00    +0.209 C 
ATOM     28  C   UNL     1      30.830 -12.023 -16.186  0.00  0.00    +0.051 C 
ENDBRANCH  26  27
ENDBRANCH  25  26
ENDBRANCH   2  25
BRANCH   3  30
ATOM     29  O   UNL     1      33.603  -8.755 -21.711  0.00  0.00    -0.250 OA
ATOM     30  C   UNL     1      32.536  -8.372 -21.251  0.00  0.00    +0.320 C 
BRANCH  30  31
ATOM     31  O   UNL     1      32.337  -7.261 -20.485  0.00  0.00    -0.448 OA
BRANCH  31  32
ATOM     32  C   UNL     1      31.470  -6.273 -21.048  0.00  0.00    +0.209 C 
ATOM     33  C   UNL     1      32.069  -5.773 -22.345  0.00  0.00    +0.051 C 
ENDBRANCH  31  32
ENDBRANCH  30  31
ENDBRANCH   3  30
TORSDOF 10
ENDMDL
MODEL 6
REMARK VINA RESULT:      -5.1      9.188     13.488
REMARK  Name = 24752837
REMARK  10 active torsions:
REMARK  status: ('A' for Active; 'I' for Inactive)
REMARK    1  A    between atoms: C_2  and  C_25
REMARK    2  A    between atoms: C_3  and  C_30
REMARK    3  A    between atoms: C_6  and  C_8
REMARK    4  A    between atoms: C_7  and  C_16
REMARK    5  A    between atoms: C_13  and  O_14
REMARK    6  A    between atoms: C_21  and  O_22
REMARK    7  A    between atoms: C_25  and  O_26
REMARK    8  A    between atoms: O_26  and  C_27
REMARK    9  A    between atoms: C_30  and  O_31
REMARK   10  A    between atoms: O_31  and  C_32
REMARK                            x       y       z     vdW  Elec       q    Type
REMARK                         _______ _______ _______ _____ _____    ______ ____
ROOT
ATOM      1  O   UNL     1      37.102 -22.249 -12.225  0.00  0.00    -0.349 OA
ATOM      2  C   UNL     1      37.395 -24.507 -12.085  0.00  0.00    +0.144 C 
ATOM      3  C   UNL     1      38.411 -23.912 -13.096  0.00  0.00    +0.144 C 
ATOM      4  C   UNL     1      36.280 -23.448 -12.114  0.00  0.00    +0.149 C 
ATOM      5  C   UNL     1      37.715 -22.593 -13.503  0.00  0.00    +0.149 C 
ATOM      6  C   UNL     1      35.589 -23.405 -13.459  0.00  0.00    +0.003 C 
ATOM      7  C   UNL     1      36.459 -22.822 -14.311  0.00  0.00    +0.003 C 
ENDROOT
BRANCH   6   8
ATOM      8  C   UNL     1      34.234 -23.917 -13.657  0.00  0.00    -0.002 C 
ATOM      9  C   UNL     1      33.186 -23.436 -12.872  0.00  0.00    +0.003 C 
ATOM     10  C   UNL     1      33.989 -24.885 -14.629  0.00  0.00    +0.003 C 
ATOM     11  C   UNL     1      31.892 -23.925 -13.060  0.00  0.00    +0.037 C 
ATOM     12  C   UNL     1      32.697 -25.374 -14.819  0.00  0.00    +0.037 C 
ATOM     13  C   UNL     1      31.649 -24.894 -14.034  0.00  0.00    +0.134 C 
BRANCH  13  14
ATOM     14  O   UNL     1      30.387 -25.370 -14.219  0.00  0.00    -0.506 OA
ATOM     15  H   UNL     1      30.256 -26.209 -14.614  0.00  0.00    +0.292 HD
ENDBRANCH  13  14
ENDBRANCH   6   8
BRANCH   7  16
ATOM     16  C   UNL     1      36.338 -22.423 -15.718  0.00  0.00    -0.002 C 
ATOM     17  C   UNL     1      35.249 -22.855 -16.473  0.00  0.00    +0.003 C 
ATOM     18  C   UNL     1      37.313 -21.612 -16.299  0.00  0.00    +0.003 C 
ATOM     19  C   UNL     1      35.133 -22.476 -17.811  0.00  0.00    +0.037 C 
ATOM     20  C   UNL     1      37.198 -21.233 -17.636  0.00  0.00    +0.037 C 
ATOM     21  C   UNL     1      36.108 -21.665 -18.392  0.00  0.00    +0.134 C 
BRANCH  21  22
ATOM     22  O   UNL     1      35.995 -21.294 -19.697  0.00  0.00    -0.506 OA
ATOM     23  H   UNL     1      35.575 -21.864 -20.311  0.00  0.00    +0.292 HD
ENDBRANCH  21  22
ENDBRANCH   7  16
BRANCH   2  25
ATOM     24  O   UNL     1      36.881 -26.783 -11.495  0.00  0.00    -0.250 OA
ATOM     25  C   UNL     1      36.906 -25.900 -12.341  0.00  0.00    +0.320 C 
BRANCH  25  26
ATOM     26  O   UNL     1      36.506 -26.011 -13.640  0.00  0.00    -0.448 OA
BRANCH  26  27
ATOM     27  C   UNL     1      36.712 -27.295 -14.238  0.00  0.00    +0.209 C 
ATOM     28  C   UNL     1      36.591 -27.163 -15.741  0.00  0.00    +0.051 C 
ENDBRANCH  26  27
ENDBRANCH  25  26
ENDBRANCH   2  25
BRANCH   3  30
ATOM     29  O   UNL     1      38.472 -24.521 -15.424  0.00  0.00    -0.250 OA
ATOM     30  C   UNL     1      38.771 -24.777 -14.265  0.00  0.00    +0.320 C 
BRANCH  30  31
ATOM     31  O   UNL     1      39.470 -25.864 -13.830  0.00  0.00    -0.448 OA
BRANCH  31  32
ATOM     32  C   UNL     1      40.617 -26.211 -14.613  0.00  0.00    +0.209 C 
ATOM     33  C   UNL     1      41.415 -27.265 -13.875  0.00  0.00    +0.051 C 
ENDBRANCH  31  32
ENDBRANCH  30  31
ENDBRANCH   3  30
TORSDOF 10
ENDMDL
MODEL 7
REMARK VINA RESULT:      -4.7      7.400     11.955
REMARK  Name = 24752837
REMARK  10 active torsions:
REMARK  status: ('A' for Active; 'I' for Inactive)
REMARK    1  A    between atoms: C_2  and  C_25
REMARK    2  A    between atoms: C_3  and  C_30
REMARK    3  A    between atoms: C_6  and  C_8
REMARK    4  A    between atoms: C_7  and  C_16
REMARK    5  A    between atoms: C_13  and  O_14
REMARK    6  A    between atoms: C_21  and  O_22
REMARK    7  A    between atoms: C_25  and  O_26
REMARK    8  A    between atoms: O_26  and  C_27
REMARK    9  A    between atoms: C_30  and  O_31
REMARK   10  A    between atoms: O_31  and  C_32
REMARK                            x       y       z     vdW  Elec       q    Type
REMARK                         _______ _______ _______ _____ _____    ______ ____
ROOT
ATOM      1  O   UNL     1      31.644 -25.622 -15.834  0.00  0.00    -0.349 OA
ATOM      2  C   UNL     1      31.752 -24.515 -13.842  0.00  0.00    +0.144 C 
ATOM      3  C   UNL     1      30.873 -23.711 -14.838  0.00  0.00    +0.144 C 
ATOM      4  C   UNL     1      32.634 -25.330 -14.804  0.00  0.00    +0.149 C 
ATOM      5  C   UNL     1      31.380 -24.236 -16.201  0.00  0.00    +0.149 C 
ATOM      6  C   UNL     1      33.566 -24.439 -15.595  0.00  0.00    +0.003 C 
ATOM      7  C   UNL     1      32.796 -23.800 -16.502  0.00  0.00    +0.003 C 
ENDROOT
BRANCH   6   8
ATOM      8  C   UNL     1      35.003 -24.386 -15.335  0.00  0.00    -0.002 C 
ATOM      9  C   UNL     1      35.646 -23.154 -15.220  0.00  0.00    +0.003 C 
ATOM     10  C   UNL     1      35.731 -25.568 -15.200  0.00  0.00    +0.003 C 
ATOM     11  C   UNL     1      37.018 -23.103 -14.972  0.00  0.00    +0.037 C 
ATOM     12  C   UNL     1      37.103 -25.518 -14.952  0.00  0.00    +0.037 C 
ATOM     13  C   UNL     1      37.746 -24.286 -14.837  0.00  0.00    +0.134 C 
BRANCH  13  14
ATOM     14  O   UNL     1      39.084 -24.236 -14.594  0.00  0.00    -0.506 OA
ATOM     15  H   UNL     1      39.604 -25.011 -14.679  0.00  0.00    +0.292 HD
ENDBRANCH  13  14
ENDBRANCH   6   8
BRANCH   7  16
ATOM     16  C   UNL     1      33.127 -22.883 -17.599  0.00  0.00    -0.002 C 
ATOM     17  C   UNL     1      32.148 -22.038 -18.120  0.00  0.00    +0.003 C 
ATOM     18  C   UNL     1      34.420 -22.859 -18.121  0.00  0.00    +0.003 C 
ATOM     19  C   UNL     1      32.462 -21.167 -19.164  0.00  0.00    +0.037 C 
ATOM     20  C   UNL     1      34.734 -21.988 -19.164  0.00  0.00    +0.037 C 
ATOM     21  C   UNL     1      33.756 -21.143 -19.686  0.00  0.00    +0.134 C 
BRANCH  21  22
ATOM     22  O   UNL     1      34.063 -20.292 -20.703  0.00  0.00    -0.506 OA
ATOM     23  H   UNL     1      34.869 -20.392 -21.169  0.00  0.00    +0.292 HD
ENDBRANCH  21  22
ENDBRANCH   7  16
BRANCH   2  25
ATOM     24  O   UNL     1      32.140 -22.694 -12.317  0.00  0.00    -0.250 OA
ATOM     25  C   UNL     1      32.532 -23.733 -12.831  0.00  0.00    +0.320 C 
BRANCH  25  26
ATOM     26  O   UNL     1      33.719 -24.359 -12.586  0.00  0.00    -0.448 OA
BRANCH  26  27
ATOM     27  C   UNL     1      34.668 -23.603 -11.827  0.00  0.00    +0.209 C 
ATOM     28  C   UNL     1      35.844 -24.492 -11.483  0.00  0.00    +0.051 C 
ENDBRANCH  26  27
ENDBRANCH  25  26
ENDBRANCH   2  25
BRANCH   3  30
ATOM     29  O   UNL     1      31.947 -21.586 -14.489  0.00  0.00    -0.250 OA
ATOM     30  C   UNL     1      30.926 -22.219 -14.721  0.00  0.00    +0.320 C 
BRANCH  30  31
ATOM     31  O   UNL     1      29.679 -21.702 -14.911  0.00  0.00    -0.448 OA
BRANCH  31  32
ATOM     32  C   UNL     1      28.663 -22.653 -15.246  0.00  0.00    +0.209 C 
ATOM     33  C   UNL     1      28.147 -22.354 -16.637  0.00  0.00    +0.051 C 
ENDBRANCH  31  32
ENDBRANCH  30  31
ENDBRANCH   3  30
TORSDOF 10
ENDMDL
MODEL 8
REMARK VINA RESULT:      -4.6      6.015      9.798
REMARK  Name = 24752837
REMARK  10 active torsions:
REMARK  status: ('A' for Active; 'I' for Inactive)
REMARK    1  A    between atoms: C_2  and  C_25
REMARK    2  A    between atoms: C_3  and  C_30
REMARK    3  A    between atoms: C_6  and  C_8
REMARK    4  A    between atoms: C_7  and  C_16
REMARK    5  A    between atoms: C_13  and  O_14
REMARK    6  A    between atoms: C_21  and  O_22
REMARK    7  A    between atoms: C_25  and  O_26
REMARK    8  A    between atoms: O_26  and  C_27
REMARK    9  A    between atoms: C_30  and  O_31
REMARK   10  A    between atoms: O_31  and  C_32
REMARK                            x       y       z     vdW  Elec       q    Type
REMARK                         _______ _______ _______ _____ _____    ______ ____
ROOT
ATOM      1  O   UNL     1      34.950  -7.628 -22.379  0.00  0.00    -0.349 OA
ATOM      2  C   UNL     1      33.001  -8.812 -22.321  0.00  0.00    +0.144 C 
ATOM      3  C   UNL     1      33.800  -9.186 -23.598  0.00  0.00    +0.144 C 
ATOM      4  C   UNL     1      33.555  -7.410 -22.015  0.00  0.00    +0.149 C 
ATOM      5  C   UNL     1      34.703  -7.944 -23.780  0.00  0.00    +0.149 C 
ATOM      6  C   UNL     1      33.168  -6.413 -23.084  0.00  0.00    +0.003 C 
ATOM      7  C   UNL     1      33.921  -6.709 -24.165  0.00  0.00    +0.003 C 
ENDROOT
BRANCH   6   8
ATOM      8  C   UNL     1      32.167  -5.373 -22.855  0.00  0.00    -0.002 C 
ATOM      9  C   UNL     1      32.105  -4.267 -23.703  0.00  0.00    +0.003 C 
ATOM     10  C   UNL     1      31.274  -5.486 -21.791  0.00  0.00    +0.003 C 
ATOM     11  C   UNL     1      31.150  -3.273 -23.485  0.00  0.00    +0.037 C 
ATOM     12  C   UNL     1      30.318  -4.494 -21.572  0.00  0.00    +0.037 C 
ATOM     13  C   UNL     1      30.257  -3.388 -22.420  0.00  0.00    +0.134 C 
BRANCH  13  14
ATOM     14  O   UNL     1      29.324  -2.419 -22.208  0.00  0.00    -0.506 OA
ATOM     15  H   UNL     1      28.693  -2.223 -22.872  0.00  0.00    +0.292 HD
ENDBRANCH  13  14
ENDBRANCH   6   8
BRANCH   7  16
ATOM     16  C   UNL     1      34.067  -6.053 -25.470  0.00  0.00    -0.002 C 
ATOM     17  C   UNL     1      32.944  -5.554 -26.127  0.00  0.00    +0.003 C 
ATOM     18  C   UNL     1      35.329  -5.931 -26.052  0.00  0.00    +0.003 C 
ATOM     19  C   UNL     1      33.082  -4.931 -27.368  0.00  0.00    +0.037 C 
ATOM     20  C   UNL     1      35.467  -5.308 -27.292  0.00  0.00    +0.037 C 
ATOM     21  C   UNL     1      34.343  -4.809 -27.950  0.00  0.00    +0.134 C 
BRANCH  21  22
ATOM     22  O   UNL     1      34.478  -4.200 -29.160  0.00  0.00    -0.506 OA
ATOM     23  H   UNL     1      34.258  -4.663 -29.945  0.00  0.00    +0.292 HD
ENDBRANCH  21  22
ENDBRANCH   7  16
BRANCH   2  25
ATOM     24  O   UNL     1      30.829  -8.053 -23.028  0.00  0.00    -0.250 OA
ATOM     25  C   UNL     1      31.507  -8.861 -22.407  0.00  0.00    +0.320 C 
BRANCH  25  26
ATOM     26  O   UNL     1      31.043  -9.929 -21.696  0.00  0.00    -0.448 OA
BRANCH  26  27
ATOM     27  C   UNL     1      31.566 -10.059 -20.370  0.00  0.00    +0.209 C 
ATOM     28  C   UNL     1      31.553 -11.520 -19.977  0.00  0.00    +0.051 C 
ENDBRANCH  26  27
ENDBRANCH  25  26
ENDBRANCH   2  25
BRANCH   3  30
ATOM     29  O   UNL     1      32.075  -8.827 -25.237  0.00  0.00    -0.250 OA
ATOM     30  C   UNL     1      32.994  -9.516 -24.816  0.00  0.00    +0.320 C 
BRANCH  30  31
ATOM     31  O   UNL     1      33.446 -10.682 -25.360  0.00  0.00    -0.448 OA
BRANCH  31  32
ATOM     32  C   UNL     1      34.190 -11.525 -24.475  0.00  0.00    +0.209 C 
ATOM     33  C   UNL     1      33.482 -12.857 -24.351  0.00  0.00    +0.051 C 
ENDBRANCH  31  32
ENDBRANCH  30  31
ENDBRANCH   3  30
TORSDOF 10
ENDMDL
MODEL 9
REMARK VINA RESULT:      -4.5      4.428      8.310
REMARK  Name = 24752837
REMARK  10 active torsions:
REMARK  status: ('A' for Active; 'I' for Inactive)
REMARK    1  A    between atoms: C_2  and  C_25
REMARK    2  A    between atoms: C_3  and  C_30
REMARK    3  A    between atoms: C_6  and  C_8
REMARK    4  A    between atoms: C_7  and  C_16
REMARK    5  A    between atoms: C_13  and  O_14
REMARK    6  A    between atoms: C_21  and  O_22
REMARK    7  A    between atoms: C_25  and  O_26
REMARK    8  A    between atoms: O_26  and  C_27
REMARK    9  A    between atoms: C_30  and  O_31
REMARK   10  A    between atoms: O_31  and  C_32
REMARK                            x       y       z     vdW  Elec       q    Type
REMARK                         _______ _______ _______ _____ _____    ______ ____
ROOT
ATOM      1  O   UNL     1      30.697  -8.391 -24.268  0.00  0.00    -0.349 OA
ATOM      2  C   UNL     1      32.122  -6.992 -23.165  0.00  0.00    +0.144 C 
ATOM      3  C   UNL     1      32.843  -7.606 -24.394  0.00  0.00    +0.144 C 
ATOM      4  C   UNL     1      31.034  -8.045 -22.892  0.00  0.00    +0.149 C 
ATOM      5  C   UNL     1      32.016  -8.890 -24.636  0.00  0.00    +0.149 C 
ATOM      6  C   UNL     1      31.632  -9.359 -22.441  0.00  0.00    +0.003 C 
ATOM      7  C   UNL     1      32.195  -9.912 -23.537  0.00  0.00    +0.003 C 
ENDROOT
BRANCH   6   8
ATOM      8  C   UNL     1      31.536  -9.827 -21.060  0.00  0.00    -0.002 C 
ATOM      9  C   UNL     1      30.640 -10.844 -20.729  0.00  0.00    +0.003 C 
ATOM     10  C   UNL     1      32.340  -9.258 -20.073  0.00  0.00    +0.003 C 
ATOM     11  C   UNL     1      30.547 -11.291 -19.411  0.00  0.00    +0.037 C 
ATOM     12  C   UNL     1      32.248  -9.705 -18.755  0.00  0.00    +0.037 C 
ATOM     13  C   UNL     1      31.353 -10.721 -18.424  0.00  0.00    +0.134 C 
BRANCH  13  14
ATOM     14  O   UNL     1      31.263 -11.158 -17.138  0.00  0.00    -0.506 OA
ATOM     15  H   UNL     1      30.449 -11.095 -16.678  0.00  0.00    +0.292 HD
ENDBRANCH  13  14
ENDBRANCH   6   8
BRANCH   7  16
ATOM     16  C   UNL     1      32.844 -11.210 -23.759  0.00  0.00    -0.002 C 
ATOM     17  C   UNL     1      32.767 -12.203 -22.785  0.00  0.00    +0.003 C 
ATOM     18  C   UNL     1      33.538 -11.448 -24.946  0.00  0.00    +0.003 C 
ATOM     19  C   UNL     1      33.384 -13.437 -22.995  0.00  0.00    +0.037 C 
ATOM     20  C   UNL     1      34.154 -12.681 -25.157  0.00  0.00    +0.037 C 
ATOM     21  C   UNL     1      34.078 -13.675 -24.182  0.00  0.00    +0.134 C 
BRANCH  21  22
ATOM     22  O   UNL     1      34.679 -14.879 -24.388  0.00  0.00    -0.506 OA
ATOM     23  H   UNL     1      34.388 -15.634 -23.916  0.00  0.00    +0.292 HD
ENDBRANCH  21  22
ENDBRANCH   7  16
BRANCH   2  25
ATOM     24  O   UNL     1      33.991  -7.265 -21.673  0.00  0.00    -0.250 OA
ATOM     25  C   UNL     1      32.961  -6.673 -21.966  0.00  0.00    +0.320 C 
BRANCH  25  26
ATOM     26  O   UNL     1      32.397  -5.639 -21.277  0.00  0.00    -0.448 OA
BRANCH  26  27
ATOM     27  C   UNL     1      31.515  -4.804 -22.034  0.00  0.00    +0.209 C 
ATOM     28  C   UNL     1      30.117  -4.922 -21.466  0.00  0.00    +0.051 C 
ENDBRANCH  26  27
ENDBRANCH  25  26
ENDBRANCH   2  25
BRANCH   3  30
ATOM     29  O   UNL     1      34.779  -8.860 -23.708  0.00  0.00    -0.250 OA
ATOM     30  C   UNL     1      34.311  -7.866 -24.246  0.00  0.00    +0.320 C 
BRANCH  30  31
ATOM     31  O   UNL     1      35.014  -6.836 -24.798  0.00  0.00    -0.448 OA
BRANCH  31  32
ATOM     32  C   UNL     1      34.261  -5.961 -25.644  0.00  0.00    +0.209 C 
ATOM     33  C   UNL     1      35.177  -5.400 -26.711  0.00  0.00    +0.051 C 
ENDBRANCH  31  32
ENDBRANCH  30  31
ENDBRANCH   3  30
TORSDOF 10
ENDMDL
