MODEL 1
REMARK VINA RESULT:      -8.7      0.000      0.000
REMARK  Name = 9838899
REMARK  1 active torsions:
REMARK  status: ('A' for Active; 'I' for Inactive)
REMARK    1  A    between atoms: C_8  and  O_21
REMARK                            x       y       z     vdW  Elec       q    Type
REMARK                         _______ _______ _______ _____ _____    ______ ____
ROOT
ATOM      1  O   UNL     1      33.369 -15.575 -21.110  0.00  0.00    -0.291 OA
ATOM      2  C   UNL     1      32.101  -8.055 -21.975  0.00  0.00    +0.002 C 
ATOM      3  C   UNL     1      32.277  -7.515 -23.409  0.00  0.00    +0.025 C 
ATOM      4  C   UNL     1      31.643  -9.517 -21.948  0.00  0.00    +0.001 C 
ATOM      5  C   UNL     1      32.710 -10.394 -22.673  0.00  0.00    +0.004 C 
ATOM      6  C   UNL     1      33.381  -8.332 -24.092  0.00  0.00    +0.002 C 
ATOM      7  C   UNL     1      33.063  -9.838 -24.079  0.00  0.00    +0.000 C 
ATOM      8  C   UNL     1      32.660  -6.059 -23.082  0.00  0.00    +0.110 C 
ATOM      9  C   UNL     1      31.332 -10.050 -20.527  0.00  0.00    +0.004 C 
ATOM     10  C   UNL     1      31.236  -6.993 -21.302  0.00  0.00    +0.003 C 
ATOM     11  C   UNL     1      32.273 -11.891 -22.733  0.00  0.00    +0.019 C 
ATOM     12  C   UNL     1      31.708  -5.671 -21.934  0.00  0.00    +0.029 C 
ATOM     13  C   UNL     1      30.839 -11.499 -20.634  0.00  0.00    +0.022 C 
ATOM     14  C   UNL     1      30.996  -7.550 -24.282  0.00  0.00    +0.002 C 
ATOM     15  C   UNL     1      31.801 -12.395 -21.376  0.00  0.00    -0.042 C 
ATOM     16  C   UNL     1      33.414 -12.761 -23.301  0.00  0.00    +0.012 C 
ATOM     17  C   UNL     1      32.494  -9.940 -19.532  0.00  0.00    +0.000 C 
ATOM     18  C   UNL     1      33.178 -14.247 -23.095  0.00  0.00    +0.069 C 
ATOM     19  C   UNL     1      32.158 -13.577 -20.848  0.00  0.00    +0.029 C 
ATOM     20  C   UNL     1      32.965 -14.539 -21.633  0.00  0.00    +0.173 C 
ENDROOT
BRANCH   8  21
ATOM     21  O   UNL     1      32.529  -5.190 -24.190  0.00  0.00    -0.384 OA
ATOM     22  H   UNL     1      31.629  -5.252 -24.546  0.00  0.00    +0.210 HD
ENDBRANCH   8  21
TORSDOF 1
ENDMDL
MODEL 2
REMARK VINA RESULT:      -8.2      4.209      6.652
REMARK  Name = 9838899
REMARK  1 active torsions:
REMARK  status: ('A' for Active; 'I' for Inactive)
REMARK    1  A    between atoms: C_8  and  O_21
REMARK                            x       y       z     vdW  Elec       q    Type
REMARK                         _______ _______ _______ _____ _____    ______ ____
ROOT
ATOM      1  O   UNL     1      33.063  -7.866 -20.643  0.00  0.00    -0.291 OA
ATOM      2  C   UNL     1      32.640  -3.391 -26.863  0.00  0.00    +0.002 C 
ATOM      3  C   UNL     1      33.592  -3.769 -28.017  0.00  0.00    +0.025 C 
ATOM      4  C   UNL     1      32.214  -4.603 -26.030  0.00  0.00    +0.001 C 
ATOM      5  C   UNL     1      33.486  -5.266 -25.415  0.00  0.00    +0.004 C 
ATOM      6  C   UNL     1      34.872  -4.351 -27.405  0.00  0.00    +0.002 C 
ATOM      7  C   UNL     1      34.570  -5.551 -26.490  0.00  0.00    +0.000 C 
ATOM      8  C   UNL     1      33.759  -2.383 -28.667  0.00  0.00    +0.110 C 
ATOM      9  C   UNL     1      31.157  -4.277 -24.945  0.00  0.00    +0.004 C 
ATOM     10  C   UNL     1      31.569  -2.549 -27.552  0.00  0.00    +0.003 C 
ATOM     11  C   UNL     1      33.125  -6.547 -24.601  0.00  0.00    +0.019 C 
ATOM     12  C   UNL     1      32.339  -1.786 -28.644  0.00  0.00    +0.029 C 
ATOM     13  C   UNL     1      30.777  -5.572 -24.213  0.00  0.00    +0.022 C 
ATOM     14  C   UNL     1      33.008  -4.776 -29.041  0.00  0.00    +0.002 C 
ATOM     15  C   UNL     1      31.971  -6.296 -23.640  0.00  0.00    -0.042 C 
ATOM     16  C   UNL     1      34.372  -7.086 -23.868  0.00  0.00    +0.012 C 
ATOM     17  C   UNL     1      31.576  -3.189 -23.948  0.00  0.00    +0.000 C 
ATOM     18  C   UNL     1      34.031  -8.130 -22.819  0.00  0.00    +0.069 C 
ATOM     19  C   UNL     1      31.951  -6.714 -22.364  0.00  0.00    +0.029 C 
ATOM     20  C   UNL     1      33.038  -7.569 -21.835  0.00  0.00    +0.173 C 
ENDROOT
BRANCH   8  21
ATOM     21  O   UNL     1      34.282  -2.447 -29.980  0.00  0.00    -0.384 OA
ATOM     22  H   UNL     1      34.439  -3.372 -30.221  0.00  0.00    +0.210 HD
ENDBRANCH   8  21
TORSDOF 1
ENDMDL
MODEL 3
REMARK VINA RESULT:      -8.1     10.836     15.137
REMARK  Name = 9838899
REMARK  1 active torsions:
REMARK  status: ('A' for Active; 'I' for Inactive)
REMARK    1  A    between atoms: C_8  and  O_21
REMARK                            x       y       z     vdW  Elec       q    Type
REMARK                         _______ _______ _______ _____ _____    ______ ____
ROOT
ATOM      1  O   UNL     1      33.694 -19.257 -21.370  0.00  0.00    -0.291 OA
ATOM      2  C   UNL     1      36.366 -23.138 -15.312  0.00  0.00    +0.002 C 
ATOM      3  C   UNL     1      35.390 -24.163 -14.700  0.00  0.00    +0.025 C 
ATOM      4  C   UNL     1      36.152 -22.946 -16.817  0.00  0.00    +0.001 C 
ATOM      5  C   UNL     1      34.696 -22.438 -17.059  0.00  0.00    +0.004 C 
ATOM      6  C   UNL     1      33.965 -23.623 -14.872  0.00  0.00    +0.002 C 
ATOM      7  C   UNL     1      33.643 -23.333 -16.349  0.00  0.00    +0.000 C 
ATOM      8  C   UNL     1      35.908 -24.164 -13.249  0.00  0.00    +0.110 C 
ATOM      9  C   UNL     1      37.199 -22.022 -17.486  0.00  0.00    +0.004 C 
ATOM     10  C   UNL     1      37.730 -23.606 -14.810  0.00  0.00    +0.003 C 
ATOM     11  C   UNL     1      34.393 -22.280 -18.581  0.00  0.00    +0.019 C 
ATOM     12  C   UNL     1      37.441 -24.151 -13.399  0.00  0.00    +0.029 C 
ATOM     13  C   UNL     1      36.910 -21.948 -18.992  0.00  0.00    +0.022 C 
ATOM     14  C   UNL     1      35.477 -25.589 -15.302  0.00  0.00    +0.002 C 
ATOM     15  C   UNL     1      35.496 -21.515 -19.298  0.00  0.00    -0.042 C 
ATOM     16  C   UNL     1      33.013 -21.621 -18.787  0.00  0.00    +0.012 C 
ATOM     17  C   UNL     1      37.298 -20.617 -16.879  0.00  0.00    +0.000 C 
ATOM     18  C   UNL     1      32.794 -21.153 -20.215  0.00  0.00    +0.069 C 
ATOM     19  C   UNL     1      35.275 -20.537 -20.191  0.00  0.00    +0.029 C 
ATOM     20  C   UNL     1      33.897 -20.215 -20.628  0.00  0.00    +0.173 C 
ENDROOT
BRANCH   8  21
ATOM     21  O   UNL     1      35.463 -25.282 -12.503  0.00  0.00    -0.384 OA
ATOM     22  H   UNL     1      36.194 -25.625 -11.967  0.00  0.00    +0.210 HD
ENDBRANCH   8  21
TORSDOF 1
ENDMDL
MODEL 4
REMARK VINA RESULT:      -8.0     14.570     16.333
REMARK  Name = 9838899
REMARK  1 active torsions:
REMARK  status: ('A' for Active; 'I' for Inactive)
REMARK    1  A    between atoms: C_8  and  O_21
REMARK                            x       y       z     vdW  Elec       q    Type
REMARK                         _______ _______ _______ _____ _____    ______ ____
ROOT
ATOM      1  O   UNL     1      39.417 -24.672 -14.970  0.00  0.00    -0.291 OA
ATOM      2  C   UNL     1      31.857 -23.716 -15.885  0.00  0.00    +0.002 C 
ATOM      3  C   UNL     1      30.995 -24.042 -14.649  0.00  0.00    +0.025 C 
ATOM      4  C   UNL     1      33.256 -23.214 -15.512  0.00  0.00    +0.001 C 
ATOM      5  C   UNL     1      33.985 -24.319 -14.685  0.00  0.00    +0.004 C 
ATOM      6  C   UNL     1      31.677 -25.181 -13.881  0.00  0.00    +0.002 C 
ATOM      7  C   UNL     1      33.122 -24.819 -13.495  0.00  0.00    +0.000 C 
ATOM      8  C   UNL     1      29.684 -24.436 -15.356  0.00  0.00    +0.110 C 
ATOM      9  C   UNL     1      34.101 -22.755 -16.726  0.00  0.00    +0.004 C 
ATOM     10  C   UNL     1      30.947 -22.824 -16.725  0.00  0.00    +0.003 C 
ATOM     11  C   UNL     1      35.397 -23.844 -14.220  0.00  0.00    +0.019 C 
ATOM     12  C   UNL     1      29.538 -23.392 -16.480  0.00  0.00    +0.029 C 
ATOM     13  C   UNL     1      35.454 -22.231 -16.223  0.00  0.00    +0.022 C 
ATOM     14  C   UNL     1      30.749 -22.849 -13.690  0.00  0.00    +0.002 C 
ATOM     15  C   UNL     1      36.191 -23.232 -15.367  0.00  0.00    -0.042 C 
ATOM     16  C   UNL     1      36.161 -25.008 -13.553  0.00  0.00    +0.012 C 
ATOM     17  C   UNL     1      34.297 -23.821 -17.811  0.00  0.00    +0.000 C 
ATOM     18  C   UNL     1      37.638 -24.709 -13.366  0.00  0.00    +0.069 C 
ATOM     19  C   UNL     1      37.483 -23.502 -15.614  0.00  0.00    +0.029 C 
ATOM     20  C   UNL     1      38.265 -24.351 -14.687  0.00  0.00    +0.173 C 
ENDROOT
BRANCH   8  21
ATOM     21  O   UNL     1      28.565 -24.436 -14.490  0.00  0.00    -0.384 OA
ATOM     22  H   UNL     1      27.822 -24.884 -14.922  0.00  0.00    +0.210 HD
ENDBRANCH   8  21
TORSDOF 1
ENDMDL
MODEL 5
REMARK VINA RESULT:      -8.0      3.001      8.024
REMARK  Name = 9838899
REMARK  1 active torsions:
REMARK  status: ('A' for Active; 'I' for Inactive)
REMARK    1  A    between atoms: C_8  and  O_21
REMARK                            x       y       z     vdW  Elec       q    Type
REMARK                         _______ _______ _______ _____ _____    ______ ____
ROOT
ATOM      1  O   UNL     1      31.419  -9.417 -21.288  0.00  0.00    -0.291 OA
ATOM      2  C   UNL     1      34.558 -16.246 -22.839  0.00  0.00    +0.002 C 
ATOM      3  C   UNL     1      34.643 -17.222 -21.648  0.00  0.00    +0.025 C 
ATOM      4  C   UNL     1      33.366 -15.291 -22.735  0.00  0.00    +0.001 C 
ATOM      5  C   UNL     1      33.504 -14.451 -21.426  0.00  0.00    +0.004 C 
ATOM      6  C   UNL     1      34.855 -16.396 -20.372  0.00  0.00    +0.002 C 
ATOM      7  C   UNL     1      33.742 -15.350 -20.182  0.00  0.00    +0.000 C 
ATOM      8  C   UNL     1      35.864 -18.050 -22.090  0.00  0.00    +0.110 C 
ATOM      9  C   UNL     1      33.177 -14.386 -23.978  0.00  0.00    +0.004 C 
ATOM     10  C   UNL     1      34.671 -17.164 -24.054  0.00  0.00    +0.003 C 
ATOM     11  C   UNL     1      32.285 -13.498 -21.229  0.00  0.00    +0.019 C 
ATOM     12  C   UNL     1      35.640 -18.269 -23.599  0.00  0.00    +0.029 C 
ATOM     13  C   UNL     1      31.930 -13.514 -23.776  0.00  0.00    +0.022 C 
ATOM     14  C   UNL     1      33.408 -18.141 -21.467  0.00  0.00    +0.002 C 
ATOM     15  C   UNL     1      31.972 -12.715 -22.496  0.00  0.00    -0.042 C 
ATOM     16  C   UNL     1      32.524 -12.564 -20.024  0.00  0.00    +0.012 C 
ATOM     17  C   UNL     1      34.394 -13.524 -24.335  0.00  0.00    +0.000 C 
ATOM     18  C   UNL     1      31.535 -11.413 -19.968  0.00  0.00    +0.069 C 
ATOM     19  C   UNL     1      31.700 -11.400 -22.519  0.00  0.00    +0.029 C 
ATOM     20  C   UNL     1      31.572 -10.636 -21.257  0.00  0.00    +0.173 C 
ENDROOT
BRANCH   8  21
ATOM     21  O   UNL     1      35.983 -19.276 -21.393  0.00  0.00    -0.384 OA
ATOM     22  H   UNL     1      36.742 -19.771 -21.738  0.00  0.00    +0.210 HD
ENDBRANCH   8  21
TORSDOF 1
ENDMDL
MODEL 6
REMARK VINA RESULT:      -7.3     14.021     16.827
REMARK  Name = 9838899
REMARK  1 active torsions:
REMARK  status: ('A' for Active; 'I' for Inactive)
REMARK    1  A    between atoms: C_8  and  O_21
REMARK                            x       y       z     vdW  Elec       q    Type
REMARK                         _______ _______ _______ _____ _____    ______ ____
ROOT
ATOM      1  O   UNL     1      29.632 -22.007 -16.884  0.00  0.00    -0.291 OA
ATOM      2  C   UNL     1      36.601 -23.795 -14.213  0.00  0.00    +0.002 C 
ATOM      3  C   UNL     1      36.623 -24.512 -12.848  0.00  0.00    +0.025 C 
ATOM      4  C   UNL     1      35.335 -24.101 -15.019  0.00  0.00    +0.001 C 
ATOM      5  C   UNL     1      34.090 -23.632 -14.202  0.00  0.00    +0.004 C 
ATOM      6  C   UNL     1      35.442 -23.991 -12.020  0.00  0.00    +0.002 C 
ATOM      7  C   UNL     1      34.103 -24.190 -12.753  0.00  0.00    +0.000 C 
ATOM      8  C   UNL     1      38.009 -24.059 -12.351  0.00  0.00    +0.110 C 
ATOM      9  C   UNL     1      35.341 -23.501 -16.448  0.00  0.00    +0.004 C 
ATOM     10  C   UNL     1      37.963 -24.137 -14.812  0.00  0.00    +0.003 C 
ATOM     11  C   UNL     1      32.760 -23.971 -14.944  0.00  0.00    +0.019 C 
ATOM     12  C   UNL     1      38.908 -24.170 -13.597  0.00  0.00    +0.029 C 
ATOM     13  C   UNL     1      34.050 -23.914 -17.168  0.00  0.00    +0.022 C 
ATOM     14  C   UNL     1      36.558 -26.059 -12.921  0.00  0.00    +0.002 C 
ATOM     15  C   UNL     1      32.804 -23.540 -16.403  0.00  0.00    -0.042 C 
ATOM     16  C   UNL     1      31.559 -23.351 -14.200  0.00  0.00    +0.012 C 
ATOM     17  C   UNL     1      35.536 -21.981 -16.505  0.00  0.00    +0.000 C 
ATOM     18  C   UNL     1      30.284 -23.371 -15.025  0.00  0.00    +0.069 C 
ATOM     19  C   UNL     1      31.801 -22.902 -17.028  0.00  0.00    +0.029 C 
ATOM     20  C   UNL     1      30.509 -22.675 -16.342  0.00  0.00    +0.173 C 
ENDROOT
BRANCH   8  21
ATOM     21  O   UNL     1      38.496 -24.845 -11.280  0.00  0.00    -0.384 OA
ATOM     22  H   UNL     1      38.992 -25.600 -11.632  0.00  0.00    +0.210 HD
ENDBRANCH   8  21
TORSDOF 1
ENDMDL
MODEL 7
REMARK VINA RESULT:      -7.3      3.351      8.342
REMARK  Name = 9838899
REMARK  1 active torsions:
REMARK  status: ('A' for Active; 'I' for Inactive)
REMARK    1  A    between atoms: C_8  and  O_21
REMARK                            x       y       z     vdW  Elec       q    Type
REMARK                         _______ _______ _______ _____ _____    ______ ____
ROOT
ATOM      1  O   UNL     1      31.110 -10.473 -22.259  0.00  0.00    -0.291 OA
ATOM      2  C   UNL     1      33.913 -17.615 -22.066  0.00  0.00    +0.002 C 
ATOM      3  C   UNL     1      34.880 -17.978 -23.210  0.00  0.00    +0.025 C 
ATOM      4  C   UNL     1      33.957 -16.127 -21.705  0.00  0.00    +0.001 C 
ATOM      5  C   UNL     1      33.562 -15.290 -22.961  0.00  0.00    +0.004 C 
ATOM      6  C   UNL     1      34.441 -17.210 -24.464  0.00  0.00    +0.002 C 
ATOM      7  C   UNL     1      34.390 -15.693 -24.212  0.00  0.00    +0.000 C 
ATOM      8  C   UNL     1      34.641 -19.498 -23.268  0.00  0.00    +0.110 C 
ATOM      9  C   UNL     1      33.094 -15.755 -20.474  0.00  0.00    +0.004 C 
ATOM     10  C   UNL     1      34.235 -18.650 -20.991  0.00  0.00    +0.003 C 
ATOM     11  C   UNL     1      33.647 -13.759 -22.677  0.00  0.00    +0.019 C 
ATOM     12  C   UNL     1      34.576 -19.922 -21.788  0.00  0.00    +0.029 C 
ATOM     13  C   UNL     1      33.259 -14.256 -20.183  0.00  0.00    +0.022 C 
ATOM     14  C   UNL     1      36.374 -17.680 -22.922  0.00  0.00    +0.002 C 
ATOM     15  C   UNL     1      32.945 -13.388 -21.378  0.00  0.00    -0.042 C 
ATOM     16  C   UNL     1      33.093 -12.959 -23.875  0.00  0.00    +0.012 C 
ATOM     17  C   UNL     1      31.612 -16.128 -20.593  0.00  0.00    +0.000 C 
ATOM     18  C   UNL     1      32.855 -11.496 -23.543  0.00  0.00    +0.069 C 
ATOM     19  C   UNL     1      32.123 -12.335 -21.242  0.00  0.00    +0.029 C 
ATOM     20  C   UNL     1      31.936 -11.378 -22.356  0.00  0.00    +0.173 C 
ENDROOT
BRANCH   8  21
ATOM     21  O   UNL     1      35.655 -20.193 -23.970  0.00  0.00    -0.384 OA
ATOM     22  H   UNL     1      35.436 -20.217 -24.914  0.00  0.00    +0.210 HD
ENDBRANCH   8  21
TORSDOF 1
ENDMDL
MODEL 8
REMARK VINA RESULT:      -7.2      5.628      8.943
REMARK  Name = 9838899
REMARK  1 active torsions:
REMARK  status: ('A' for Active; 'I' for Inactive)
REMARK    1  A    between atoms: C_8  and  O_21
REMARK                            x       y       z     vdW  Elec       q    Type
REMARK                         _______ _______ _______ _____ _____    ______ ____
ROOT
ATOM      1  O   UNL     1      34.290 -23.879 -19.902  0.00  0.00    -0.291 OA
ATOM      2  C   UNL     1      34.191 -16.623 -22.400  0.00  0.00    +0.002 C 
ATOM      3  C   UNL     1      33.223 -15.680 -21.657  0.00  0.00    +0.025 C 
ATOM      4  C   UNL     1      34.725 -17.744 -21.504  0.00  0.00    +0.001 C 
ATOM      5  C   UNL     1      33.522 -18.592 -20.984  0.00  0.00    +0.004 C 
ATOM      6  C   UNL     1      32.006 -16.502 -21.215  0.00  0.00    +0.002 C 
ATOM      7  C   UNL     1      32.418 -17.704 -20.347  0.00  0.00    +0.000 C 
ATOM      8  C   UNL     1      32.943 -14.670 -22.786  0.00  0.00    +0.110 C 
ATOM      9  C   UNL     1      35.799 -18.631 -22.182  0.00  0.00    +0.004 C 
ATOM     10  C   UNL     1      35.180 -15.664 -23.058  0.00  0.00    +0.003 C 
ATOM     11  C   UNL     1      33.994 -19.718 -20.014  0.00  0.00    +0.019 C 
ATOM     12  C   UNL     1      34.322 -14.442 -23.434  0.00  0.00    +0.029 C 
ATOM     13  C   UNL     1      36.289 -19.681 -21.175  0.00  0.00    +0.022 C 
ATOM     14  C   UNL     1      33.830 -14.957 -20.428  0.00  0.00    +0.002 C 
ATOM     15  C   UNL     1      35.166 -20.502 -20.589  0.00  0.00    -0.042 C 
ATOM     16  C   UNL     1      32.813 -20.642 -19.649  0.00  0.00    +0.012 C 
ATOM     17  C   UNL     1      35.351 -19.295 -23.490  0.00  0.00    +0.000 C 
ATOM     18  C   UNL     1      33.259 -21.926 -18.972  0.00  0.00    +0.069 C 
ATOM     19  C   UNL     1      35.261 -21.841 -20.560  0.00  0.00    +0.029 C 
ATOM     20  C   UNL     1      34.251 -22.652 -19.842  0.00  0.00    +0.173 C 
ENDROOT
BRANCH   8  21
ATOM     21  O   UNL     1      32.376 -13.460 -22.319  0.00  0.00    -0.384 OA
ATOM     22  H   UNL     1      32.422 -12.790 -23.018  0.00  0.00    +0.210 HD
ENDBRANCH   8  21
TORSDOF 1
ENDMDL
MODEL 9
REMARK VINA RESULT:      -7.2      1.123      6.304
REMARK  Name = 9838899
REMARK  1 active torsions:
REMARK  status: ('A' for Active; 'I' for Inactive)
REMARK    1  A    between atoms: C_8  and  O_21
REMARK                            x       y       z     vdW  Elec       q    Type
REMARK                         _______ _______ _______ _____ _____    ______ ____
ROOT
ATOM      1  O   UNL     1      30.990  -5.839 -23.068  0.00  0.00    -0.291 OA
ATOM      2  C   UNL     1      32.303 -13.238 -21.509  0.00  0.00    +0.002 C 
ATOM      3  C   UNL     1      33.328 -13.936 -22.426  0.00  0.00    +0.025 C 
ATOM      4  C   UNL     1      32.586 -11.742 -21.340  0.00  0.00    +0.001 C 
ATOM      5  C   UNL     1      32.534 -11.056 -22.741  0.00  0.00    +0.004 C 
ATOM      6  C   UNL     1      33.219 -13.310 -23.822  0.00  0.00    +0.002 C 
ATOM      7  C   UNL     1      33.429 -11.786 -23.779  0.00  0.00    +0.000 C 
ATOM      8  C   UNL     1      32.808 -15.383 -22.326  0.00  0.00    +0.110 C 
ATOM      9  C   UNL     1      31.653 -11.039 -20.323  0.00  0.00    +0.004 C 
ATOM     10  C   UNL     1      32.270 -14.133 -20.273  0.00  0.00    +0.003 C 
ATOM     11  C   UNL     1      32.875  -9.537 -22.645  0.00  0.00    +0.019 C 
ATOM     12  C   UNL     1      32.463 -15.553 -20.834  0.00  0.00    +0.029 C 
ATOM     13  C   UNL     1      32.064  -9.565 -20.204  0.00  0.00    +0.022 C 
ATOM     14  C   UNL     1      34.798 -13.859 -21.940  0.00  0.00    +0.002 C 
ATOM     15  C   UNL     1      32.089  -8.853 -21.535  0.00  0.00    -0.042 C 
ATOM     16  C   UNL     1      32.653  -8.851 -24.010  0.00  0.00    +0.012 C 
ATOM     17  C   UNL     1      30.156 -11.166 -20.631  0.00  0.00    +0.000 C 
ATOM     18  C   UNL     1      32.660  -7.335 -23.912  0.00  0.00    +0.069 C 
ATOM     19  C   UNL     1      31.476  -7.666 -21.670  0.00  0.00    +0.029 C 
ATOM     20  C   UNL     1      31.630  -6.876 -22.914  0.00  0.00    +0.173 C 
ENDROOT
BRANCH   8  21
ATOM     21  O   UNL     1      33.753 -16.342 -22.759  0.00  0.00    -0.384 OA
ATOM     22  H   UNL     1      33.380 -17.231 -22.660  0.00  0.00    +0.210 HD
ENDBRANCH   8  21
TORSDOF 1
ENDMDL
