MODEL 1
REMARK VINA RESULT:      -8.7      0.000      0.000
REMARK  Name = 8420
REMARK  1 active torsions:
REMARK  status: ('A' for Active; 'I' for Inactive)
REMARK    1  A    between atoms: C_3  and  S_11
REMARK                            x       y       z     vdW  Elec       q    Type
REMARK                         _______ _______ _______ _____ _____    ______ ____
ROOT
ATOM      1  C   UNL     1      34.476 -19.900 -20.675  0.00  0.00    +0.001 C 
ATOM      2  C   UNL     1      35.890 -19.853 -20.654  0.00  0.00    +0.000 C 
ATOM      3  C   UNL     1      34.526 -21.782 -19.134  0.00  0.00    +0.112 C 
ATOM      4  C   UNL     1      33.809 -20.871 -19.910  0.00  0.00    +0.019 C 
ATOM      5  C   UNL     1      36.596 -20.778 -19.867  0.00  0.00    +0.001 C 
ATOM      6  C   UNL     1      35.918 -21.736 -19.113  0.00  0.00    +0.019 C 
ATOM      7  C   UNL     1      33.769 -18.974 -21.461  0.00  0.00    +0.000 C 
ATOM      8  C   UNL     1      36.556 -18.882 -21.419  0.00  0.00    +0.000 C 
ATOM      9  C   UNL     1      34.448 -18.017 -22.215  0.00  0.00    +0.000 C 
ATOM     10  C   UNL     1      35.839 -17.971 -22.194  0.00  0.00    +0.000 C 
ENDROOT
BRANCH   3  11
ATOM     11  S   UNL     1      33.679 -22.985 -18.194  0.00  0.00    +0.042 S 
ATOM     12  O   UNL     1      33.709 -24.342 -19.105  0.00  0.00    -0.065 OA
ATOM     13  O   UNL     1      34.466 -23.259 -17.000  0.00  0.00    -0.065 OA
ATOM     14  O   UNL     1      32.298 -22.544 -18.087  0.00  0.00    -0.065 OA
ENDBRANCH   3  11
TORSDOF 1
ENDMDL
MODEL 2
REMARK VINA RESULT:      -8.7      0.728      1.969
REMARK  Name = 8420
REMARK  1 active torsions:
REMARK  status: ('A' for Active; 'I' for Inactive)
REMARK    1  A    between atoms: C_3  and  S_11
REMARK                            x       y       z     vdW  Elec       q    Type
REMARK                         _______ _______ _______ _____ _____    ______ ____
ROOT
ATOM      1  C   UNL     1      35.383 -19.963 -20.674  0.00  0.00    +0.001 C 
ATOM      2  C   UNL     1      34.251 -19.297 -21.202  0.00  0.00    +0.000 C 
ATOM      3  C   UNL     1      33.914 -21.462 -19.444  0.00  0.00    +0.112 C 
ATOM      4  C   UNL     1      35.198 -21.044 -19.796  0.00  0.00    +0.019 C 
ATOM      5  C   UNL     1      32.967 -19.732 -20.836  0.00  0.00    +0.001 C 
ATOM      6  C   UNL     1      32.800 -20.808 -19.963  0.00  0.00    +0.019 C 
ATOM      7  C   UNL     1      36.668 -19.529 -21.040  0.00  0.00    +0.000 C 
ATOM      8  C   UNL     1      34.438 -18.217 -22.080  0.00  0.00    +0.000 C 
ATOM      9  C   UNL     1      36.834 -18.454 -21.913  0.00  0.00    +0.000 C 
ATOM     10  C   UNL     1      35.720 -17.799 -22.432  0.00  0.00    +0.000 C 
ENDROOT
BRANCH   3  11
ATOM     11  S   UNL     1      33.704 -22.804 -18.347  0.00  0.00    +0.042 S 
ATOM     12  O   UNL     1      33.848 -24.143 -19.274  0.00  0.00    -0.065 OA
ATOM     13  O   UNL     1      34.826 -22.808 -17.420  0.00  0.00    -0.065 OA
ATOM     14  O   UNL     1      32.337 -22.741 -17.856  0.00  0.00    -0.065 OA
ENDBRANCH   3  11
TORSDOF 1
ENDMDL
MODEL 3
REMARK VINA RESULT:      -8.2      4.577      5.539
REMARK  Name = 8420
REMARK  1 active torsions:
REMARK  status: ('A' for Active; 'I' for Inactive)
REMARK    1  A    between atoms: C_3  and  S_11
REMARK                            x       y       z     vdW  Elec       q    Type
REMARK                         _______ _______ _______ _____ _____    ______ ____
ROOT
ATOM      1  C   UNL     1      34.238 -19.939 -20.724  0.00  0.00    +0.001 C 
ATOM      2  C   UNL     1      35.588 -20.217 -20.400  0.00  0.00    +0.000 C 
ATOM      3  C   UNL     1      34.968 -18.102 -22.142  0.00  0.00    +0.112 C 
ATOM      4  C   UNL     1      33.945 -18.879 -21.597  0.00  0.00    +0.019 C 
ATOM      5  C   UNL     1      36.604 -19.425 -20.958  0.00  0.00    +0.001 C 
ATOM      6  C   UNL     1      36.296 -18.374 -21.823  0.00  0.00    +0.019 C 
ATOM      7  C   UNL     1      33.221 -20.732 -20.167  0.00  0.00    +0.000 C 
ATOM      8  C   UNL     1      35.880 -21.278 -19.528  0.00  0.00    +0.000 C 
ATOM      9  C   UNL     1      33.530 -21.781 -19.302  0.00  0.00    +0.000 C 
ATOM     10  C   UNL     1      34.858 -22.054 -18.983  0.00  0.00    +0.000 C 
ENDROOT
BRANCH   3  11
ATOM     11  S   UNL     1      34.583 -16.784 -23.220  0.00  0.00    +0.042 S 
ATOM     12  O   UNL     1      33.354 -15.984 -22.498  0.00  0.00    -0.065 OA
ATOM     13  O   UNL     1      35.721 -15.876 -23.247  0.00  0.00    -0.065 OA
ATOM     14  O   UNL     1      34.077 -17.375 -24.449  0.00  0.00    -0.065 OA
ENDBRANCH   3  11
TORSDOF 1
ENDMDL
MODEL 4
REMARK VINA RESULT:      -7.9      6.262      7.297
REMARK  Name = 8420
REMARK  1 active torsions:
REMARK  status: ('A' for Active; 'I' for Inactive)
REMARK    1  A    between atoms: C_3  and  S_11
REMARK                            x       y       z     vdW  Elec       q    Type
REMARK                         _______ _______ _______ _____ _____    ______ ____
ROOT
ATOM      1  C   UNL     1      33.592 -23.802 -14.457  0.00  0.00    +0.001 C 
ATOM      2  C   UNL     1      34.411 -23.576 -15.589  0.00  0.00    +0.000 C 
ATOM      3  C   UNL     1      35.574 -24.299 -13.135  0.00  0.00    +0.112 C 
ATOM      4  C   UNL     1      34.189 -24.163 -13.237  0.00  0.00    +0.019 C 
ATOM      5  C   UNL     1      35.803 -23.717 -15.467  0.00  0.00    +0.001 C 
ATOM      6  C   UNL     1      36.380 -24.076 -14.248  0.00  0.00    +0.019 C 
ATOM      7  C   UNL     1      32.199 -23.661 -14.577  0.00  0.00    +0.000 C 
ATOM      8  C   UNL     1      33.814 -23.215 -16.807  0.00  0.00    +0.000 C 
ATOM      9  C   UNL     1      31.624 -23.302 -15.796  0.00  0.00    +0.000 C 
ATOM     10  C   UNL     1      32.430 -23.079 -16.909  0.00  0.00    +0.000 C 
ENDROOT
BRANCH   3  11
ATOM     11  S   UNL     1      36.296 -24.753 -11.612  0.00  0.00    +0.042 S 
ATOM     12  O   UNL     1      37.020 -26.192 -11.893  0.00  0.00    -0.065 OA
ATOM     13  O   UNL     1      37.353 -23.798 -11.312  0.00  0.00    -0.065 OA
ATOM     14  O   UNL     1      35.206 -24.972 -10.675  0.00  0.00    -0.065 OA
ENDBRANCH   3  11
TORSDOF 1
ENDMDL
MODEL 5
REMARK VINA RESULT:      -7.8      5.613      7.097
REMARK  Name = 8420
REMARK  1 active torsions:
REMARK  status: ('A' for Active; 'I' for Inactive)
REMARK    1  A    between atoms: C_3  and  S_11
REMARK                            x       y       z     vdW  Elec       q    Type
REMARK                         _______ _______ _______ _____ _____    ______ ____
ROOT
ATOM      1  C   UNL     1      32.029 -23.203 -16.326  0.00  0.00    +0.001 C 
ATOM      2  C   UNL     1      32.186 -23.417 -14.936  0.00  0.00    +0.000 C 
ATOM      3  C   UNL     1      29.614 -23.164 -16.036  0.00  0.00    +0.112 C 
ATOM      4  C   UNL     1      30.736 -23.079 -16.861  0.00  0.00    +0.019 C 
ATOM      5  C   UNL     1      31.045 -23.500 -14.121  0.00  0.00    +0.001 C 
ATOM      6  C   UNL     1      29.768 -23.375 -14.668  0.00  0.00    +0.019 C 
ATOM      7  C   UNL     1      33.171 -23.119 -17.142  0.00  0.00    +0.000 C 
ATOM      8  C   UNL     1      33.479 -23.540 -14.402  0.00  0.00    +0.000 C 
ATOM      9  C   UNL     1      34.447 -23.245 -16.594  0.00  0.00    +0.000 C 
ATOM     10  C   UNL     1      34.601 -23.455 -15.226  0.00  0.00    +0.000 C 
ENDROOT
BRANCH   3  11
ATOM     11  S   UNL     1      28.015 -23.013 -16.720  0.00  0.00    +0.042 S 
ATOM     12  O   UNL     1      27.002 -22.961 -15.437  0.00  0.00    -0.065 OA
ATOM     13  O   UNL     1      27.928 -21.718 -17.380  0.00  0.00    -0.065 OA
ATOM     14  O   UNL     1      27.750 -24.239 -17.455  0.00  0.00    -0.065 OA
ENDBRANCH   3  11
TORSDOF 1
ENDMDL
MODEL 6
REMARK VINA RESULT:      -7.8      4.031      5.468
REMARK  Name = 8420
REMARK  1 active torsions:
REMARK  status: ('A' for Active; 'I' for Inactive)
REMARK    1  A    between atoms: C_3  and  S_11
REMARK                            x       y       z     vdW  Elec       q    Type
REMARK                         _______ _______ _______ _____ _____    ______ ____
ROOT
ATOM      1  C   UNL     1      35.061 -21.039 -19.619  0.00  0.00    +0.001 C 
ATOM      2  C   UNL     1      33.665 -21.264 -19.549  0.00  0.00    +0.000 C 
ATOM      3  C   UNL     1      34.704 -19.463 -21.438  0.00  0.00    +0.112 C 
ATOM      4  C   UNL     1      35.564 -20.136 -20.569  0.00  0.00    +0.019 C 
ATOM      5  C   UNL     1      32.814 -20.577 -20.431  0.00  0.00    +0.001 C 
ATOM      6  C   UNL     1      33.331 -19.683 -21.368  0.00  0.00    +0.019 C 
ATOM      7  C   UNL     1      35.912 -21.725 -18.737  0.00  0.00    +0.000 C 
ATOM      8  C   UNL     1      33.162 -22.167 -18.598  0.00  0.00    +0.000 C 
ATOM      9  C   UNL     1      35.395 -22.619 -17.800  0.00  0.00    +0.000 C 
ATOM     10  C   UNL     1      34.022 -22.840 -17.730  0.00  0.00    +0.000 C 
ENDROOT
BRANCH   3  11
ATOM     11  S   UNL     1      35.350 -18.347 -22.615  0.00  0.00    +0.042 S 
ATOM     12  O   UNL     1      35.039 -19.029 -24.068  0.00  0.00    -0.065 OA
ATOM     13  O   UNL     1      34.571 -17.120 -22.548  0.00  0.00    -0.065 OA
ATOM     14  O   UNL     1      36.792 -18.322 -22.428  0.00  0.00    -0.065 OA
ENDBRANCH   3  11
TORSDOF 1
ENDMDL
MODEL 7
REMARK VINA RESULT:      -7.7      5.492      6.942
REMARK  Name = 8420
REMARK  1 active torsions:
REMARK  status: ('A' for Active; 'I' for Inactive)
REMARK    1  A    between atoms: C_3  and  S_11
REMARK                            x       y       z     vdW  Elec       q    Type
REMARK                         _______ _______ _______ _____ _____    ______ ____
ROOT
ATOM      1  C   UNL     1      36.158 -22.931 -15.226  0.00  0.00    +0.001 C 
ATOM      2  C   UNL     1      34.831 -23.292 -15.560  0.00  0.00    +0.000 C 
ATOM      3  C   UNL     1      35.839 -23.859 -13.000  0.00  0.00    +0.112 C 
ATOM      4  C   UNL     1      36.647 -23.221 -13.942  0.00  0.00    +0.019 C 
ATOM      5  C   UNL     1      34.032 -23.933 -14.599  0.00  0.00    +0.001 C 
ATOM      6  C   UNL     1      34.534 -24.215 -13.328  0.00  0.00    +0.019 C 
ATOM      7  C   UNL     1      36.958 -22.290 -16.187  0.00  0.00    +0.000 C 
ATOM      8  C   UNL     1      34.343 -23.002 -16.844  0.00  0.00    +0.000 C 
ATOM      9  C   UNL     1      36.456 -22.009 -17.458  0.00  0.00    +0.000 C 
ATOM     10  C   UNL     1      35.150 -22.365 -17.786  0.00  0.00    +0.000 C 
ENDROOT
BRANCH   3  11
ATOM     11  S   UNL     1      36.464 -24.206 -11.407  0.00  0.00    +0.042 S 
ATOM     12  O   UNL     1      37.655 -25.302 -11.643  0.00  0.00    -0.065 OA
ATOM     13  O   UNL     1      37.095 -22.998 -10.897  0.00  0.00    -0.065 OA
ATOM     14  O   UNL     1      35.395 -24.855 -10.664  0.00  0.00    -0.065 OA
ENDBRANCH   3  11
TORSDOF 1
ENDMDL
MODEL 8
REMARK VINA RESULT:      -7.7      4.767      6.277
REMARK  Name = 8420
REMARK  1 active torsions:
REMARK  status: ('A' for Active; 'I' for Inactive)
REMARK    1  A    between atoms: C_3  and  S_11
REMARK                            x       y       z     vdW  Elec       q    Type
REMARK                         _______ _______ _______ _____ _____    ______ ____
ROOT
ATOM      1  C   UNL     1      34.033 -15.106 -23.927  0.00  0.00    +0.001 C 
ATOM      2  C   UNL     1      33.899 -15.837 -25.132  0.00  0.00    +0.000 C 
ATOM      3  C   UNL     1      34.835 -17.114 -22.811  0.00  0.00    +0.112 C 
ATOM      4  C   UNL     1      34.501 -15.759 -22.775  0.00  0.00    +0.019 C 
ATOM      5  C   UNL     1      34.240 -17.199 -25.149  0.00  0.00    +0.001 C 
ATOM      6  C   UNL     1      34.704 -17.833 -23.996  0.00  0.00    +0.019 C 
ATOM      7  C   UNL     1      33.693 -13.743 -23.910  0.00  0.00    +0.000 C 
ATOM      8  C   UNL     1      33.432 -15.183 -26.283  0.00  0.00    +0.000 C 
ATOM      9  C   UNL     1      33.229 -13.111 -25.063  0.00  0.00    +0.000 C 
ATOM     10  C   UNL     1      33.099 -13.829 -26.248  0.00  0.00    +0.000 C 
ENDROOT
BRANCH   3  11
ATOM     11  S   UNL     1      35.410 -17.909 -21.367  0.00  0.00    +0.042 S 
ATOM     12  O   UNL     1      34.277 -19.034 -21.016  0.00  0.00    -0.065 OA
ATOM     13  O   UNL     1      36.630 -18.628 -21.705  0.00  0.00    -0.065 OA
ATOM     14  O   UNL     1      35.404 -16.916 -20.305  0.00  0.00    -0.065 OA
ENDBRANCH   3  11
TORSDOF 1
ENDMDL
MODEL 9
REMARK VINA RESULT:      -7.6      3.762      5.221
REMARK  Name = 8420
REMARK  1 active torsions:
REMARK  status: ('A' for Active; 'I' for Inactive)
REMARK    1  A    between atoms: C_3  and  S_11
REMARK                            x       y       z     vdW  Elec       q    Type
REMARK                         _______ _______ _______ _____ _____    ______ ____
ROOT
ATOM      1  C   UNL     1      35.038 -22.726 -16.587  0.00  0.00    +0.001 C 
ATOM      2  C   UNL     1      34.145 -22.619 -17.681  0.00  0.00    +0.000 C 
ATOM      3  C   UNL     1      33.246 -23.657 -15.230  0.00  0.00    +0.112 C 
ATOM      4  C   UNL     1      34.573 -23.247 -15.369  0.00  0.00    +0.019 C 
ATOM      5  C   UNL     1      32.814 -23.037 -17.523  0.00  0.00    +0.001 C 
ATOM      6  C   UNL     1      32.368 -23.553 -16.305  0.00  0.00    +0.019 C 
ATOM      7  C   UNL     1      36.370 -22.309 -16.745  0.00  0.00    +0.000 C 
ATOM      8  C   UNL     1      34.611 -22.099 -18.899  0.00  0.00    +0.000 C 
ATOM      9  C   UNL     1      36.815 -21.794 -17.962  0.00  0.00    +0.000 C 
ATOM     10  C   UNL     1      35.937 -21.689 -19.038  0.00  0.00    +0.000 C 
ENDROOT
BRANCH   3  11
ATOM     11  S   UNL     1      32.686 -24.297 -13.705  0.00  0.00    +0.042 S 
ATOM     12  O   UNL     1      31.724 -23.133 -13.079  0.00  0.00    -0.065 OA
ATOM     13  O   UNL     1      31.835 -25.445 -13.984  0.00  0.00    -0.065 OA
ATOM     14  O   UNL     1      33.852 -24.429 -12.847  0.00  0.00    -0.065 OA
ENDBRANCH   3  11
TORSDOF 1
ENDMDL
