MODEL 1
REMARK VINA RESULT:     -10.2      0.000      0.000
REMARK  Name = 9865587
REMARK  5 active torsions:
REMARK  status: ('A' for Active; 'I' for Inactive)
REMARK    1  A    between atoms: C_3  and  C_9
REMARK    2  A    between atoms: C_4  and  C_27
REMARK    3  A    between atoms: C_5  and  C_19
REMARK    4  A    between atoms: C_14  and  C_15
REMARK    5  A    between atoms: C_15  and  O_16
REMARK                            x       y       z     vdW  Elec       q    Type
REMARK                         _______ _______ _______ _____ _____    ______ ____
ROOT
ATOM      1  N   UNL     1      32.660 -13.864 -20.556  0.00  0.00    -0.280 N 
ATOM      2  N   UNL     1      33.057 -15.054 -20.073  0.00  0.00    -0.173 NA
ATOM      3  C   UNL     1      32.766 -13.765 -21.907  0.00  0.00    +0.054 A 
ATOM      4  C   UNL     1      33.265 -14.959 -22.347  0.00  0.00    +0.050 A 
ATOM      5  C   UNL     1      33.425 -15.719 -21.172  0.00  0.00    +0.103 A 
ATOM      6  H   UNL     1      32.323 -13.135 -19.986  0.00  0.00    +0.189 HD
ENDROOT
BRANCH   3   9
ATOM      7  O   UNL     1      33.771  -7.796 -23.330  0.00  0.00    -0.272 OA
ATOM      8  N   UNL     1      32.368  -9.627 -23.059  0.00  0.00    -0.277 N 
ATOM      9  C   UNL     1      32.365 -12.493 -22.638  0.00  0.00    +0.043 C 
ATOM     10  C   UNL     1      33.580 -11.764 -23.242  0.00  0.00    +0.027 C 
ATOM     11  C   UNL     1      31.553 -11.542 -21.738  0.00  0.00    +0.027 C 
ATOM     12  C   UNL     1      33.151 -10.482 -23.953  0.00  0.00    +0.094 C 
ATOM     13  C   UNL     1      31.175 -10.265 -22.489  0.00  0.00    +0.094 C 
ATOM     14  C   UNL     1      32.772  -8.314 -22.825  0.00  0.00    +0.256 C 
BRANCH  14  15
ATOM     15  C   UNL     1      31.914  -7.499 -21.889  0.00  0.00    +0.223 C 
BRANCH  15  16
ATOM     16  O   UNL     1      32.536  -7.546 -20.629  0.00  0.00    -0.374 OA
ATOM     17  H   UNL     1      32.878  -6.667 -20.404  0.00  0.00    +0.211 HD
ENDBRANCH  15  16
ENDBRANCH  14  15
ENDBRANCH   3   9
BRANCH   5  19
ATOM     18 CL   UNL     1      35.483 -21.280 -20.726  0.00  0.00    -0.082 Cl
ATOM     19  C   UNL     1      33.923 -17.067 -21.066  0.00  0.00    +0.019 C 
ATOM     20  C   UNL     1      33.030 -18.131 -20.986  0.00  0.00    +0.002 C 
ATOM     21  C   UNL     1      35.296 -17.298 -21.042  0.00  0.00    +0.002 C 
ATOM     22  C   UNL     1      33.513 -19.436 -20.880  0.00  0.00    +0.011 C 
ATOM     23  C   UNL     1      35.779 -18.602 -20.937  0.00  0.00    +0.011 C 
ATOM     24  C   UNL     1      34.887 -19.671 -20.856  0.00  0.00    +0.058 C 
ENDBRANCH   5  19
BRANCH   4  27
ATOM     25  N   UNL     1      32.798 -14.590 -24.629  0.00  0.00    -0.224 NA
ATOM     26  N   UNL     1      33.963 -15.786 -26.366  0.00  0.00    -0.222 NA
ATOM     27  C   UNL     1      33.530 -15.268 -23.721  0.00  0.00    +0.087 C 
ATOM     28  C   UNL     1      34.485 -16.208 -24.055  0.00  0.00    +0.040 C 
ATOM     29  C   UNL     1      34.660 -16.427 -25.406  0.00  0.00    +0.102 C 
ATOM     30  C   UNL     1      33.061 -14.894 -25.914  0.00  0.00    +0.199 C 
ENDBRANCH   4  27
TORSDOF 5
ENDMDL
MODEL 2
REMARK VINA RESULT:      -9.9      4.767      8.208
REMARK  Name = 9865587
REMARK  5 active torsions:
REMARK  status: ('A' for Active; 'I' for Inactive)
REMARK    1  A    between atoms: C_3  and  C_9
REMARK    2  A    between atoms: C_4  and  C_27
REMARK    3  A    between atoms: C_5  and  C_19
REMARK    4  A    between atoms: C_14  and  C_15
REMARK    5  A    between atoms: C_15  and  O_16
REMARK                            x       y       z     vdW  Elec       q    Type
REMARK                         _______ _______ _______ _____ _____    ______ ____
ROOT
ATOM      1  N   UNL     1      32.456 -13.260 -22.031  0.00  0.00    -0.280 N 
ATOM      2  N   UNL     1      31.842 -12.116 -21.684  0.00  0.00    -0.173 NA
ATOM      3  C   UNL     1      33.354 -13.108 -23.040  0.00  0.00    +0.054 A 
ATOM      4  C   UNL     1      33.333 -11.785 -23.383  0.00  0.00    +0.050 A 
ATOM      5  C   UNL     1      32.382 -11.218 -22.514  0.00  0.00    +0.103 A 
ATOM      6  H   UNL     1      32.274 -14.125 -21.596  0.00  0.00    +0.189 HD
ENDROOT
BRANCH   3   9
ATOM      7  O   UNL     1      33.631 -19.007 -24.986  0.00  0.00    -0.272 OA
ATOM      8  N   UNL     1      34.600 -17.109 -24.062  0.00  0.00    -0.277 N 
ATOM      9  C   UNL     1      34.150 -14.290 -23.572  0.00  0.00    +0.043 C 
ATOM     10  C   UNL     1      33.388 -15.053 -24.671  0.00  0.00    +0.027 C 
ATOM     11  C   UNL     1      34.581 -15.248 -22.445  0.00  0.00    +0.027 C 
ATOM     12  C   UNL     1      34.201 -16.245 -25.174  0.00  0.00    +0.094 C 
ATOM     13  C   UNL     1      35.365 -16.436 -23.005  0.00  0.00    +0.094 C 
ATOM     14  C   UNL     1      34.262 -18.462 -24.077  0.00  0.00    +0.256 C 
BRANCH  14  15
ATOM     15  C   UNL     1      34.706 -19.283 -22.893  0.00  0.00    +0.223 C 
BRANCH  15  16
ATOM     16  O   UNL     1      33.633 -19.294 -21.985  0.00  0.00    -0.374 OA
ATOM     17  H   UNL     1      33.944 -19.001 -21.114  0.00  0.00    +0.211 HD
ENDBRANCH  15  16
ENDBRANCH  14  15
ENDBRANCH   3   9
BRANCH   5  19
ATOM     18 CL   UNL     1      30.689  -5.525 -22.256  0.00  0.00    -0.082 Cl
ATOM     19  C   UNL     1      31.970  -9.840 -22.451  0.00  0.00    +0.019 C 
ATOM     20  C   UNL     1      31.289  -9.270 -23.524  0.00  0.00    +0.002 C 
ATOM     21  C   UNL     1      32.256  -9.082 -21.319  0.00  0.00    +0.002 C 
ATOM     22  C   UNL     1      30.893  -7.934 -23.464  0.00  0.00    +0.011 C 
ATOM     23  C   UNL     1      31.860  -7.746 -21.258  0.00  0.00    +0.011 C 
ATOM     24  C   UNL     1      31.178  -7.172 -22.331  0.00  0.00    +0.058 C 
ENDBRANCH   5  19
BRANCH   4  27
ATOM     25  N   UNL     1      34.856 -10.116 -24.060  0.00  0.00    -0.224 NA
ATOM     26  N   UNL     1      35.711 -10.025 -26.311  0.00  0.00    -0.222 NA
ATOM     27  C   UNL     1      34.140 -11.205 -24.415  0.00  0.00    +0.087 C 
ATOM     28  C   UNL     1      34.160 -11.753 -25.682  0.00  0.00    +0.040 C 
ATOM     29  C   UNL     1      34.971 -11.115 -26.597  0.00  0.00    +0.102 C 
ATOM     30  C   UNL     1      35.607  -9.584 -25.043  0.00  0.00    +0.199 C 
ENDBRANCH   4  27
TORSDOF 5
ENDMDL
MODEL 3
REMARK VINA RESULT:      -9.8      4.806      8.110
REMARK  Name = 9865587
REMARK  5 active torsions:
REMARK  status: ('A' for Active; 'I' for Inactive)
REMARK    1  A    between atoms: C_3  and  C_9
REMARK    2  A    between atoms: C_4  and  C_27
REMARK    3  A    between atoms: C_5  and  C_19
REMARK    4  A    between atoms: C_14  and  C_15
REMARK    5  A    between atoms: C_15  and  O_16
REMARK                            x       y       z     vdW  Elec       q    Type
REMARK                         _______ _______ _______ _____ _____    ______ ____
ROOT
ATOM      1  N   UNL     1      33.360 -15.463 -20.305  0.00  0.00    -0.280 N 
ATOM      2  N   UNL     1      32.986 -14.173 -20.340  0.00  0.00    -0.173 NA
ATOM      3  C   UNL     1      33.572 -16.000 -21.536  0.00  0.00    +0.054 A 
ATOM      4  C   UNL     1      33.320 -15.007 -22.441  0.00  0.00    +0.050 A 
ATOM      5  C   UNL     1      32.963 -13.900 -21.648  0.00  0.00    +0.103 A 
ATOM      6  H   UNL     1      33.473 -15.971 -19.469  0.00  0.00    +0.189 HD
ENDROOT
BRANCH   3   9
ATOM      7  O   UNL     1      34.397 -21.698 -19.189  0.00  0.00    -0.272 OA
ATOM      8  N   UNL     1      34.899 -20.021 -20.715  0.00  0.00    -0.277 N 
ATOM      9  C   UNL     1      34.002 -17.449 -21.701  0.00  0.00    +0.043 C 
ATOM     10  C   UNL     1      33.045 -18.422 -20.987  0.00  0.00    +0.027 C 
ATOM     11  C   UNL     1      35.453 -17.676 -21.237  0.00  0.00    +0.027 C 
ATOM     12  C   UNL     1      33.510 -19.868 -21.152  0.00  0.00    +0.094 C 
ATOM     13  C   UNL     1      35.857 -19.142 -21.397  0.00  0.00    +0.094 C 
ATOM     14  C   UNL     1      35.220 -20.960 -19.736  0.00  0.00    +0.256 C 
BRANCH  14  15
ATOM     15  C   UNL     1      36.672 -21.054 -19.338  0.00  0.00    +0.223 C 
BRANCH  15  16
ATOM     16  O   UNL     1      36.711 -20.972 -17.935  0.00  0.00    -0.374 OA
ATOM     17  H   UNL     1      37.523 -21.391 -17.609  0.00  0.00    +0.211 HD
ENDBRANCH  15  16
ENDBRANCH  14  15
ENDBRANCH   3   9
BRANCH   5  19
ATOM     18 CL   UNL     1      31.457  -8.460 -23.518  0.00  0.00    -0.082 Cl
ATOM     19  C   UNL     1      32.597 -12.583 -22.103  0.00  0.00    +0.019 C 
ATOM     20  C   UNL     1      33.400 -11.922 -23.030  0.00  0.00    +0.002 C 
ATOM     21  C   UNL     1      31.445 -11.975 -21.611  0.00  0.00    +0.002 C 
ATOM     22  C   UNL     1      33.047 -10.645 -23.468  0.00  0.00    +0.011 C 
ATOM     23  C   UNL     1      31.092 -10.699 -22.050  0.00  0.00    +0.011 C 
ATOM     24  C   UNL     1      31.893 -10.034 -22.978  0.00  0.00    +0.058 C 
ENDBRANCH   5  19
BRANCH   4  27
ATOM     25  N   UNL     1      32.659 -14.335 -24.603  0.00  0.00    -0.224 NA
ATOM     26  N   UNL     1      33.557 -15.379 -26.580  0.00  0.00    -0.222 NA
ATOM     27  C   UNL     1      33.426 -15.162 -23.862  0.00  0.00    +0.087 C 
ATOM     28  C   UNL     1      34.272 -16.110 -24.402  0.00  0.00    +0.040 C 
ATOM     29  C   UNL     1      34.296 -16.173 -25.780  0.00  0.00    +0.102 C 
ATOM     30  C   UNL     1      32.771 -14.495 -25.935  0.00  0.00    +0.199 C 
ENDBRANCH   4  27
TORSDOF 5
ENDMDL
MODEL 4
REMARK VINA RESULT:      -9.7     10.639     12.769
REMARK  Name = 9865587
REMARK  5 active torsions:
REMARK  status: ('A' for Active; 'I' for Inactive)
REMARK    1  A    between atoms: C_3  and  C_9
REMARK    2  A    between atoms: C_4  and  C_27
REMARK    3  A    between atoms: C_5  and  C_19
REMARK    4  A    between atoms: C_14  and  C_15
REMARK    5  A    between atoms: C_15  and  O_16
REMARK                            x       y       z     vdW  Elec       q    Type
REMARK                         _______ _______ _______ _____ _____    ______ ____
ROOT
ATOM      1  N   UNL     1      33.309 -24.407 -13.482  0.00  0.00    -0.280 N 
ATOM      2  N   UNL     1      34.462 -25.006 -13.138  0.00  0.00    -0.173 NA
ATOM      3  C   UNL     1      33.416 -23.617 -14.583  0.00  0.00    +0.054 A 
ATOM      4  C   UNL     1      34.718 -23.695 -14.992  0.00  0.00    +0.050 A 
ATOM      5  C   UNL     1      35.319 -24.567 -14.064  0.00  0.00    +0.103 A 
ATOM      6  H   UNL     1      32.467 -24.530 -12.986  0.00  0.00    +0.189 HD
ENDROOT
BRANCH   3   9
ATOM      7  O   UNL     1      27.268 -22.979 -15.261  0.00  0.00    -0.272 OA
ATOM      8  N   UNL     1      29.453 -22.616 -15.961  0.00  0.00    -0.277 N 
ATOM      9  C   UNL     1      32.217 -22.856 -15.127  0.00  0.00    +0.043 C 
ATOM     10  C   UNL     1      31.066 -22.783 -14.106  0.00  0.00    +0.027 C 
ATOM     11  C   UNL     1      31.721 -23.440 -16.463  0.00  0.00    +0.027 C 
ATOM     12  C   UNL     1      29.869 -22.031 -14.684  0.00  0.00    +0.094 C 
ATOM     13  C   UNL     1      30.506 -22.671 -16.982  0.00  0.00    +0.094 C 
ATOM     14  C   UNL     1      28.140 -23.050 -16.131  0.00  0.00    +0.256 C 
BRANCH  14  15
ATOM     15  C   UNL     1      27.792 -23.643 -17.474  0.00  0.00    +0.223 C 
BRANCH  15  16
ATOM     16  O   UNL     1      27.000 -22.693 -18.141  0.00  0.00    -0.374 OA
ATOM     17  H   UNL     1      26.062 -22.881 -17.978  0.00  0.00    +0.211 HD
ENDBRANCH  15  16
ENDBRANCH  14  15
ENDBRANCH   3   9
BRANCH   5  19
ATOM     18 CL   UNL     1      40.997 -26.328 -13.945  0.00  0.00    -0.082 Cl
ATOM     19  C   UNL     1      36.695 -24.994 -14.033  0.00  0.00    +0.019 C 
ATOM     20  C   UNL     1      37.576 -24.429 -13.116  0.00  0.00    +0.002 C 
ATOM     21  C   UNL     1      37.136 -25.970 -14.923  0.00  0.00    +0.002 C 
ATOM     22  C   UNL     1      38.909 -24.841 -13.089  0.00  0.00    +0.011 C 
ATOM     23  C   UNL     1      38.468 -26.383 -14.896  0.00  0.00    +0.011 C 
ATOM     24  C   UNL     1      39.354 -25.818 -13.978  0.00  0.00    +0.058 C 
ENDBRANCH   5  19
BRANCH   4  27
ATOM     25  N   UNL     1      34.540 -23.108 -17.269  0.00  0.00    -0.224 NA
ATOM     26  N   UNL     1      36.187 -21.717 -18.347  0.00  0.00    -0.222 NA
ATOM     27  C   UNL     1      35.252 -23.002 -16.127  0.00  0.00    +0.087 C 
ATOM     28  C   UNL     1      36.424 -22.281 -16.020  0.00  0.00    +0.040 C 
ATOM     29  C   UNL     1      36.847 -21.653 -17.173  0.00  0.00    +0.102 C 
ATOM     30  C   UNL     1      35.057 -22.450 -18.324  0.00  0.00    +0.199 C 
ENDBRANCH   4  27
TORSDOF 5
ENDMDL
MODEL 5
REMARK VINA RESULT:      -9.0      4.643      8.005
REMARK  Name = 9865587
REMARK  5 active torsions:
REMARK  status: ('A' for Active; 'I' for Inactive)
REMARK    1  A    between atoms: C_3  and  C_9
REMARK    2  A    between atoms: C_4  and  C_27
REMARK    3  A    between atoms: C_5  and  C_19
REMARK    4  A    between atoms: C_14  and  C_15
REMARK    5  A    between atoms: C_15  and  O_16
REMARK                            x       y       z     vdW  Elec       q    Type
REMARK                         _______ _______ _______ _____ _____    ______ ____
ROOT
ATOM      1  N   UNL     1      32.140 -13.433 -20.507  0.00  0.00    -0.280 N 
ATOM      2  N   UNL     1      31.845 -12.132 -20.339  0.00  0.00    -0.173 NA
ATOM      3  C   UNL     1      32.621 -13.724 -21.744  0.00  0.00    +0.054 A 
ATOM      4  C   UNL     1      32.645 -12.547 -22.438  0.00  0.00    +0.050 A 
ATOM      5  C   UNL     1      32.156 -11.596 -21.522  0.00  0.00    +0.103 A 
ATOM      6  H   UNL     1      32.021 -14.109 -19.801  0.00  0.00    +0.189 HD
ENDROOT
BRANCH   3   9
ATOM      7  O   UNL     1      35.388 -19.122 -20.381  0.00  0.00    -0.272 OA
ATOM      8  N   UNL     1      34.616 -17.545 -21.901  0.00  0.00    -0.277 N 
ATOM      9  C   UNL     1      33.011 -15.144 -22.125  0.00  0.00    +0.043 C 
ATOM     10  C   UNL     1      32.842 -16.125 -20.950  0.00  0.00    +0.027 C 
ATOM     11  C   UNL     1      34.442 -15.216 -22.690  0.00  0.00    +0.027 C 
ATOM     12  C   UNL     1      33.258 -17.538 -21.353  0.00  0.00    +0.094 C 
ATOM     13  C   UNL     1      34.818 -16.654 -23.050  0.00  0.00    +0.094 C 
ATOM     14  C   UNL     1      35.588 -18.370 -21.338  0.00  0.00    +0.256 C 
BRANCH  14  15
ATOM     15  C   UNL     1      36.962 -18.317 -21.958  0.00  0.00    +0.223 C 
BRANCH  15  16
ATOM     16  O   UNL     1      37.791 -19.133 -21.169  0.00  0.00    -0.374 OA
ATOM     17  H   UNL     1      37.651 -20.063 -21.407  0.00  0.00    +0.211 HD
ENDBRANCH  15  16
ENDBRANCH  14  15
ENDBRANCH   3   9
BRANCH   5  19
ATOM     18 CL   UNL     1      31.397  -5.769 -22.434  0.00  0.00    -0.082 Cl
ATOM     19  C   UNL     1      31.974 -10.184 -21.744  0.00  0.00    +0.019 C 
ATOM     20  C   UNL     1      32.378  -9.273 -20.772  0.00  0.00    +0.002 C 
ATOM     21  C   UNL     1      31.392  -9.738 -22.927  0.00  0.00    +0.002 C 
ATOM     22  C   UNL     1      32.199  -7.905 -20.986  0.00  0.00    +0.011 C 
ATOM     23  C   UNL     1      31.214  -8.371 -23.142  0.00  0.00    +0.011 C 
ATOM     24  C   UNL     1      31.617  -7.455 -22.170  0.00  0.00    +0.058 C 
ENDBRANCH   5  19
BRANCH   4  27
ATOM     25  N   UNL     1      32.606 -13.333 -24.662  0.00  0.00    -0.224 NA
ATOM     26  N   UNL     1      33.872 -12.254 -26.405  0.00  0.00    -0.222 NA
ATOM     27  C   UNL     1      33.088 -12.417 -23.795  0.00  0.00    +0.087 C 
ATOM     28  C   UNL     1      33.953 -11.403 -24.156  0.00  0.00    +0.040 C 
ATOM     29  C   UNL     1      34.314 -11.371 -25.487  0.00  0.00    +0.102 C 
ATOM     30  C   UNL     1      33.034 -13.195 -25.931  0.00  0.00    +0.199 C 
ENDBRANCH   4  27
TORSDOF 5
ENDMDL
MODEL 6
REMARK VINA RESULT:      -8.8      4.738      8.835
REMARK  Name = 9865587
REMARK  5 active torsions:
REMARK  status: ('A' for Active; 'I' for Inactive)
REMARK    1  A    between atoms: C_3  and  C_9
REMARK    2  A    between atoms: C_4  and  C_27
REMARK    3  A    between atoms: C_5  and  C_19
REMARK    4  A    between atoms: C_14  and  C_15
REMARK    5  A    between atoms: C_15  and  O_16
REMARK                            x       y       z     vdW  Elec       q    Type
REMARK                         _______ _______ _______ _____ _____    ______ ____
ROOT
ATOM      1  N   UNL     1      33.729 -12.029 -24.569  0.00  0.00    -0.280 N 
ATOM      2  N   UNL     1      33.717 -10.732 -24.922  0.00  0.00    -0.173 NA
ATOM      3  C   UNL     1      33.094 -12.276 -23.393  0.00  0.00    +0.054 A 
ATOM      4  C   UNL     1      32.635 -11.072 -22.939  0.00  0.00    +0.050 A 
ATOM      5  C   UNL     1      33.047 -10.152 -23.922  0.00  0.00    +0.103 A 
ATOM      6  H   UNL     1      34.155 -12.732 -25.111  0.00  0.00    +0.189 HD
ENDROOT
BRANCH   3   9
ATOM      7  O   UNL     1      35.597 -17.010 -20.234  0.00  0.00    -0.272 OA
ATOM      8  N   UNL     1      34.125 -16.155 -21.814  0.00  0.00    -0.277 N 
ATOM      9  C   UNL     1      33.002 -13.685 -22.828  0.00  0.00    +0.043 C 
ATOM     10  C   UNL     1      33.604 -13.781 -21.413  0.00  0.00    +0.027 C 
ATOM     11  C   UNL     1      33.646 -14.725 -23.763  0.00  0.00    +0.027 C 
ATOM     12  C   UNL     1      33.516 -15.209 -20.877  0.00  0.00    +0.094 C 
ATOM     13  C   UNL     1      33.557 -16.130 -23.167  0.00  0.00    +0.094 C 
ATOM     14  C   UNL     1      35.148 -16.998 -21.383  0.00  0.00    +0.256 C 
BRANCH  14  15
ATOM     15  C   UNL     1      35.725 -17.941 -22.409  0.00  0.00    +0.223 C 
BRANCH  15  16
ATOM     16  O   UNL     1      35.111 -19.189 -22.198  0.00  0.00    -0.374 OA
ATOM     17  H   UNL     1      35.775 -19.892 -22.270  0.00  0.00    +0.211 HD
ENDBRANCH  15  16
ENDBRANCH  14  15
ENDBRANCH   3   9
BRANCH   5  19
ATOM     18 CL   UNL     1      32.114  -4.280 -23.987  0.00  0.00    -0.082 Cl
ATOM     19  C   UNL     1      32.821  -8.729 -23.936  0.00  0.00    +0.019 C 
ATOM     20  C   UNL     1      31.522  -8.234 -23.854  0.00  0.00    +0.002 C 
ATOM     21  C   UNL     1      33.901  -7.857 -24.034  0.00  0.00    +0.002 C 
ATOM     22  C   UNL     1      31.303  -6.856 -23.870  0.00  0.00    +0.011 C 
ATOM     23  C   UNL     1      33.683  -6.480 -24.049  0.00  0.00    +0.011 C 
ATOM     24  C   UNL     1      32.383  -5.979 -23.967  0.00  0.00    +0.058 C 
ENDBRANCH   5  19
BRANCH   4  27
ATOM     25  N   UNL     1      32.501 -10.116 -20.786  0.00  0.00    -0.224 NA
ATOM     26  N   UNL     1      30.598 -10.489 -19.356  0.00  0.00    -0.222 NA
ATOM     27  C   UNL     1      31.906 -10.892 -21.717  0.00  0.00    +0.087 C 
ATOM     28  C   UNL     1      30.675 -11.492 -21.542  0.00  0.00    +0.040 C 
ATOM     29  C   UNL     1      30.062 -11.252 -20.329  0.00  0.00    +0.102 C 
ATOM     30  C   UNL     1      31.802  -9.959 -19.646  0.00  0.00    +0.199 C 
ENDBRANCH   4  27
TORSDOF 5
ENDMDL
MODEL 7
REMARK VINA RESULT:      -8.7     11.144     14.238
REMARK  Name = 9865587
REMARK  5 active torsions:
REMARK  status: ('A' for Active; 'I' for Inactive)
REMARK    1  A    between atoms: C_3  and  C_9
REMARK    2  A    between atoms: C_4  and  C_27
REMARK    3  A    between atoms: C_5  and  C_19
REMARK    4  A    between atoms: C_14  and  C_15
REMARK    5  A    between atoms: C_15  and  O_16
REMARK                            x       y       z     vdW  Elec       q    Type
REMARK                         _______ _______ _______ _____ _____    ______ ____
ROOT
ATOM      1  N   UNL     1      34.530 -24.457 -12.839  0.00  0.00    -0.280 N 
ATOM      2  N   UNL     1      33.194 -24.465 -12.976  0.00  0.00    -0.173 NA
ATOM      3  C   UNL     1      35.185 -23.992 -13.936  0.00  0.00    +0.054 A 
ATOM      4  C   UNL     1      34.224 -23.676 -14.855  0.00  0.00    +0.050 A 
ATOM      5  C   UNL     1      33.012 -23.987 -14.210  0.00  0.00    +0.103 A 
ATOM      6  H   UNL     1      34.992 -24.757 -12.022  0.00  0.00    +0.189 HD
ENDROOT
BRANCH   3   9
ATOM      7  O   UNL     1      40.684 -26.202 -15.814  0.00  0.00    -0.272 OA
ATOM      8  N   UNL     1      39.359 -25.005 -14.329  0.00  0.00    -0.277 N 
ATOM      9  C   UNL     1      36.703 -23.906 -13.971  0.00  0.00    +0.043 C 
ATOM     10  C   UNL     1      37.267 -24.222 -15.369  0.00  0.00    +0.027 C 
ATOM     11  C   UNL     1      37.356 -24.806 -12.906  0.00  0.00    +0.027 C 
ATOM     12  C   UNL     1      38.793 -24.148 -15.372  0.00  0.00    +0.094 C 
ATOM     13  C   UNL     1      38.881 -24.716 -12.971  0.00  0.00    +0.094 C 
ATOM     14  C   UNL     1      40.287 -25.989 -14.665  0.00  0.00    +0.256 C 
BRANCH  14  15
ATOM     15  C   UNL     1      40.820 -26.832 -13.534  0.00  0.00    +0.223 C 
BRANCH  15  16
ATOM     16  O   UNL     1      41.951 -27.504 -14.031  0.00  0.00    -0.374 OA
ATOM     17  H   UNL     1      42.626 -26.855 -14.285  0.00  0.00    +0.211 HD
ENDBRANCH  15  16
ENDBRANCH  14  15
ENDBRANCH   3   9
BRANCH   5  19
ATOM     18 CL   UNL     1      27.517 -23.386 -16.399  0.00  0.00    -0.082 Cl
ATOM     19  C   UNL     1      31.680 -23.842 -14.738  0.00  0.00    +0.019 C 
ATOM     20  C   UNL     1      31.004 -24.957 -15.228  0.00  0.00    +0.002 C 
ATOM     21  C   UNL     1      31.076 -22.588 -14.760  0.00  0.00    +0.002 C 
ATOM     22  C   UNL     1      29.715 -24.815 -15.743  0.00  0.00    +0.011 C 
ATOM     23  C   UNL     1      29.787 -22.447 -15.273  0.00  0.00    +0.011 C 
ATOM     24  C   UNL     1      29.106 -23.561 -15.765  0.00  0.00    +0.058 C 
ENDBRANCH   5  19
BRANCH   4  27
ATOM     25  N   UNL     1      35.573 -22.340 -16.256  0.00  0.00    -0.224 NA
ATOM     26  N   UNL     1      35.099 -22.097 -18.606  0.00  0.00    -0.222 NA
ATOM     27  C   UNL     1      34.496 -23.149 -16.161  0.00  0.00    +0.087 C 
ATOM     28  C   UNL     1      33.686 -23.474 -17.230  0.00  0.00    +0.040 C 
ATOM     29  C   UNL     1      34.039 -22.913 -18.439  0.00  0.00    +0.102 C 
ATOM     30  C   UNL     1      35.812 -21.855 -17.489  0.00  0.00    +0.199 C 
ENDBRANCH   4  27
TORSDOF 5
ENDMDL
MODEL 8
REMARK VINA RESULT:      -8.6      4.678      8.181
REMARK  Name = 9865587
REMARK  5 active torsions:
REMARK  status: ('A' for Active; 'I' for Inactive)
REMARK    1  A    between atoms: C_3  and  C_9
REMARK    2  A    between atoms: C_4  and  C_27
REMARK    3  A    between atoms: C_5  and  C_19
REMARK    4  A    between atoms: C_14  and  C_15
REMARK    5  A    between atoms: C_15  and  O_16
REMARK                            x       y       z     vdW  Elec       q    Type
REMARK                         _______ _______ _______ _____ _____    ______ ____
ROOT
ATOM      1  N   UNL     1      31.360 -12.126 -20.910  0.00  0.00    -0.280 N 
ATOM      2  N   UNL     1      31.186 -10.796 -20.837  0.00  0.00    -0.173 NA
ATOM      3  C   UNL     1      32.093 -12.519 -21.985  0.00  0.00    +0.054 A 
ATOM      4  C   UNL     1      32.423 -11.380 -22.666  0.00  0.00    +0.050 A 
ATOM      5  C   UNL     1      31.838 -10.345 -21.913  0.00  0.00    +0.103 A 
ATOM      6  H   UNL     1      30.994 -12.756 -20.248  0.00  0.00    +0.189 HD
ENDROOT
BRANCH   3   9
ATOM      7  O   UNL     1      35.166 -17.731 -20.554  0.00  0.00    -0.272 OA
ATOM      8  N   UNL     1      34.036 -16.369 -22.058  0.00  0.00    -0.277 N 
ATOM      9  C   UNL     1      32.398 -13.987 -22.238  0.00  0.00    +0.043 C 
ATOM     10  C   UNL     1      32.524 -14.786 -20.928  0.00  0.00    +0.027 C 
ATOM     11  C   UNL     1      33.653 -14.173 -23.111  0.00  0.00    +0.027 C 
ATOM     12  C   UNL     1      32.848 -16.252 -21.210  0.00  0.00    +0.094 C 
ATOM     13  C   UNL     1      33.949 -15.656 -23.338  0.00  0.00    +0.094 C 
ATOM     14  C   UNL     1      35.124 -17.128 -21.629  0.00  0.00    +0.256 C 
BRANCH  14  15
ATOM     15  C   UNL     1      36.310 -17.195 -22.558  0.00  0.00    +0.223 C 
BRANCH  15  16
ATOM     16  O   UNL     1      36.136 -18.344 -23.350  0.00  0.00    -0.374 OA
ATOM     17  H   UNL     1      36.390 -18.148 -24.265  0.00  0.00    +0.211 HD
ENDBRANCH  15  16
ENDBRANCH  14  15
ENDBRANCH   3   9
BRANCH   5  19
ATOM     18 CL   UNL     1      32.023  -4.514 -23.062  0.00  0.00    -0.082 Cl
ATOM     19  C   UNL     1      31.881  -8.932 -22.190  0.00  0.00    +0.019 C 
ATOM     20  C   UNL     1      31.229  -8.426 -23.312  0.00  0.00    +0.002 C 
ATOM     21  C   UNL     1      32.576  -8.079 -21.337  0.00  0.00    +0.002 C 
ATOM     22  C   UNL     1      31.273  -7.058 -23.582  0.00  0.00    +0.011 C 
ATOM     23  C   UNL     1      32.620  -6.712 -21.607  0.00  0.00    +0.011 C 
ATOM     24  C   UNL     1      31.968  -6.201 -22.729  0.00  0.00    +0.058 C 
ENDBRANCH   5  19
BRANCH   4  27
ATOM     25  N   UNL     1      34.279 -10.546 -23.860  0.00  0.00    -0.224 NA
ATOM     26  N   UNL     1      34.739 -11.238 -26.122  0.00  0.00    -0.222 NA
ATOM     27  C   UNL     1      33.198 -11.355 -23.872  0.00  0.00    +0.087 C 
ATOM     28  C   UNL     1      32.830 -12.125 -24.957  0.00  0.00    +0.040 C 
ATOM     29  C   UNL     1      33.646 -12.025 -26.065  0.00  0.00    +0.102 C 
ATOM     30  C   UNL     1      34.993 -10.536 -25.001  0.00  0.00    +0.199 C 
ENDBRANCH   4  27
TORSDOF 5
ENDMDL
MODEL 9
REMARK VINA RESULT:      -8.6      1.657      2.309
REMARK  Name = 9865587
REMARK  5 active torsions:
REMARK  status: ('A' for Active; 'I' for Inactive)
REMARK    1  A    between atoms: C_3  and  C_9
REMARK    2  A    between atoms: C_4  and  C_27
REMARK    3  A    between atoms: C_5  and  C_19
REMARK    4  A    between atoms: C_14  and  C_15
REMARK    5  A    between atoms: C_15  and  O_16
REMARK                            x       y       z     vdW  Elec       q    Type
REMARK                         _______ _______ _______ _____ _____    ______ ____
ROOT
ATOM      1  N   UNL     1      32.684 -13.613 -21.362  0.00  0.00    -0.280 N 
ATOM      2  N   UNL     1      33.161 -14.868 -21.410  0.00  0.00    -0.173 NA
ATOM      3  C   UNL     1      32.615 -13.011 -22.579  0.00  0.00    +0.054 A 
ATOM      4  C   UNL     1      33.076 -13.921 -23.488  0.00  0.00    +0.050 A 
ATOM      5  C   UNL     1      33.399 -15.051 -22.712  0.00  0.00    +0.103 A 
ATOM      6  H   UNL     1      32.409 -13.171 -20.525  0.00  0.00    +0.189 HD
ENDROOT
BRANCH   3   9
ATOM      7  O   UNL     1      33.553  -6.869 -22.357  0.00  0.00    -0.272 OA
ATOM      8  N   UNL     1      32.174  -8.734 -22.237  0.00  0.00    -0.277 N 
ATOM      9  C   UNL     1      32.100 -11.588 -22.727  0.00  0.00    +0.043 C 
ATOM     10  C   UNL     1      33.123 -10.672 -23.425  0.00  0.00    +0.027 C 
ATOM     11  C   UNL     1      31.667 -10.988 -21.377  0.00  0.00    +0.027 C 
ATOM     12  C   UNL     1      32.589  -9.246 -23.544  0.00  0.00    +0.094 C 
ATOM     13  C   UNL     1      31.169  -9.552 -21.548  0.00  0.00    +0.094 C 
ATOM     14  C   UNL     1      32.720  -7.547 -21.751  0.00  0.00    +0.256 C 
BRANCH  14  15
ATOM     15  C   UNL     1      32.243  -7.089 -20.395  0.00  0.00    +0.223 C 
BRANCH  15  16
ATOM     16  O   UNL     1      33.322  -7.263 -19.510  0.00  0.00    -0.374 OA
ATOM     17  H   UNL     1      33.154  -8.033 -18.944  0.00  0.00    +0.211 HD
ENDBRANCH  15  16
ENDBRANCH  14  15
ENDBRANCH   3   9
BRANCH   5  19
ATOM     18 CL   UNL     1      35.590 -20.234 -24.633  0.00  0.00    -0.082 Cl
ATOM     19  C   UNL     1      33.932 -16.306 -23.178  0.00  0.00    +0.019 C 
ATOM     20  C   UNL     1      34.174 -16.495 -24.536  0.00  0.00    +0.002 C 
ATOM     21  C   UNL     1      34.199 -17.326 -22.268  0.00  0.00    +0.002 C 
ATOM     22  C   UNL     1      34.687 -17.712 -24.987  0.00  0.00    +0.011 C 
ATOM     23  C   UNL     1      34.713 -18.541 -22.718  0.00  0.00    +0.011 C 
ATOM     24  C   UNL     1      34.957 -18.734 -24.078  0.00  0.00    +0.058 C 
ENDBRANCH   5  19
BRANCH   4  27
ATOM     25  N   UNL     1      32.421 -14.482 -25.684  0.00  0.00    -0.224 NA
ATOM     26  N   UNL     1      33.281 -13.299 -27.599  0.00  0.00    -0.222 NA
ATOM     27  C   UNL     1      33.171 -13.680 -24.898  0.00  0.00    +0.087 C 
ATOM     28  C   UNL     1      33.988 -12.679 -25.384  0.00  0.00    +0.040 C 
ATOM     29  C   UNL     1      34.003 -12.533 -26.756  0.00  0.00    +0.102 C 
ATOM     30  C   UNL     1      32.523 -14.241 -27.004  0.00  0.00    +0.199 C 
ENDBRANCH   4  27
TORSDOF 5
ENDMDL
