MODEL 1
REMARK VINA RESULT:      -9.7      0.000      0.000
REMARK  Name = 638678
REMARK  6 active torsions:
REMARK  status: ('A' for Active; 'I' for Inactive)
REMARK    1  A    between atoms: C_1  and  C_8
REMARK    2  A    between atoms: C_1  and  N_15
REMARK    3  A    between atoms: C_1  and  C_25
REMARK    4  A    between atoms: C_4  and  C_11
REMARK    5  A    between atoms: C_16  and  C_20
REMARK    6  A    between atoms: C_25  and  C_28
REMARK                            x       y       z     vdW  Elec       q    Type
REMARK                         _______ _______ _______ _____ _____    ______ ____
ROOT
ATOM      1  C   UNL     1      34.191 -23.875 -14.930  0.00  0.00    +0.155 C 
ENDROOT
BRANCH   1   8
ATOM      2  O   UNL     1      34.266 -23.577 -12.569  0.00  0.00    -0.273 OA
ATOM      3  N   UNL     1      35.963 -24.824 -13.530  0.00  0.00    -0.272 N 
ATOM      4  C   UNL     1      36.586 -25.246 -12.283  0.00  0.00    +0.152 C 
ATOM      5  C   UNL     1      37.514 -26.387 -12.680  0.00  0.00    +0.031 C 
ATOM      6  C   UNL     1      36.624 -25.430 -14.682  0.00  0.00    +0.094 C 
ATOM      7  C   UNL     1      37.896 -26.049 -14.120  0.00  0.00    +0.024 C 
ATOM      8  C   UNL     1      34.797 -24.074 -13.564  0.00  0.00    +0.244 C 
BRANCH   4  11
ATOM      9  O   UNL     1      38.420 -23.713 -12.231  0.00  0.00    -0.274 OA
ATOM     10  N   UNL     1      36.742 -23.458 -10.677  0.00  0.00    -0.327 N 
ATOM     11  C   UNL     1      37.347 -24.069 -11.749  0.00  0.00    +0.237 C 
ATOM     12  H   UNL     1      37.164 -22.676 -10.255  0.00  0.00    +0.145 HD
ATOM     13  H   UNL     1      35.887 -23.804 -10.331  0.00  0.00    +0.145 HD
ENDBRANCH   4  11
ENDBRANCH   1   8
BRANCH   1  15
ATOM     14  O   UNL     1      31.949 -25.647 -14.415  0.00  0.00    -0.273 OA
ATOM     15  N   UNL     1      32.836 -23.504 -14.644  0.00  0.00    -0.297 N 
ATOM     16  C   UNL     1      31.821 -24.425 -14.409  0.00  0.00    +0.241 C 
ATOM     17  H   UNL     1      32.611 -22.546 -14.614  0.00  0.00    +0.150 HD
BRANCH  16  20
ATOM     18  O   UNL     1      29.231 -22.300 -17.061  0.00  0.00    -0.275 OA
ATOM     19  N   UNL     1      30.363 -22.694 -15.049  0.00  0.00    -0.298 N 
ATOM     20  C   UNL     1      30.509 -23.772 -14.112  0.00  0.00    +0.149 C 
ATOM     21  C   UNL     1      29.324 -24.671 -14.407  0.00  0.00    +0.039 C 
ATOM     22  C   UNL     1      29.010 -24.411 -15.880  0.00  0.00    +0.087 C 
ATOM     23  C   UNL     1      29.509 -23.004 -16.103  0.00  0.00    +0.223 C 
ATOM     24  H   UNL     1      30.818 -21.827 -14.956  0.00  0.00    +0.150 HD
ENDBRANCH  16  20
ENDBRANCH   1  15
BRANCH   1  25
ATOM     25  C   UNL     1      34.961 -22.808 -15.699  0.00  0.00    +0.071 C 
BRANCH  25  28
ATOM     26  N   UNL     1      35.317 -22.165 -18.116  0.00  0.00    -0.319 N 
ATOM     27  N   UNL     1      33.519 -22.943 -19.160  0.00  0.00    -0.315 N 
ATOM     28  C   UNL     1      34.552 -22.758 -17.152  0.00  0.00    +0.040 C 
ATOM     29  C   UNL     1      33.447 -23.231 -17.820  0.00  0.00    +0.069 C 
ATOM     30  C   UNL     1      34.657 -22.300 -19.304  0.00  0.00    +0.182 C 
ATOM     31  H   UNL     1      36.185 -21.721 -17.978  0.00  0.00    +0.148 HD
ATOM     32  H   UNL     1      32.863 -23.169 -19.860  0.00  0.00    +0.148 HD
ENDBRANCH  25  28
ENDBRANCH   1  25
TORSDOF 6
ENDMDL
MODEL 2
REMARK VINA RESULT:      -9.6      2.026      4.467
REMARK  Name = 638678
REMARK  6 active torsions:
REMARK  status: ('A' for Active; 'I' for Inactive)
REMARK    1  A    between atoms: C_1  and  C_8
REMARK    2  A    between atoms: C_1  and  N_15
REMARK    3  A    between atoms: C_1  and  C_25
REMARK    4  A    between atoms: C_4  and  C_11
REMARK    5  A    between atoms: C_16  and  C_20
REMARK    6  A    between atoms: C_25  and  C_28
REMARK                            x       y       z     vdW  Elec       q    Type
REMARK                         _______ _______ _______ _____ _____    ______ ____
ROOT
ATOM      1  C   UNL     1      34.127 -23.693 -14.987  0.00  0.00    +0.155 C 
ENDROOT
BRANCH   1   8
ATOM      2  O   UNL     1      35.586 -25.442 -15.679  0.00  0.00    -0.273 OA
ATOM      3  N   UNL     1      36.150 -24.298 -13.747  0.00  0.00    -0.272 N 
ATOM      4  C   UNL     1      37.447 -24.932 -13.552  0.00  0.00    +0.152 C 
ATOM      5  C   UNL     1      38.157 -24.052 -12.530  0.00  0.00    +0.031 C 
ATOM      6  C   UNL     1      35.910 -23.267 -12.742  0.00  0.00    +0.094 C 
ATOM      7  C   UNL     1      37.011 -23.464 -11.710  0.00  0.00    +0.024 C 
ATOM      8  C   UNL     1      35.351 -24.561 -14.850  0.00  0.00    +0.244 C 
BRANCH   4  11
ATOM      9  O   UNL     1      37.020 -26.524 -11.821  0.00  0.00    -0.274 OA
ATOM     10  N   UNL     1      37.189 -27.286 -13.986  0.00  0.00    -0.327 N 
ATOM     11  C   UNL     1      37.192 -26.309 -13.019  0.00  0.00    +0.237 C 
ATOM     12  H   UNL     1      37.030 -28.225 -13.735  0.00  0.00    +0.145 HD
ATOM     13  H   UNL     1      37.347 -27.047 -14.927  0.00  0.00    +0.145 HD
ENDBRANCH   4  11
ENDBRANCH   1   8
BRANCH   1  15
ATOM     14  O   UNL     1      35.490 -22.060 -16.963  0.00  0.00    -0.273 OA
ATOM     15  N   UNL     1      33.895 -23.663 -16.402  0.00  0.00    -0.297 N 
ATOM     16  C   UNL     1      34.599 -22.844 -17.278  0.00  0.00    +0.241 C 
ATOM     17  H   UNL     1      33.199 -24.253 -16.773  0.00  0.00    +0.150 HD
BRANCH  16  20
ATOM     18  O   UNL     1      32.261 -20.241 -19.729  0.00  0.00    -0.275 OA
ATOM     19  N   UNL     1      32.947 -22.305 -18.863  0.00  0.00    -0.298 N 
ATOM     20  C   UNL     1      34.177 -23.027 -18.701  0.00  0.00    +0.149 C 
ATOM     21  C   UNL     1      35.120 -22.361 -19.685  0.00  0.00    +0.039 C 
ATOM     22  C   UNL     1      34.587 -20.935 -19.812  0.00  0.00    +0.087 C 
ATOM     23  C   UNL     1      33.118 -21.078 -19.496  0.00  0.00    +0.223 C 
ATOM     24  H   UNL     1      32.074 -22.642 -18.558  0.00  0.00    +0.150 HD
ENDBRANCH  16  20
ENDBRANCH   1  15
BRANCH   1  25
ATOM     25  C   UNL     1      32.967 -24.287 -14.197  0.00  0.00    +0.071 C 
BRANCH  25  28
ATOM     26  N   UNL     1      30.767 -24.717 -15.362  0.00  0.00    -0.319 N 
ATOM     27  N   UNL     1      29.771 -22.733 -15.402  0.00  0.00    -0.315 N 
ATOM     28  C   UNL     1      31.630 -23.853 -14.750  0.00  0.00    +0.040 C 
ATOM     29  C   UNL     1      30.994 -22.634 -14.787  0.00  0.00    +0.069 C 
ATOM     30  C   UNL     1      29.666 -24.000 -15.737  0.00  0.00    +0.182 C 
ATOM     31  H   UNL     1      30.912 -25.680 -15.506  0.00  0.00    +0.148 HD
ATOM     32  H   UNL     1      29.117 -22.014 -15.558  0.00  0.00    +0.148 HD
ENDBRANCH  25  28
ENDBRANCH   1  25
TORSDOF 6
ENDMDL
MODEL 3
REMARK VINA RESULT:      -9.1      1.823      6.454
REMARK  Name = 638678
REMARK  6 active torsions:
REMARK  status: ('A' for Active; 'I' for Inactive)
REMARK    1  A    between atoms: C_1  and  C_8
REMARK    2  A    between atoms: C_1  and  N_15
REMARK    3  A    between atoms: C_1  and  C_25
REMARK    4  A    between atoms: C_4  and  C_11
REMARK    5  A    between atoms: C_16  and  C_20
REMARK    6  A    between atoms: C_25  and  C_28
REMARK                            x       y       z     vdW  Elec       q    Type
REMARK                         _______ _______ _______ _____ _____    ______ ____
ROOT
ATOM      1  C   UNL     1      34.022 -23.724 -14.543  0.00  0.00    +0.155 C 
ENDROOT
BRANCH   1   8
ATOM      2  O   UNL     1      32.500 -24.860 -13.108  0.00  0.00    -0.273 OA
ATOM      3  N   UNL     1      31.595 -23.651 -14.862  0.00  0.00    -0.272 N 
ATOM      4  C   UNL     1      30.200 -23.818 -14.476  0.00  0.00    +0.152 C 
ATOM      5  C   UNL     1      29.445 -22.781 -15.299  0.00  0.00    +0.031 C 
ATOM      6  C   UNL     1      31.719 -22.790 -16.034  0.00  0.00    +0.094 C 
ATOM      7  C   UNL     1      30.298 -22.636 -16.557  0.00  0.00    +0.024 C 
ATOM      8  C   UNL     1      32.643 -24.134 -14.093  0.00  0.00    +0.244 C 
BRANCH   4  11
ATOM      9  O   UNL     1      30.504 -25.926 -15.560  0.00  0.00    -0.274 OA
ATOM     10  N   UNL     1      28.593 -25.604 -14.319  0.00  0.00    -0.327 N 
ATOM     11  C   UNL     1      29.803 -25.216 -14.842  0.00  0.00    +0.237 C 
ATOM     12  H   UNL     1      28.244 -26.506 -14.504  0.00  0.00    +0.145 HD
ATOM     13  H   UNL     1      28.074 -24.980 -13.762  0.00  0.00    +0.145 HD
ENDBRANCH   4  11
ENDBRANCH   1   8
BRANCH   1  15
ATOM     14  O   UNL     1      36.245 -23.040 -12.805  0.00  0.00    -0.273 OA
ATOM     15  N   UNL     1      34.886 -24.626 -13.838  0.00  0.00    -0.297 N 
ATOM     16  C   UNL     1      35.932 -24.207 -13.023  0.00  0.00    +0.241 C 
ATOM     17  H   UNL     1      34.731 -25.593 -13.937  0.00  0.00    +0.150 HD
BRANCH  16  20
ATOM     18  O   UNL     1      38.320 -27.221 -14.885  0.00  0.00    -0.275 OA
ATOM     19  N   UNL     1      36.736 -26.389 -13.375  0.00  0.00    -0.298 N 
ATOM     20  C   UNL     1      36.659 -25.349 -12.388  0.00  0.00    +0.149 C 
ATOM     21  C   UNL     1      38.111 -25.029 -12.087  0.00  0.00    +0.039 C 
ATOM     22  C   UNL     1      38.853 -25.397 -13.372  0.00  0.00    +0.087 C 
ATOM     23  C   UNL     1      37.982 -26.465 -13.987  0.00  0.00    +0.223 C 
ATOM     24  H   UNL     1      35.985 -26.986 -13.595  0.00  0.00    +0.150 HD
ENDBRANCH  16  20
ENDBRANCH   1  15
BRANCH   1  25
ATOM     25  C   UNL     1      34.138 -23.835 -16.058  0.00  0.00    +0.071 C 
BRANCH  25  28
ATOM     26  N   UNL     1      36.309 -22.556 -15.869  0.00  0.00    -0.319 N 
ATOM     27  N   UNL     1      36.556 -21.601 -17.858  0.00  0.00    -0.315 N 
ATOM     28  C   UNL     1      35.222 -22.937 -16.605  0.00  0.00    +0.040 C 
ATOM     29  C   UNL     1      35.397 -22.336 -17.829  0.00  0.00    +0.069 C 
ATOM     30  C   UNL     1      37.081 -21.755 -16.663  0.00  0.00    +0.182 C 
ATOM     31  H   UNL     1      36.499 -22.812 -14.938  0.00  0.00    +0.148 HD
ATOM     32  H   UNL     1      36.916 -21.076 -18.610  0.00  0.00    +0.148 HD
ENDBRANCH  25  28
ENDBRANCH   1  25
TORSDOF 6
ENDMDL
MODEL 4
REMARK VINA RESULT:      -9.1      1.705      6.190
REMARK  Name = 638678
REMARK  6 active torsions:
REMARK  status: ('A' for Active; 'I' for Inactive)
REMARK    1  A    between atoms: C_1  and  C_8
REMARK    2  A    between atoms: C_1  and  N_15
REMARK    3  A    between atoms: C_1  and  C_25
REMARK    4  A    between atoms: C_4  and  C_11
REMARK    5  A    between atoms: C_16  and  C_20
REMARK    6  A    between atoms: C_25  and  C_28
REMARK                            x       y       z     vdW  Elec       q    Type
REMARK                         _______ _______ _______ _____ _____    ______ ____
ROOT
ATOM      1  C   UNL     1      33.387 -22.895 -15.578  0.00  0.00    +0.155 C 
ENDROOT
BRANCH   1   8
ATOM      2  O   UNL     1      32.529 -24.291 -13.852  0.00  0.00    -0.273 OA
ATOM      3  N   UNL     1      30.999 -23.374 -15.326  0.00  0.00    -0.272 N 
ATOM      4  C   UNL     1      29.803 -23.833 -14.632  0.00  0.00    +0.152 C 
ATOM      5  C   UNL     1      28.667 -23.019 -15.239  0.00  0.00    +0.031 C 
ATOM      6  C   UNL     1      30.655 -22.548 -16.480  0.00  0.00    +0.094 C 
ATOM      7  C   UNL     1      29.155 -22.731 -16.657  0.00  0.00    +0.024 C 
ATOM      8  C   UNL     1      32.276 -23.586 -14.830  0.00  0.00    +0.244 C 
BRANCH   4  11
ATOM      9  O   UNL     1      30.432 -25.895 -15.664  0.00  0.00    -0.274 OA
ATOM     10  N   UNL     1      28.577 -25.879 -14.302  0.00  0.00    -0.327 N 
ATOM     11  C   UNL     1      29.657 -25.296 -14.922  0.00  0.00    +0.237 C 
ATOM     12  H   UNL     1      28.395 -26.838 -14.431  0.00  0.00    +0.145 HD
ATOM     13  H   UNL     1      27.986 -25.337 -13.730  0.00  0.00    +0.145 HD
ENDBRANCH   4  11
ENDBRANCH   1   8
BRANCH   1  15
ATOM     14  O   UNL     1      35.803 -24.504 -15.627  0.00  0.00    -0.273 OA
ATOM     15  N   UNL     1      34.466 -22.875 -14.633  0.00  0.00    -0.297 N 
ATOM     16  C   UNL     1      35.591 -23.686 -14.736  0.00  0.00    +0.241 C 
ATOM     17  H   UNL     1      34.406 -22.255 -13.871  0.00  0.00    +0.150 HD
BRANCH  16  20
ATOM     18  O   UNL     1      35.375 -24.919 -10.650  0.00  0.00    -0.275 OA
ATOM     19  N   UNL     1      35.825 -23.439 -12.408  0.00  0.00    -0.298 N 
ATOM     20  C   UNL     1      36.573 -23.448 -13.634  0.00  0.00    +0.149 C 
ATOM     21  C   UNL     1      37.546 -24.598 -13.454  0.00  0.00    +0.039 C 
ATOM     22  C   UNL     1      36.837 -25.545 -12.487  0.00  0.00    +0.087 C 
ATOM     23  C   UNL     1      35.932 -24.630 -11.699  0.00  0.00    +0.223 C 
ATOM     24  H   UNL     1      35.292 -22.670 -12.103  0.00  0.00    +0.150 HD
ENDBRANCH  16  20
ENDBRANCH   1  15
BRANCH   1  25
ATOM     25  C   UNL     1      33.716 -23.657 -16.856  0.00  0.00    +0.071 C 
BRANCH  25  28
ATOM     26  N   UNL     1      32.999 -22.294 -18.858  0.00  0.00    -0.319 N 
ATOM     27  N   UNL     1      34.874 -21.347 -19.577  0.00  0.00    -0.315 N 
ATOM     28  C   UNL     1      33.983 -22.724 -18.013  0.00  0.00    +0.040 C 
ATOM     29  C   UNL     1      35.131 -22.127 -18.477  0.00  0.00    +0.069 C 
ATOM     30  C   UNL     1      33.581 -21.471 -19.780  0.00  0.00    +0.182 C 
ATOM     31  H   UNL     1      32.045 -22.534 -18.811  0.00  0.00    +0.148 HD
ATOM     32  H   UNL     1      35.517 -20.813 -20.099  0.00  0.00    +0.148 HD
ENDBRANCH  25  28
ENDBRANCH   1  25
TORSDOF 6
ENDMDL
MODEL 5
REMARK VINA RESULT:      -9.0      1.826      2.482
REMARK  Name = 638678
REMARK  6 active torsions:
REMARK  status: ('A' for Active; 'I' for Inactive)
REMARK    1  A    between atoms: C_1  and  C_8
REMARK    2  A    between atoms: C_1  and  N_15
REMARK    3  A    between atoms: C_1  and  C_25
REMARK    4  A    between atoms: C_4  and  C_11
REMARK    5  A    between atoms: C_16  and  C_20
REMARK    6  A    between atoms: C_25  and  C_28
REMARK                            x       y       z     vdW  Elec       q    Type
REMARK                         _______ _______ _______ _____ _____    ______ ____
ROOT
ATOM      1  C   UNL     1      35.219 -23.796 -15.862  0.00  0.00    +0.155 C 
ENDROOT
BRANCH   1   8
ATOM      2  O   UNL     1      36.495 -25.803 -15.748  0.00  0.00    -0.273 OA
ATOM      3  N   UNL     1      36.681 -24.331 -13.972  0.00  0.00    -0.272 N 
ATOM      4  C   UNL     1      37.745 -25.044 -13.277  0.00  0.00    +0.152 C 
ATOM      5  C   UNL     1      38.279 -24.043 -12.259  0.00  0.00    +0.031 C 
ATOM      6  C   UNL     1      36.348 -23.084 -13.290  0.00  0.00    +0.094 C 
ATOM      7  C   UNL     1      37.066 -23.168 -11.951  0.00  0.00    +0.024 C 
ATOM      8  C   UNL     1      36.190 -24.741 -15.202  0.00  0.00    +0.244 C 
BRANCH   4  11
ATOM      9  O   UNL     1      36.731 -26.202 -11.448  0.00  0.00    -0.274 OA
ATOM     10  N   UNL     1      37.049 -27.345 -13.420  0.00  0.00    -0.327 N 
ATOM     11  C   UNL     1      37.121 -26.234 -12.613  0.00  0.00    +0.237 C 
ATOM     12  H   UNL     1      36.655 -28.178 -13.075  0.00  0.00    +0.145 HD
ATOM     13  H   UNL     1      37.393 -27.306 -14.342  0.00  0.00    +0.145 HD
ENDBRANCH   4  11
ENDBRANCH   1   8
BRANCH   1  15
ATOM     14  O   UNL     1      32.441 -23.203 -16.464  0.00  0.00    -0.273 OA
ATOM     15  N   UNL     1      34.119 -23.752 -14.943  0.00  0.00    -0.297 N 
ATOM     16  C   UNL     1      32.813 -23.457 -15.322  0.00  0.00    +0.241 C 
ATOM     17  H   UNL     1      34.297 -23.939 -13.993  0.00  0.00    +0.150 HD
BRANCH  16  20
ATOM     18  O   UNL     1      28.559 -23.841 -15.396  0.00  0.00    -0.275 OA
ATOM     19  N   UNL     1      30.608 -22.986 -14.654  0.00  0.00    -0.298 N 
ATOM     20  C   UNL     1      31.858 -23.502 -14.172  0.00  0.00    +0.149 C 
ATOM     21  C   UNL     1      31.522 -24.918 -13.742  0.00  0.00    +0.039 C 
ATOM     22  C   UNL     1      30.333 -25.307 -14.620  0.00  0.00    +0.087 C 
ATOM     23  C   UNL     1      29.682 -23.984 -14.937  0.00  0.00    +0.223 C 
ATOM     24  H   UNL     1      30.425 -22.026 -14.770  0.00  0.00    +0.150 HD
ENDBRANCH  16  20
ENDBRANCH   1  15
BRANCH   1  25
ATOM     25  C   UNL     1      35.873 -22.439 -16.087  0.00  0.00    +0.071 C 
BRANCH  25  28
ATOM     26  N   UNL     1      34.784 -22.278 -18.361  0.00  0.00    -0.319 N 
ATOM     27  N   UNL     1      36.302 -21.265 -19.626  0.00  0.00    -0.315 N 
ATOM     28  C   UNL     1      35.854 -22.042 -17.544  0.00  0.00    +0.040 C 
ATOM     29  C   UNL     1      36.778 -21.415 -18.347  0.00  0.00    +0.069 C 
ATOM     30  C   UNL     1      35.100 -21.795 -19.600  0.00  0.00    +0.182 C 
ATOM     31  H   UNL     1      33.941 -22.717 -18.104  0.00  0.00    +0.148 HD
ATOM     32  H   UNL     1      36.761 -20.850 -20.392  0.00  0.00    +0.148 HD
ENDBRANCH  25  28
ENDBRANCH   1  25
TORSDOF 6
ENDMDL
MODEL 6
REMARK VINA RESULT:      -8.9      2.020      2.615
REMARK  Name = 638678
REMARK  6 active torsions:
REMARK  status: ('A' for Active; 'I' for Inactive)
REMARK    1  A    between atoms: C_1  and  C_8
REMARK    2  A    between atoms: C_1  and  N_15
REMARK    3  A    between atoms: C_1  and  C_25
REMARK    4  A    between atoms: C_4  and  C_11
REMARK    5  A    between atoms: C_16  and  C_20
REMARK    6  A    between atoms: C_25  and  C_28
REMARK                            x       y       z     vdW  Elec       q    Type
REMARK                         _______ _______ _______ _____ _____    ______ ____
ROOT
ATOM      1  C   UNL     1      35.881 -23.047 -15.861  0.00  0.00    +0.155 C 
ENDROOT
BRANCH   1   8
ATOM      2  O   UNL     1      37.670 -22.724 -14.324  0.00  0.00    -0.273 OA
ATOM      3  N   UNL     1      37.027 -24.906 -14.752  0.00  0.00    -0.272 N 
ATOM      4  C   UNL     1      37.882 -25.530 -13.751  0.00  0.00    +0.152 C 
ATOM      5  C   UNL     1      37.340 -26.948 -13.610  0.00  0.00    +0.031 C 
ATOM      6  C   UNL     1      36.185 -25.895 -15.419  0.00  0.00    +0.094 C 
ATOM      7  C   UNL     1      36.750 -27.241 -14.988  0.00  0.00    +0.024 C 
ATOM      8  C   UNL     1      36.941 -23.530 -14.905  0.00  0.00    +0.244 C 
BRANCH   4  11
ATOM      9  O   UNL     1      40.204 -26.097 -13.726  0.00  0.00    -0.274 OA
ATOM     10  N   UNL     1      39.417 -24.797 -15.455  0.00  0.00    -0.327 N 
ATOM     11  C   UNL     1      39.279 -25.520 -14.294  0.00  0.00    +0.237 C 
ATOM     12  H   UNL     1      40.298 -24.730 -15.890  0.00  0.00    +0.145 HD
ATOM     13  H   UNL     1      38.636 -24.347 -15.851  0.00  0.00    +0.145 HD
ENDBRANCH   4  11
ENDBRANCH   1   8
BRANCH   1  15
ATOM     14  O   UNL     1      33.122 -23.588 -16.586  0.00  0.00    -0.273 OA
ATOM     15  N   UNL     1      34.720 -22.909 -15.032  0.00  0.00    -0.297 N 
ATOM     16  C   UNL     1      33.429 -23.192 -15.465  0.00  0.00    +0.241 C 
ATOM     17  H   UNL     1      34.842 -22.596 -14.106  0.00  0.00    +0.150 HD
BRANCH  16  20
ATOM     18  O   UNL     1      29.259 -24.118 -15.540  0.00  0.00    -0.275 OA
ATOM     19  N   UNL     1      31.143 -22.816 -15.056  0.00  0.00    -0.298 N 
ATOM     20  C   UNL     1      32.406 -22.987 -14.394  0.00  0.00    +0.149 C 
ATOM     21  C   UNL     1      32.199 -24.220 -13.534  0.00  0.00    +0.039 C 
ATOM     22  C   UNL     1      31.125 -25.019 -14.273  0.00  0.00    +0.087 C 
ATOM     23  C   UNL     1      30.355 -23.962 -15.026  0.00  0.00    +0.223 C 
ATOM     24  H   UNL     1      30.864 -21.976 -15.486  0.00  0.00    +0.150 HD
ENDBRANCH  16  20
ENDBRANCH   1  15
BRANCH   1  25
ATOM     25  C   UNL     1      36.316 -21.742 -16.515  0.00  0.00    +0.071 C 
BRANCH  25  28
ATOM     26  N   UNL     1      34.881 -22.263 -18.529  0.00  0.00    -0.319 N 
ATOM     27  N   UNL     1      36.042 -21.471 -20.248  0.00  0.00    -0.315 N 
ATOM     28  C   UNL     1      36.022 -21.731 -17.997  0.00  0.00    +0.040 C 
ATOM     29  C   UNL     1      36.723 -21.248 -19.077  0.00  0.00    +0.069 C 
ATOM     30  C   UNL     1      34.937 -22.084 -19.882  0.00  0.00    +0.182 C 
ATOM     31  H   UNL     1      34.153 -22.696 -18.028  0.00  0.00    +0.148 HD
ATOM     32  H   UNL     1      36.319 -21.225 -21.161  0.00  0.00    +0.148 HD
ENDBRANCH  25  28
ENDBRANCH   1  25
TORSDOF 6
ENDMDL
MODEL 7
REMARK VINA RESULT:      -8.0      2.711      6.734
REMARK  Name = 638678
REMARK  6 active torsions:
REMARK  status: ('A' for Active; 'I' for Inactive)
REMARK    1  A    between atoms: C_1  and  C_8
REMARK    2  A    between atoms: C_1  and  N_15
REMARK    3  A    between atoms: C_1  and  C_25
REMARK    4  A    between atoms: C_4  and  C_11
REMARK    5  A    between atoms: C_16  and  C_20
REMARK    6  A    between atoms: C_25  and  C_28
REMARK                            x       y       z     vdW  Elec       q    Type
REMARK                         _______ _______ _______ _____ _____    ______ ____
ROOT
ATOM      1  C   UNL     1      35.154 -24.007 -15.421  0.00  0.00    +0.155 C 
ENDROOT
BRANCH   1   8
ATOM      2  O   UNL     1      37.322 -23.325 -16.131  0.00  0.00    -0.273 OA
ATOM      3  N   UNL     1      35.536 -22.737 -17.480  0.00  0.00    -0.272 N 
ATOM      4  C   UNL     1      36.327 -22.185 -18.572  0.00  0.00    +0.152 C 
ATOM      5  C   UNL     1      35.352 -22.073 -19.738  0.00  0.00    +0.031 C 
ATOM      6  C   UNL     1      34.111 -22.722 -17.801  0.00  0.00    +0.094 C 
ATOM      7  C   UNL     1      34.003 -21.865 -19.054  0.00  0.00    +0.024 C 
ATOM      8  C   UNL     1      36.113 -23.333 -16.369  0.00  0.00    +0.244 C 
BRANCH   4  11
ATOM      9  O   UNL     1      36.952 -19.903 -18.909  0.00  0.00    -0.274 OA
ATOM     10  N   UNL     1      37.119 -20.776 -16.786  0.00  0.00    -0.327 N 
ATOM     11  C   UNL     1      36.819 -20.841 -18.126  0.00  0.00    +0.237 C 
ATOM     12  H   UNL     1      37.450 -19.936 -16.397  0.00  0.00    +0.145 HD
ATOM     13  H   UNL     1      37.002 -21.571 -16.217  0.00  0.00    +0.145 HD
ENDBRANCH   4  11
ENDBRANCH   1   8
BRANCH   1  15
ATOM     14  O   UNL     1      36.200 -26.680 -15.855  0.00  0.00    -0.273 OA
ATOM     15  N   UNL     1      36.014 -24.757 -14.553  0.00  0.00    -0.297 N 
ATOM     16  C   UNL     1      36.468 -26.039 -14.843  0.00  0.00    +0.241 C 
ATOM     17  H   UNL     1      36.297 -24.343 -13.705  0.00  0.00    +0.150 HD
BRANCH  16  20
ATOM     18  O   UNL     1      40.558 -25.082 -14.061  0.00  0.00    -0.275 OA
ATOM     19  N   UNL     1      38.709 -26.498 -14.293  0.00  0.00    -0.298 N 
ATOM     20  C   UNL     1      37.370 -26.583 -13.781  0.00  0.00    +0.149 C 
ATOM     21  C   UNL     1      37.404 -25.715 -12.537  0.00  0.00    +0.039 C 
ATOM     22  C   UNL     1      38.508 -24.696 -12.817  0.00  0.00    +0.087 C 
ATOM     23  C   UNL     1      39.420 -25.421 -13.777  0.00  0.00    +0.223 C 
ATOM     24  H   UNL     1      39.084 -27.137 -14.941  0.00  0.00    +0.150 HD
ENDBRANCH  16  20
ENDBRANCH   1  15
BRANCH   1  25
ATOM     25  C   UNL     1      34.315 -22.966 -14.690  0.00  0.00    +0.071 C 
BRANCH  25  28
ATOM     26  N   UNL     1      32.746 -24.791 -13.919  0.00  0.00    -0.319 N 
ATOM     27  N   UNL     1      30.750 -23.819 -13.888  0.00  0.00    -0.315 N 
ATOM     28  C   UNL     1      32.951 -23.501 -14.324  0.00  0.00    +0.040 C 
ATOM     29  C   UNL     1      31.704 -22.921 -14.296  0.00  0.00    +0.069 C 
ATOM     30  C   UNL     1      31.411 -24.935 -13.669  0.00  0.00    +0.182 C 
ATOM     31  H   UNL     1      33.435 -25.488 -13.826  0.00  0.00    +0.148 HD
ATOM     32  H   UNL     1      29.783 -23.662 -13.781  0.00  0.00    +0.148 HD
ENDBRANCH  25  28
ENDBRANCH   1  25
TORSDOF 6
ENDMDL
MODEL 8
REMARK VINA RESULT:      -7.9      2.048      4.482
REMARK  Name = 638678
REMARK  6 active torsions:
REMARK  status: ('A' for Active; 'I' for Inactive)
REMARK    1  A    between atoms: C_1  and  C_8
REMARK    2  A    between atoms: C_1  and  N_15
REMARK    3  A    between atoms: C_1  and  C_25
REMARK    4  A    between atoms: C_4  and  C_11
REMARK    5  A    between atoms: C_16  and  C_20
REMARK    6  A    between atoms: C_25  and  C_28
REMARK                            x       y       z     vdW  Elec       q    Type
REMARK                         _______ _______ _______ _____ _____    ______ ____
ROOT
ATOM      1  C   UNL     1      34.324 -23.353 -15.208  0.00  0.00    +0.155 C 
ENDROOT
BRANCH   1   8
ATOM      2  O   UNL     1      36.255 -22.342 -14.251  0.00  0.00    -0.273 OA
ATOM      3  N   UNL     1      36.387 -24.596 -14.764  0.00  0.00    -0.272 N 
ATOM      4  C   UNL     1      37.695 -24.826 -14.164  0.00  0.00    +0.152 C 
ATOM      5  C   UNL     1      37.812 -26.343 -14.064  0.00  0.00    +0.031 C 
ATOM      6  C   UNL     1      35.815 -25.837 -15.277  0.00  0.00    +0.094 C 
ATOM      7  C   UNL     1      36.957 -26.842 -15.227  0.00  0.00    +0.024 C 
ATOM      8  C   UNL     1      35.740 -23.371 -14.691  0.00  0.00    +0.244 C 
BRANCH   4  11
ATOM      9  O   UNL     1      39.918 -24.477 -14.969  0.00  0.00    -0.274 OA
ATOM     10  N   UNL     1      38.184 -23.440 -16.071  0.00  0.00    -0.327 N 
ATOM     11  C   UNL     1      38.717 -24.249 -15.095  0.00  0.00    +0.237 C 
ATOM     12  H   UNL     1      38.775 -23.012 -16.732  0.00  0.00    +0.145 HD
ATOM     13  H   UNL     1      37.212 -23.287 -16.107  0.00  0.00    +0.145 HD
ENDBRANCH   4  11
ENDBRANCH   1   8
BRANCH   1  15
ATOM     14  O   UNL     1      32.411 -22.471 -17.206  0.00  0.00    -0.273 OA
ATOM     15  N   UNL     1      34.488 -23.359 -16.633  0.00  0.00    -0.297 N 
ATOM     16  C   UNL     1      33.512 -22.915 -17.519  0.00  0.00    +0.241 C 
ATOM     17  H   UNL     1      35.336 -23.695 -17.003  0.00  0.00    +0.150 HD
BRANCH  16  20
ATOM     18  O   UNL     1      32.629 -20.272 -20.759  0.00  0.00    -0.275 OA
ATOM     19  N   UNL     1      32.938 -22.353 -19.730  0.00  0.00    -0.298 N 
ATOM     20  C   UNL     1      33.949 -23.006 -18.946  0.00  0.00    +0.149 C 
ATOM     21  C   UNL     1      35.203 -22.200 -19.230  0.00  0.00    +0.039 C 
ATOM     22  C   UNL     1      34.685 -20.805 -19.579  0.00  0.00    +0.087 C 
ATOM     23  C   UNL     1      33.302 -21.069 -20.124  0.00  0.00    +0.223 C 
ATOM     24  H   UNL     1      32.078 -22.770 -19.964  0.00  0.00    +0.150 HD
ENDBRANCH  16  20
ENDBRANCH   1  15
BRANCH   1  25
ATOM     25  C   UNL     1      33.556 -24.559 -14.683  0.00  0.00    +0.071 C 
BRANCH  25  28
ATOM     26  N   UNL     1      31.580 -23.003 -14.443  0.00  0.00    -0.319 N 
ATOM     27  N   UNL     1      29.821 -24.356 -14.382  0.00  0.00    -0.315 N 
ATOM     28  C   UNL     1      32.079 -24.270 -14.552  0.00  0.00    +0.040 C 
ATOM     29  C   UNL     1      30.974 -25.088 -14.512  0.00  0.00    +0.069 C 
ATOM     30  C   UNL     1      30.221 -23.104 -14.343  0.00  0.00    +0.182 C 
ATOM     31  H   UNL     1      32.104 -22.170 -14.438  0.00  0.00    +0.148 HD
ATOM     32  H   UNL     1      28.897 -24.693 -14.330  0.00  0.00    +0.148 HD
ENDBRANCH  25  28
ENDBRANCH   1  25
TORSDOF 6
ENDMDL
MODEL 9
REMARK VINA RESULT:      -7.9      2.109      4.747
REMARK  Name = 638678
REMARK  6 active torsions:
REMARK  status: ('A' for Active; 'I' for Inactive)
REMARK    1  A    between atoms: C_1  and  C_8
REMARK    2  A    between atoms: C_1  and  N_15
REMARK    3  A    between atoms: C_1  and  C_25
REMARK    4  A    between atoms: C_4  and  C_11
REMARK    5  A    between atoms: C_16  and  C_20
REMARK    6  A    between atoms: C_25  and  C_28
REMARK                            x       y       z     vdW  Elec       q    Type
REMARK                         _______ _______ _______ _____ _____    ______ ____
ROOT
ATOM      1  C   UNL     1      33.343 -23.483 -15.755  0.00  0.00    +0.155 C 
ENDROOT
BRANCH   1   8
ATOM      2  O   UNL     1      34.504 -25.092 -14.439  0.00  0.00    -0.273 OA
ATOM      3  N   UNL     1      35.764 -23.403 -15.396  0.00  0.00    -0.272 N 
ATOM      4  C   UNL     1      37.067 -23.928 -15.009  0.00  0.00    +0.152 C 
ATOM      5  C   UNL     1      38.065 -23.155 -15.863  0.00  0.00    +0.031 C 
ATOM      6  C   UNL     1      35.902 -22.200 -16.212  0.00  0.00    +0.094 C 
ATOM      7  C   UNL     1      37.369 -21.815 -16.096  0.00  0.00    +0.024 C 
ATOM      8  C   UNL     1      34.582 -24.077 -15.134  0.00  0.00    +0.244 C 
BRANCH   4  11
ATOM      9  O   UNL     1      38.308 -23.847 -12.968  0.00  0.00    -0.274 OA
ATOM     10  N   UNL     1      36.113 -23.155 -12.937  0.00  0.00    -0.327 N 
ATOM     11  C   UNL     1      37.244 -23.641 -13.549  0.00  0.00    +0.237 C 
ATOM     12  H   UNL     1      36.128 -22.936 -11.978  0.00  0.00    +0.145 HD
ATOM     13  H   UNL     1      35.288 -23.027 -13.459  0.00  0.00    +0.145 HD
ENDBRANCH   4  11
ENDBRANCH   1   8
BRANCH   1  15
ATOM     14  O   UNL     1      31.958 -21.971 -17.811  0.00  0.00    -0.273 OA
ATOM     15  N   UNL     1      33.675 -23.400 -17.149  0.00  0.00    -0.297 N 
ATOM     16  C   UNL     1      32.951 -22.647 -18.066  0.00  0.00    +0.241 C 
ATOM     17  H   UNL     1      34.456 -23.905 -17.473  0.00  0.00    +0.150 HD
BRANCH  16  20
ATOM     18  O   UNL     1      33.427 -19.505 -20.923  0.00  0.00    -0.275 OA
ATOM     19  N   UNL     1      32.899 -21.671 -20.206  0.00  0.00    -0.298 N 
ATOM     20  C   UNL     1      33.524 -22.716 -19.445  0.00  0.00    +0.149 C 
ATOM     21  C   UNL     1      34.999 -22.360 -19.487  0.00  0.00    +0.039 C 
ATOM     22  C   UNL     1      35.015 -20.841 -19.660  0.00  0.00    +0.087 C 
ATOM     23  C   UNL     1      33.711 -20.552 -20.361  0.00  0.00    +0.223 C 
ATOM     24  H   UNL     1      31.990 -21.739 -20.578  0.00  0.00    +0.150 HD
ENDBRANCH  16  20
ENDBRANCH   1  15
BRANCH   1  25
ATOM     25  C   UNL     1      32.135 -24.366 -15.473  0.00  0.00    +0.071 C 
BRANCH  25  28
ATOM     26  N   UNL     1      29.892 -23.700 -16.425  0.00  0.00    -0.319 N 
ATOM     27  N   UNL     1      29.121 -22.182 -15.000  0.00  0.00    -0.315 N 
ATOM     28  C   UNL     1      30.850 -23.572 -15.459  0.00  0.00    +0.040 C 
ATOM     29  C   UNL     1      30.352 -22.630 -14.591  0.00  0.00    +0.069 C 
ATOM     30  C   UNL     1      28.873 -22.846 -16.108  0.00  0.00    +0.182 C 
ATOM     31  H   UNL     1      29.929 -24.297 -17.206  0.00  0.00    +0.148 HD
ATOM     32  H   UNL     1      28.549 -21.511 -14.560  0.00  0.00    +0.148 HD
ENDBRANCH  25  28
ENDBRANCH   1  25
TORSDOF 6
ENDMDL
