MODEL 1
REMARK VINA RESULT:     -10.8      0.000      0.000
REMARK  Name = 11602832
REMARK  4 active torsions:
REMARK  status: ('A' for Active; 'I' for Inactive)
REMARK    1  A    between atoms: C_8  and  C_24
REMARK    2  A    between atoms: C_10  and  C_18
REMARK    3  A    between atoms: C_24  and  C_25
REMARK    4  A    between atoms: C_25  and  O_26
REMARK                            x       y       z     vdW  Elec       q    Type
REMARK                         _______ _______ _______ _____ _____    ______ ____
ROOT
ATOM      1  O   UNL     1      34.325 -15.825 -26.184  0.00  0.00    -0.270 OA
ATOM      2  O   UNL     1      34.994 -19.790 -23.934  0.00  0.00    -0.270 OA
ATOM      3  N   UNL     1      33.017 -14.171 -21.410  0.00  0.00    -0.284 N 
ATOM      4  N   UNL     1      34.764 -17.976 -25.389  0.00  0.00    -0.248 N 
ATOM      5  C   UNL     1      33.648 -15.285 -23.236  0.00  0.00    +0.016 C 
ATOM      6  C   UNL     1      33.433 -15.406 -21.855  0.00  0.00    +0.051 C 
ATOM      7  C   UNL     1      34.079 -16.436 -23.892  0.00  0.00    +0.059 C 
ATOM      8  C   UNL     1      33.349 -13.947 -23.597  0.00  0.00    -0.003 C 
ATOM      9  C   UNL     1      34.280 -17.630 -23.209  0.00  0.00    +0.058 C 
ATOM     10  C   UNL     1      34.067 -17.746 -21.852  0.00  0.00    +0.007 C 
ATOM     11  C   UNL     1      33.633 -16.613 -21.149  0.00  0.00    +0.015 C 
ATOM     12  C   UNL     1      32.964 -13.285 -22.453  0.00  0.00    +0.061 C 
ATOM     13  C   UNL     1      34.390 -16.656 -25.300  0.00  0.00    +0.252 C 
ATOM     14  C   UNL     1      34.723 -18.630 -24.179  0.00  0.00    +0.252 C 
ATOM     15  C   UNL     1      32.682 -13.842 -20.042  0.00  0.00    +0.117 C 
ATOM     16  H   UNL     1      35.031 -18.410 -26.233  0.00  0.00    +0.158 HD
ENDROOT
BRANCH  10  18
ATOM     17 CL   UNL     1      36.979 -18.658 -21.395  0.00  0.00    -0.082 Cl
ATOM     18  C   UNL     1      34.274 -18.987 -21.137  0.00  0.00    +0.011 C 
ATOM     19  C   UNL     1      35.552 -19.487 -20.878  0.00  0.00    +0.058 C 
ATOM     20  C   UNL     1      33.152 -19.694 -20.698  0.00  0.00    +0.001 C 
ATOM     21  C   UNL     1      35.707 -20.687 -20.184  0.00  0.00    +0.011 C 
ATOM     22  C   UNL     1      33.307 -20.893 -20.005  0.00  0.00    +0.000 C 
ATOM     23  C   UNL     1      34.584 -21.391 -19.748  0.00  0.00    +0.001 C 
ENDBRANCH  10  18
BRANCH   8  24
ATOM     24  C   UNL     1      33.423 -13.334 -24.938  0.00  0.00    +0.059 C 
BRANCH  24  25
ATOM     25  C   UNL     1      33.853 -11.858 -24.915  0.00  0.00    +0.142 C 
BRANCH  25  26
ATOM     26  O   UNL     1      34.407 -11.509 -26.177  0.00  0.00    -0.382 OA
ATOM     27  H   UNL     1      33.699 -11.464 -26.839  0.00  0.00    +0.210 HD
ENDBRANCH  25  26
ENDBRANCH  24  25
ENDBRANCH   8  24
TORSDOF 4
ENDMDL
MODEL 2
REMARK VINA RESULT:      -9.5      8.655     10.985
REMARK  Name = 11602832
REMARK  4 active torsions:
REMARK  status: ('A' for Active; 'I' for Inactive)
REMARK    1  A    between atoms: C_8  and  C_24
REMARK    2  A    between atoms: C_10  and  C_18
REMARK    3  A    between atoms: C_24  and  C_25
REMARK    4  A    between atoms: C_25  and  O_26
REMARK                            x       y       z     vdW  Elec       q    Type
REMARK                         _______ _______ _______ _____ _____    ______ ____
ROOT
ATOM      1  O   UNL     1      32.424 -22.347 -18.350  0.00  0.00    -0.270 OA
ATOM      2  O   UNL     1      36.558 -23.067 -16.449  0.00  0.00    -0.270 OA
ATOM      3  N   UNL     1      30.788 -24.260 -13.778  0.00  0.00    -0.284 N 
ATOM      4  N   UNL     1      34.660 -22.573 -17.719  0.00  0.00    -0.248 N 
ATOM      5  C   UNL     1      31.912 -23.509 -15.553  0.00  0.00    +0.016 C 
ATOM      6  C   UNL     1      32.059 -24.039 -14.262  0.00  0.00    +0.051 C 
ATOM      7  C   UNL     1      33.092 -23.210 -16.230  0.00  0.00    +0.059 C 
ATOM      8  C   UNL     1      30.522 -23.422 -15.820  0.00  0.00    -0.003 C 
ATOM      9  C   UNL     1      34.336 -23.429 -15.651  0.00  0.00    +0.058 C 
ATOM     10  C   UNL     1      34.479 -23.950 -14.383  0.00  0.00    +0.007 C 
ATOM     11  C   UNL     1      33.318 -24.266 -13.663  0.00  0.00    +0.015 C 
ATOM     12  C   UNL     1      29.856 -23.891 -14.710  0.00  0.00    +0.061 C 
ATOM     13  C   UNL     1      33.296 -22.658 -17.564  0.00  0.00    +0.252 C 
ATOM     14  C   UNL     1      35.355 -23.017 -16.617  0.00  0.00    +0.252 C 
ATOM     15  C   UNL     1      30.469 -24.802 -12.475  0.00  0.00    +0.117 C 
ATOM     16  H   UNL     1      35.094 -22.231 -18.534  0.00  0.00    +0.158 HD
ENDROOT
BRANCH  10  18
ATOM     17 CL   UNL     1      36.063 -26.430 -15.309  0.00  0.00    -0.082 Cl
ATOM     18  C   UNL     1      35.772 -24.180 -13.778  0.00  0.00    +0.011 C 
ATOM     19  C   UNL     1      36.569 -25.273 -14.127  0.00  0.00    +0.058 C 
ATOM     20  C   UNL     1      36.225 -23.272 -12.818  0.00  0.00    +0.001 C 
ATOM     21  C   UNL     1      37.810 -25.457 -13.520  0.00  0.00    +0.011 C 
ATOM     22  C   UNL     1      37.466 -23.456 -12.210  0.00  0.00    +0.000 C 
ATOM     23  C   UNL     1      38.259 -24.549 -12.561  0.00  0.00    +0.001 C 
ENDBRANCH  10  18
BRANCH   8  24
ATOM     24  C   UNL     1      29.867 -22.928 -17.047  0.00  0.00    +0.059 C 
BRANCH  24  25
ATOM     25  C   UNL     1      28.338 -22.819 -16.925  0.00  0.00    +0.142 C 
BRANCH  25  26
ATOM     26  O   UNL     1      27.731 -23.883 -17.647  0.00  0.00    -0.382 OA
ATOM     27  H   UNL     1      27.401 -23.550 -18.496  0.00  0.00    +0.210 HD
ENDBRANCH  25  26
ENDBRANCH  24  25
ENDBRANCH   8  24
TORSDOF 4
ENDMDL
MODEL 3
REMARK VINA RESULT:      -9.4      3.808      5.874
REMARK  Name = 11602832
REMARK  4 active torsions:
REMARK  status: ('A' for Active; 'I' for Inactive)
REMARK    1  A    between atoms: C_8  and  C_24
REMARK    2  A    between atoms: C_10  and  C_18
REMARK    3  A    between atoms: C_24  and  C_25
REMARK    4  A    between atoms: C_25  and  O_26
REMARK                            x       y       z     vdW  Elec       q    Type
REMARK                         _______ _______ _______ _____ _____    ______ ____
ROOT
ATOM      1  O   UNL     1      31.117 -10.907 -20.756  0.00  0.00    -0.270 OA
ATOM      2  O   UNL     1      32.198 -15.295 -21.651  0.00  0.00    -0.270 OA
ATOM      3  N   UNL     1      34.392 -10.044 -24.727  0.00  0.00    -0.284 N 
ATOM      4  N   UNL     1      31.426 -13.215 -20.917  0.00  0.00    -0.248 N 
ATOM      5  C   UNL     1      33.092 -10.861 -23.109  0.00  0.00    +0.016 C 
ATOM      6  C   UNL     1      33.980 -11.217 -24.135  0.00  0.00    +0.051 C 
ATOM      7  C   UNL     1      32.551 -11.913 -22.374  0.00  0.00    +0.059 C 
ATOM      8  C   UNL     1      32.988  -9.446 -23.110  0.00  0.00    -0.003 C 
ATOM      9  C   UNL     1      32.880 -13.235 -22.648  0.00  0.00    +0.058 C 
ATOM     10  C   UNL     1      33.754 -13.583 -23.656  0.00  0.00    +0.007 C 
ATOM     11  C   UNL     1      34.323 -12.557 -24.424  0.00  0.00    +0.015 C 
ATOM     12  C   UNL     1      33.799  -8.972 -24.117  0.00  0.00    +0.061 C 
ATOM     13  C   UNL     1      31.613 -11.896 -21.258  0.00  0.00    +0.252 C 
ATOM     14  C   UNL     1      32.152 -14.081 -21.703  0.00  0.00    +0.252 C 
ATOM     15  C   UNL     1      35.315  -9.943 -25.836  0.00  0.00    +0.117 C 
ATOM     16  H   UNL     1      30.835 -13.510 -20.186  0.00  0.00    +0.158 HD
ENDROOT
BRANCH  10  18
ATOM     17 CL   UNL     1      32.724 -14.786 -26.304  0.00  0.00    -0.082 Cl
ATOM     18  C   UNL     1      34.100 -14.958 -23.944  0.00  0.00    +0.011 C 
ATOM     19  C   UNL     1      33.683 -15.596 -25.115  0.00  0.00    +0.058 C 
ATOM     20  C   UNL     1      34.874 -15.655 -23.014  0.00  0.00    +0.001 C 
ATOM     21  C   UNL     1      34.040 -16.923 -25.354  0.00  0.00    +0.011 C 
ATOM     22  C   UNL     1      35.230 -16.982 -23.252  0.00  0.00    +0.000 C 
ATOM     23  C   UNL     1      34.813 -17.616 -24.422  0.00  0.00    +0.001 C 
ENDBRANCH  10  18
BRANCH   8  24
ATOM     24  C   UNL     1      32.175  -8.599 -22.216  0.00  0.00    +0.059 C 
BRANCH  24  25
ATOM     25  C   UNL     1      32.992  -7.916 -21.107  0.00  0.00    +0.142 C 
BRANCH  25  26
ATOM     26  O   UNL     1      32.744  -8.568 -19.869  0.00  0.00    -0.382 OA
ATOM     27  H   UNL     1      31.991  -9.172 -19.967  0.00  0.00    +0.210 HD
ENDBRANCH  25  26
ENDBRANCH  24  25
ENDBRANCH   8  24
TORSDOF 4
ENDMDL
MODEL 4
REMARK VINA RESULT:      -8.9      4.728      9.534
REMARK  Name = 11602832
REMARK  4 active torsions:
REMARK  status: ('A' for Active; 'I' for Inactive)
REMARK    1  A    between atoms: C_8  and  C_24
REMARK    2  A    between atoms: C_10  and  C_18
REMARK    3  A    between atoms: C_24  and  C_25
REMARK    4  A    between atoms: C_25  and  O_26
REMARK                            x       y       z     vdW  Elec       q    Type
REMARK                         _______ _______ _______ _____ _____    ______ ____
ROOT
ATOM      1  O   UNL     1      31.799 -11.914 -19.213  0.00  0.00    -0.270 OA
ATOM      2  O   UNL     1      31.613  -7.624 -20.882  0.00  0.00    -0.270 OA
ATOM      3  N   UNL     1      33.086 -13.008 -24.151  0.00  0.00    -0.284 N 
ATOM      4  N   UNL     1      31.607  -9.638 -19.699  0.00  0.00    -0.248 N 
ATOM      5  C   UNL     1      32.514 -12.102 -22.195  0.00  0.00    +0.016 C 
ATOM      6  C   UNL     1      32.787 -11.811 -23.540  0.00  0.00    +0.051 C 
ATOM      7  C   UNL     1      32.183 -11.015 -21.388  0.00  0.00    +0.059 C 
ATOM      8  C   UNL     1      32.660 -13.502 -22.026  0.00  0.00    -0.003 C 
ATOM      9  C   UNL     1      32.129  -9.723 -21.897  0.00  0.00    +0.058 C 
ATOM     10  C   UNL     1      32.397  -9.439 -23.219  0.00  0.00    +0.007 C 
ATOM     11  C   UNL     1      32.736 -10.502 -24.069  0.00  0.00    +0.015 C 
ATOM     12  C   UNL     1      33.013 -14.033 -23.245  0.00  0.00    +0.061 C 
ATOM     13  C   UNL     1      31.847 -10.965 -19.970  0.00  0.00    +0.252 C 
ATOM     14  C   UNL     1      31.754  -8.829 -20.802  0.00  0.00    +0.252 C 
ATOM     15  C   UNL     1      33.433 -13.175 -25.545  0.00  0.00    +0.117 C 
ATOM     16  H   UNL     1      31.355  -9.302 -18.808  0.00  0.00    +0.158 HD
ENDROOT
BRANCH  10  18
ATOM     17 CL   UNL     1      35.059  -7.902 -23.491  0.00  0.00    -0.082 Cl
ATOM     18  C   UNL     1      32.341  -8.096 -23.752  0.00  0.00    +0.011 C 
ATOM     19  C   UNL     1      33.489  -7.316 -23.915  0.00  0.00    +0.058 C 
ATOM     20  C   UNL     1      31.095  -7.577 -24.110  0.00  0.00    +0.001 C 
ATOM     21  C   UNL     1      33.390  -6.025 -24.434  0.00  0.00    +0.011 C 
ATOM     22  C   UNL     1      30.996  -6.287 -24.629  0.00  0.00    +0.000 C 
ATOM     23  C   UNL     1      32.143  -5.510 -24.790  0.00  0.00    +0.001 C 
ENDBRANCH  10  18
BRANCH   8  24
ATOM     24  C   UNL     1      32.477 -14.287 -20.789  0.00  0.00    +0.059 C 
BRANCH  24  25
ATOM     25  C   UNL     1      33.434 -15.484 -20.674  0.00  0.00    +0.142 C 
BRANCH  25  26
ATOM     26  O   UNL     1      34.731 -15.019 -20.322  0.00  0.00    -0.382 OA
ATOM     27  H   UNL     1      35.109 -14.523 -21.066  0.00  0.00    +0.210 HD
ENDBRANCH  25  26
ENDBRANCH  24  25
ENDBRANCH   8  24
TORSDOF 4
ENDMDL
MODEL 5
REMARK VINA RESULT:      -8.8      6.487      9.723
REMARK  Name = 11602832
REMARK  4 active torsions:
REMARK  status: ('A' for Active; 'I' for Inactive)
REMARK    1  A    between atoms: C_8  and  C_24
REMARK    2  A    between atoms: C_10  and  C_18
REMARK    3  A    between atoms: C_24  and  C_25
REMARK    4  A    between atoms: C_25  and  O_26
REMARK                            x       y       z     vdW  Elec       q    Type
REMARK                         _______ _______ _______ _____ _____    ______ ____
ROOT
ATOM      1  O   UNL     1      36.534 -21.491 -18.948  0.00  0.00    -0.270 OA
ATOM      2  O   UNL     1      38.430 -23.243 -15.133  0.00  0.00    -0.270 OA
ATOM      3  N   UNL     1      32.157 -23.241 -16.709  0.00  0.00    -0.284 N 
ATOM      4  N   UNL     1      37.830 -22.257 -17.164  0.00  0.00    -0.248 N 
ATOM      5  C   UNL     1      34.233 -22.665 -17.285  0.00  0.00    +0.016 C 
ATOM      6  C   UNL     1      33.467 -23.288 -16.289  0.00  0.00    +0.051 C 
ATOM      7  C   UNL     1      35.605 -22.604 -17.055  0.00  0.00    +0.059 C 
ATOM      8  C   UNL     1      33.341 -22.248 -18.307  0.00  0.00    -0.003 C 
ATOM      9  C   UNL     1      36.172 -23.134 -15.902  0.00  0.00    +0.058 C 
ATOM     10  C   UNL     1      35.418 -23.746 -14.924  0.00  0.00    +0.007 C 
ATOM     11  C   UNL     1      34.031 -23.830 -15.112  0.00  0.00    +0.015 C 
ATOM     12  C   UNL     1      32.071 -22.615 -17.924  0.00  0.00    +0.061 C 
ATOM     13  C   UNL     1      36.672 -22.037 -17.872  0.00  0.00    +0.252 C 
ATOM     14  C   UNL     1      37.616 -22.910 -15.972  0.00  0.00    +0.252 C 
ATOM     15  C   UNL     1      31.023 -23.769 -15.983  0.00  0.00    +0.117 C 
ATOM     16  H   UNL     1      38.721 -21.977 -17.478  0.00  0.00    +0.158 HD
ENDROOT
BRANCH  10  18
ATOM     17 CL   UNL     1      36.662 -26.563 -15.114  0.00  0.00    -0.082 Cl
ATOM     18  C   UNL     1      36.005 -24.300 -13.723  0.00  0.00    +0.011 C 
ATOM     19  C   UNL     1      36.593 -25.567 -13.703  0.00  0.00    +0.058 C 
ATOM     20  C   UNL     1      35.974 -23.532 -12.557  0.00  0.00    +0.001 C 
ATOM     21  C   UNL     1      37.148 -26.062 -12.524  0.00  0.00    +0.011 C 
ATOM     22  C   UNL     1      36.529 -24.028 -11.377  0.00  0.00    +0.000 C 
ATOM     23  C   UNL     1      37.115 -25.293 -11.360  0.00  0.00    +0.001 C 
ENDBRANCH  10  18
BRANCH   8  24
ATOM     24  C   UNL     1      33.672 -21.547 -19.563  0.00  0.00    +0.059 C 
BRANCH  24  25
ATOM     25  C   UNL     1      32.696 -20.409 -19.906  0.00  0.00    +0.142 C 
BRANCH  25  26
ATOM     26  O   UNL     1      33.178 -19.700 -21.040  0.00  0.00    -0.382 OA
ATOM     27  H   UNL     1      34.062 -20.025 -21.272  0.00  0.00    +0.210 HD
ENDBRANCH  25  26
ENDBRANCH  24  25
ENDBRANCH   8  24
TORSDOF 4
ENDMDL
MODEL 6
REMARK VINA RESULT:      -8.6      4.482      6.859
REMARK  Name = 11602832
REMARK  4 active torsions:
REMARK  status: ('A' for Active; 'I' for Inactive)
REMARK    1  A    between atoms: C_8  and  C_24
REMARK    2  A    between atoms: C_10  and  C_18
REMARK    3  A    between atoms: C_24  and  C_25
REMARK    4  A    between atoms: C_25  and  O_26
REMARK                            x       y       z     vdW  Elec       q    Type
REMARK                         _______ _______ _______ _____ _____    ______ ____
ROOT
ATOM      1  O   UNL     1      34.710  -7.554 -24.099  0.00  0.00    -0.270 OA
ATOM      2  O   UNL     1      35.118 -11.653 -26.161  0.00  0.00    -0.270 OA
ATOM      3  N   UNL     1      31.523 -10.252 -20.969  0.00  0.00    -0.284 N 
ATOM      4  N   UNL     1      35.156  -9.449 -25.387  0.00  0.00    -0.248 N 
ATOM      5  C   UNL     1      32.937  -9.507 -22.525  0.00  0.00    +0.016 C 
ATOM      6  C   UNL     1      32.257 -10.645 -22.066  0.00  0.00    +0.051 C 
ATOM      7  C   UNL     1      33.747  -9.687 -23.643  0.00  0.00    +0.059 C 
ATOM      8  C   UNL     1      32.587  -8.430 -21.670  0.00  0.00    -0.003 C 
ATOM      9  C   UNL     1      33.867 -10.926 -24.262  0.00  0.00    +0.058 C 
ATOM     10  C   UNL     1      33.197 -12.043 -23.809  0.00  0.00    +0.007 C 
ATOM     11  C   UNL     1      32.370 -11.910 -22.685  0.00  0.00    +0.015 C 
ATOM     12  C   UNL     1      31.717  -8.919 -20.722  0.00  0.00    +0.061 C 
ATOM     13  C   UNL     1      34.578  -8.731 -24.367  0.00  0.00    +0.252 C 
ATOM     14  C   UNL     1      34.780 -10.773 -25.394  0.00  0.00    +0.252 C 
ATOM     15  C   UNL     1      30.669 -11.112 -20.179  0.00  0.00    +0.117 C 
ATOM     16  H   UNL     1      35.774  -9.056 -26.046  0.00  0.00    +0.158 HD
ENDROOT
BRANCH  10  18
ATOM     17 CL   UNL     1      34.580 -14.298 -22.221  0.00  0.00    -0.082 Cl
ATOM     18  C   UNL     1      33.318 -13.334 -24.450  0.00  0.00    +0.011 C 
ATOM     19  C   UNL     1      33.928 -14.420 -23.818  0.00  0.00    +0.058 C 
ATOM     20  C   UNL     1      32.805 -13.483 -25.741  0.00  0.00    +0.001 C 
ATOM     21  C   UNL     1      34.023 -15.648 -24.472  0.00  0.00    +0.011 C 
ATOM     22  C   UNL     1      32.901 -14.711 -26.395  0.00  0.00    +0.000 C 
ATOM     23  C   UNL     1      33.510 -15.794 -25.761  0.00  0.00    +0.001 C 
ENDBRANCH  10  18
BRANCH   8  24
ATOM     24  C   UNL     1      33.047  -7.030 -21.747  0.00  0.00    +0.059 C 
BRANCH  24  25
ATOM     25  C   UNL     1      31.966  -6.055 -22.240  0.00  0.00    +0.142 C 
BRANCH  25  26
ATOM     26  O   UNL     1      31.343  -5.437 -21.121  0.00  0.00    -0.382 OA
ATOM     27  H   UNL     1      31.016  -4.560 -21.377  0.00  0.00    +0.210 HD
ENDBRANCH  25  26
ENDBRANCH  24  25
ENDBRANCH   8  24
TORSDOF 4
ENDMDL
MODEL 7
REMARK VINA RESULT:      -8.4      5.053      8.883
REMARK  Name = 11602832
REMARK  4 active torsions:
REMARK  status: ('A' for Active; 'I' for Inactive)
REMARK    1  A    between atoms: C_8  and  C_24
REMARK    2  A    between atoms: C_10  and  C_18
REMARK    3  A    between atoms: C_24  and  C_25
REMARK    4  A    between atoms: C_25  and  O_26
REMARK                            x       y       z     vdW  Elec       q    Type
REMARK                         _______ _______ _______ _____ _____    ______ ____
ROOT
ATOM      1  O   UNL     1      31.915 -14.246 -22.027  0.00  0.00    -0.270 OA
ATOM      2  O   UNL     1      30.901 -10.170 -20.133  0.00  0.00    -0.270 OA
ATOM      3  N   UNL     1      34.519 -11.223 -25.391  0.00  0.00    -0.284 N 
ATOM      4  N   UNL     1      31.202 -12.386 -20.808  0.00  0.00    -0.248 N 
ATOM      5  C   UNL     1      33.296 -12.110 -23.751  0.00  0.00    +0.016 C 
ATOM      6  C   UNL     1      33.766 -10.901 -24.283  0.00  0.00    +0.051 C 
ATOM      7  C   UNL     1      32.502 -12.009 -22.610  0.00  0.00    +0.059 C 
ATOM      8  C   UNL     1      33.790 -13.156 -24.571  0.00  0.00    -0.003 C 
ATOM      9  C   UNL     1      32.199 -10.777 -22.043  0.00  0.00    +0.058 C 
ATOM     10  C   UNL     1      32.662  -9.590 -22.568  0.00  0.00    +0.007 C 
ATOM     11  C   UNL     1      33.466  -9.642 -23.716  0.00  0.00    +0.015 C 
ATOM     12  C   UNL     1      34.539 -12.580 -25.572  0.00  0.00    +0.061 C 
ATOM     13  C   UNL     1      31.860 -13.050 -21.816  0.00  0.00    +0.252 C 
ATOM     14  C   UNL     1      31.355 -11.021 -20.874  0.00  0.00    +0.252 C 
ATOM     15  C   UNL     1      35.198 -10.276 -26.248  0.00  0.00    +0.117 C 
ATOM     16  H   UNL     1      30.674 -12.842 -20.111  0.00  0.00    +0.158 HD
ENDROOT
BRANCH  10  18
ATOM     17 CL   UNL     1      30.678  -7.778 -24.083  0.00  0.00    -0.082 Cl
ATOM     18  C   UNL     1      32.349  -8.306 -21.981  0.00  0.00    +0.011 C 
ATOM     19  C   UNL     1      31.463  -7.411 -22.587  0.00  0.00    +0.058 C 
ATOM     20  C   UNL     1      32.958  -7.964 -20.772  0.00  0.00    +0.001 C 
ATOM     21  C   UNL     1      31.188  -6.183 -21.987  0.00  0.00    +0.011 C 
ATOM     22  C   UNL     1      32.683  -6.736 -20.171  0.00  0.00    +0.000 C 
ATOM     23  C   UNL     1      31.798  -5.845 -20.778  0.00  0.00    +0.001 C 
ENDBRANCH  10  18
BRANCH   8  24
ATOM     24  C   UNL     1      33.566 -14.607 -24.418  0.00  0.00    +0.059 C 
BRANCH  24  25
ATOM     25  C   UNL     1      33.359 -15.341 -25.753  0.00  0.00    +0.142 C 
BRANCH  25  26
ATOM     26  O   UNL     1      34.369 -16.329 -25.910  0.00  0.00    -0.382 OA
ATOM     27  H   UNL     1      35.087 -16.160 -25.279  0.00  0.00    +0.210 HD
ENDBRANCH  25  26
ENDBRANCH  24  25
ENDBRANCH   8  24
TORSDOF 4
ENDMDL
MODEL 8
REMARK VINA RESULT:      -8.4      2.972      7.064
REMARK  Name = 11602832
REMARK  4 active torsions:
REMARK  status: ('A' for Active; 'I' for Inactive)
REMARK    1  A    between atoms: C_8  and  C_24
REMARK    2  A    between atoms: C_10  and  C_18
REMARK    3  A    between atoms: C_24  and  C_25
REMARK    4  A    between atoms: C_25  and  O_26
REMARK                            x       y       z     vdW  Elec       q    Type
REMARK                         _______ _______ _______ _____ _____    ______ ____
ROOT
ATOM      1  O   UNL     1      33.457 -16.239 -26.659  0.00  0.00    -0.270 OA
ATOM      2  O   UNL     1      32.982 -11.661 -26.447  0.00  0.00    -0.270 OA
ATOM      3  N   UNL     1      34.516 -15.642 -21.584  0.00  0.00    -0.284 N 
ATOM      4  N   UNL     1      33.136 -13.942 -26.929  0.00  0.00    -0.248 N 
ATOM      5  C   UNL     1      34.011 -15.434 -23.747  0.00  0.00    +0.016 C 
ATOM      6  C   UNL     1      34.194 -14.719 -22.554  0.00  0.00    +0.051 C 
ATOM      7  C   UNL     1      33.675 -14.680 -24.868  0.00  0.00    +0.059 C 
ATOM      8  C   UNL     1      34.233 -16.805 -23.457  0.00  0.00    -0.003 C 
ATOM      9  C   UNL     1      33.533 -13.299 -24.799  0.00  0.00    +0.058 C 
ATOM     10  C   UNL     1      33.714 -12.598 -23.626  0.00  0.00    +0.007 C 
ATOM     11  C   UNL     1      34.052 -13.316 -22.470  0.00  0.00    +0.015 C 
ATOM     12  C   UNL     1      34.541 -16.902 -22.120  0.00  0.00    +0.061 C 
ATOM     13  C   UNL     1      33.420 -15.099 -26.241  0.00  0.00    +0.252 C 
ATOM     14  C   UNL     1      33.184 -12.819 -26.135  0.00  0.00    +0.252 C 
ATOM     15  C   UNL     1      34.789 -15.340 -20.196  0.00  0.00    +0.117 C 
ATOM     16  H   UNL     1      32.921 -13.920 -27.890  0.00  0.00    +0.158 HD
ENDROOT
BRANCH  10  18
ATOM     17 CL   UNL     1      31.195 -11.495 -22.226  0.00  0.00    -0.082 Cl
ATOM     18  C   UNL     1      33.567 -11.161 -23.549  0.00  0.00    +0.011 C 
ATOM     19  C   UNL     1      32.464 -10.561 -22.937  0.00  0.00    +0.058 C 
ATOM     20  C   UNL     1      34.567 -10.362 -24.109  0.00  0.00    +0.001 C 
ATOM     21  C   UNL     1      32.363  -9.171 -22.884  0.00  0.00    +0.011 C 
ATOM     22  C   UNL     1      34.466  -8.973 -24.057  0.00  0.00    +0.000 C 
ATOM     23  C   UNL     1      33.364  -8.377 -23.445  0.00  0.00    +0.001 C 
ENDBRANCH  10  18
BRANCH   8  24
ATOM     24  C   UNL     1      34.159 -17.948 -24.388  0.00  0.00    +0.059 C 
BRANCH  24  25
ATOM     25  C   UNL     1      34.907 -19.195 -23.889  0.00  0.00    +0.142 C 
BRANCH  25  26
ATOM     26  O   UNL     1      34.918 -20.180 -24.914  0.00  0.00    -0.382 OA
ATOM     27  H   UNL     1      34.264 -19.948 -25.592  0.00  0.00    +0.210 HD
ENDBRANCH  25  26
ENDBRANCH  24  25
ENDBRANCH   8  24
TORSDOF 4
ENDMDL
MODEL 9
REMARK VINA RESULT:      -8.3      4.391      9.138
REMARK  Name = 11602832
REMARK  4 active torsions:
REMARK  status: ('A' for Active; 'I' for Inactive)
REMARK    1  A    between atoms: C_8  and  C_24
REMARK    2  A    between atoms: C_10  and  C_18
REMARK    3  A    between atoms: C_24  and  C_25
REMARK    4  A    between atoms: C_25  and  O_26
REMARK                            x       y       z     vdW  Elec       q    Type
REMARK                         _______ _______ _______ _____ _____    ______ ____
ROOT
ATOM      1  O   UNL     1      32.025 -13.145 -20.111  0.00  0.00    -0.270 OA
ATOM      2  O   UNL     1      31.505  -8.620 -20.804  0.00  0.00    -0.270 OA
ATOM      3  N   UNL     1      33.449 -13.019 -25.130  0.00  0.00    -0.284 N 
ATOM      4  N   UNL     1      31.652 -10.840 -20.092  0.00  0.00    -0.248 N 
ATOM      5  C   UNL     1      32.784 -12.614 -23.040  0.00  0.00    +0.016 C 
ATOM      6  C   UNL     1      33.046 -12.013 -24.280  0.00  0.00    +0.051 C 
ATOM      7  C   UNL     1      32.357 -11.761 -22.025  0.00  0.00    +0.059 C 
ATOM      8  C   UNL     1      33.043 -14.001 -23.178  0.00  0.00    -0.003 C 
ATOM      9  C   UNL     1      32.202 -10.397 -22.239  0.00  0.00    +0.058 C 
ATOM     10  C   UNL     1      32.459  -9.808 -23.459  0.00  0.00    +0.007 C 
ATOM     11  C   UNL     1      32.893 -10.628 -24.511  0.00  0.00    +0.015 C 
ATOM     12  C   UNL     1      33.451 -14.221 -24.474  0.00  0.00    +0.061 C 
ATOM     13  C   UNL     1      32.004 -12.052 -20.640  0.00  0.00    +0.252 C 
ATOM     14  C   UNL     1      31.744  -9.799 -20.986  0.00  0.00    +0.252 C 
ATOM     15  C   UNL     1      33.822 -12.846 -26.517  0.00  0.00    +0.117 C 
ATOM     16  H   UNL     1      31.364 -10.730 -19.156  0.00  0.00    +0.158 HD
ENDROOT
BRANCH  10  18
ATOM     17 CL   UNL     1      35.015  -8.082 -23.554  0.00  0.00    -0.082 Cl
ATOM     18  C   UNL     1      32.298  -8.389 -23.686  0.00  0.00    +0.011 C 
ATOM     19  C   UNL     1      33.391  -7.521 -23.747  0.00  0.00    +0.058 C 
ATOM     20  C   UNL     1      31.005  -7.887 -23.848  0.00  0.00    +0.001 C 
ATOM     21  C   UNL     1      33.191  -6.159 -23.969  0.00  0.00    +0.011 C 
ATOM     22  C   UNL     1      30.805  -6.525 -24.070  0.00  0.00    +0.000 C 
ATOM     23  C   UNL     1      31.898  -5.660 -24.130  0.00  0.00    +0.001 C 
ENDBRANCH  10  18
BRANCH   8  24
ATOM     24  C   UNL     1      32.913 -15.051 -22.149  0.00  0.00    +0.059 C 
BRANCH  24  25
ATOM     25  C   UNL     1      34.232 -15.370 -21.426  0.00  0.00    +0.142 C 
BRANCH  25  26
ATOM     26  O   UNL     1      34.886 -16.443 -22.091  0.00  0.00    -0.382 OA
ATOM     27  H   UNL     1      34.222 -17.048 -22.459  0.00  0.00    +0.210 HD
ENDBRANCH  25  26
ENDBRANCH  24  25
ENDBRANCH   8  24
TORSDOF 4
ENDMDL
