MODEL 1
REMARK VINA RESULT:      -8.1      0.000      0.000
REMARK  Name = 15664
REMARK  1 active torsions:
REMARK  status: ('A' for Active; 'I' for Inactive)
REMARK    1  A    between atoms: C_2  and  C_9
REMARK                            x       y       z     vdW  Elec       q    Type
REMARK                         _______ _______ _______ _____ _____    ______ ____
ROOT
ATOM      1  N   UNL     1      34.557 -16.869 -23.148  0.00  0.00    -0.243 NA
ATOM      2  C   UNL     1      34.562 -16.911 -21.796  0.00  0.00    +0.099 C 
ATOM      3  C   UNL     1      34.184 -14.485 -22.988  0.00  0.00    -0.003 C 
ATOM      4  C   UNL     1      34.386 -15.802 -20.985  0.00  0.00    +0.020 C 
ATOM      5  C   UNL     1      34.194 -14.569 -21.600  0.00  0.00    -0.001 C 
ATOM      6  C   UNL     1      34.367 -15.654 -23.710  0.00  0.00    +0.095 C 
ATOM      7  C   UNL     1      33.980 -13.183 -23.676  0.00  0.00    +0.033 C 
ENDROOT
BRANCH   2   9
ATOM      8  N   UNL     1      36.052 -18.527 -20.943  0.00  0.00    -0.243 NA
ATOM      9  C   UNL     1      34.766 -18.223 -21.227  0.00  0.00    +0.099 C 
ATOM     10  C   UNL     1      35.279 -20.676 -20.148  0.00  0.00    -0.003 C 
ATOM     11  C   UNL     1      33.699 -19.078 -21.004  0.00  0.00    +0.020 C 
ATOM     12  C   UNL     1      33.968 -20.326 -20.453  0.00  0.00    -0.001 C 
ATOM     13  C   UNL     1      36.276 -19.749 -20.410  0.00  0.00    +0.095 C 
ATOM     14  C   UNL     1      35.600 -22.003 -19.558  0.00  0.00    +0.033 C 
ENDBRANCH   2   9
TORSDOF 1
ENDMDL
MODEL 2
REMARK VINA RESULT:      -8.1      0.036      5.781
REMARK  Name = 15664
REMARK  1 active torsions:
REMARK  status: ('A' for Active; 'I' for Inactive)
REMARK    1  A    between atoms: C_2  and  C_9
REMARK                            x       y       z     vdW  Elec       q    Type
REMARK                         _______ _______ _______ _____ _____    ______ ____
ROOT
ATOM      1  N   UNL     1      36.020 -18.536 -20.936  0.00  0.00    -0.243 NA
ATOM      2  C   UNL     1      34.734 -18.227 -21.218  0.00  0.00    +0.099 C 
ATOM      3  C   UNL     1      35.242 -20.686 -20.149  0.00  0.00    -0.003 C 
ATOM      4  C   UNL     1      33.665 -19.080 -20.997  0.00  0.00    +0.020 C 
ATOM      5  C   UNL     1      33.932 -20.332 -20.452  0.00  0.00    -0.001 C 
ATOM      6  C   UNL     1      36.241 -19.760 -20.408  0.00  0.00    +0.095 C 
ATOM      7  C   UNL     1      35.561 -22.016 -19.565  0.00  0.00    +0.033 C 
ENDROOT
BRANCH   2   9
ATOM      8  N   UNL     1      34.527 -16.865 -23.132  0.00  0.00    -0.243 NA
ATOM      9  C   UNL     1      34.532 -16.912 -21.780  0.00  0.00    +0.099 C 
ATOM     10  C   UNL     1      34.159 -14.481 -22.961  0.00  0.00    -0.003 C 
ATOM     11  C   UNL     1      34.360 -15.806 -20.964  0.00  0.00    +0.020 C 
ATOM     12  C   UNL     1      34.170 -14.571 -21.574  0.00  0.00    -0.001 C 
ATOM     13  C   UNL     1      34.339 -15.647 -23.688  0.00  0.00    +0.095 C 
ATOM     14  C   UNL     1      33.957 -13.175 -23.644  0.00  0.00    +0.033 C 
ENDBRANCH   2   9
TORSDOF 1
ENDMDL
MODEL 3
REMARK VINA RESULT:      -8.0      0.835      1.320
REMARK  Name = 15664
REMARK  1 active torsions:
REMARK  status: ('A' for Active; 'I' for Inactive)
REMARK    1  A    between atoms: C_2  and  C_9
REMARK                            x       y       z     vdW  Elec       q    Type
REMARK                         _______ _______ _______ _____ _____    ______ ____
ROOT
ATOM      1  N   UNL     1      33.761 -16.292 -21.140  0.00  0.00    -0.243 NA
ATOM      2  C   UNL     1      34.406 -17.243 -21.852  0.00  0.00    +0.099 C 
ATOM      3  C   UNL     1      34.146 -14.773 -22.982  0.00  0.00    -0.003 C 
ATOM      4  C   UNL     1      34.941 -17.040 -23.114  0.00  0.00    +0.020 C 
ATOM      5  C   UNL     1      34.804 -15.777 -23.683  0.00  0.00    -0.001 C 
ATOM      6  C   UNL     1      33.648 -15.078 -21.725  0.00  0.00    +0.095 C 
ATOM      7  C   UNL     1      33.984 -13.413 -23.562  0.00  0.00    +0.033 C 
ENDROOT
BRANCH   2   9
ATOM      8  N   UNL     1      35.773 -18.925 -20.922  0.00  0.00    -0.243 NA
ATOM      9  C   UNL     1      34.511 -18.527 -21.199  0.00  0.00    +0.099 C 
ATOM     10  C   UNL     1      34.837 -20.938 -19.964  0.00  0.00    -0.003 C 
ATOM     11  C   UNL     1      33.380 -19.267 -20.894  0.00  0.00    +0.020 C 
ATOM     12  C   UNL     1      33.555 -20.494 -20.265  0.00  0.00    -0.001 C 
ATOM     13  C   UNL     1      35.904 -20.123 -20.310  0.00  0.00    +0.095 C 
ATOM     14  C   UNL     1      35.058 -22.246 -19.290  0.00  0.00    +0.033 C 
ENDBRANCH   2   9
TORSDOF 1
ENDMDL
MODEL 4
REMARK VINA RESULT:      -7.9      1.757      6.011
REMARK  Name = 15664
REMARK  1 active torsions:
REMARK  status: ('A' for Active; 'I' for Inactive)
REMARK    1  A    between atoms: C_2  and  C_9
REMARK                            x       y       z     vdW  Elec       q    Type
REMARK                         _______ _______ _______ _____ _____    ______ ____
ROOT
ATOM      1  N   UNL     1      33.164 -20.348 -20.348  0.00  0.00    -0.243 NA
ATOM      2  C   UNL     1      34.432 -20.067 -20.724  0.00  0.00    +0.099 C 
ATOM      3  C   UNL     1      34.066 -22.054 -18.891  0.00  0.00    -0.003 C 
ATOM      4  C   UNL     1      35.550 -20.723 -20.237  0.00  0.00    +0.020 C 
ATOM      5  C   UNL     1      35.355 -21.735 -19.303  0.00  0.00    -0.001 C 
ATOM      6  C   UNL     1      33.014 -21.338 -19.439  0.00  0.00    +0.095 C 
ATOM      7  C   UNL     1      33.824 -23.132 -17.894  0.00  0.00    +0.033 C 
ENDROOT
BRANCH   2   9
ATOM      8  N   UNL     1      34.394 -17.757 -21.202  0.00  0.00    -0.243 NA
ATOM      9  C   UNL     1      34.557 -19.006 -21.696  0.00  0.00    +0.099 C 
ATOM     10  C   UNL     1      34.772 -16.916 -23.438  0.00  0.00    -0.003 C 
ATOM     11  C   UNL     1      34.826 -19.285 -23.027  0.00  0.00    +0.020 C 
ATOM     12  C   UNL     1      34.934 -18.215 -23.908  0.00  0.00    -0.001 C 
ATOM     13  C   UNL     1      34.506 -16.742 -22.089  0.00  0.00    +0.095 C 
ATOM     14  C   UNL     1      34.882 -15.750 -24.354  0.00  0.00    +0.033 C 
ENDBRANCH   2   9
TORSDOF 1
ENDMDL
MODEL 5
REMARK VINA RESULT:      -7.8      1.886      2.733
REMARK  Name = 15664
REMARK  1 active torsions:
REMARK  status: ('A' for Active; 'I' for Inactive)
REMARK    1  A    between atoms: C_2  and  C_9
REMARK                            x       y       z     vdW  Elec       q    Type
REMARK                         _______ _______ _______ _____ _____    ______ ____
ROOT
ATOM      1  N   UNL     1      34.665 -19.550 -23.100  0.00  0.00    -0.243 NA
ATOM      2  C   UNL     1      34.577 -19.065 -21.840  0.00  0.00    +0.099 C 
ATOM      3  C   UNL     1      34.771 -17.263 -23.880  0.00  0.00    -0.003 C 
ATOM      4  C   UNL     1      34.578 -17.716 -21.525  0.00  0.00    +0.020 C 
ATOM      5  C   UNL     1      34.678 -16.804 -22.571  0.00  0.00    -0.001 C 
ATOM      6  C   UNL     1      34.760 -18.634 -24.089  0.00  0.00    +0.095 C 
ATOM      7  C   UNL     1      34.877 -16.314 -25.020  0.00  0.00    +0.033 C 
ENDROOT
BRANCH   2   9
ATOM      8  N   UNL     1      33.215 -20.364 -20.419  0.00  0.00    -0.243 NA
ATOM      9  C   UNL     1      34.476 -20.070 -20.807  0.00  0.00    +0.099 C 
ATOM     10  C   UNL     1      34.157 -21.954 -18.860  0.00  0.00    -0.003 C 
ATOM     11  C   UNL     1      35.610 -20.665 -20.278  0.00  0.00    +0.020 C 
ATOM     12  C   UNL     1      35.439 -21.625 -19.286  0.00  0.00    -0.001 C 
ATOM     13  C   UNL     1      33.088 -21.301 -19.453  0.00  0.00    +0.095 C 
ATOM     14  C   UNL     1      33.940 -22.977 -17.802  0.00  0.00    +0.033 C 
ENDBRANCH   2   9
TORSDOF 1
ENDMDL
MODEL 6
REMARK VINA RESULT:      -7.5      1.825      6.188
REMARK  Name = 15664
REMARK  1 active torsions:
REMARK  status: ('A' for Active; 'I' for Inactive)
REMARK    1  A    between atoms: C_2  and  C_9
REMARK                            x       y       z     vdW  Elec       q    Type
REMARK                         _______ _______ _______ _____ _____    ______ ____
ROOT
ATOM      1  N   UNL     1      34.604 -18.105 -23.765  0.00  0.00    -0.243 NA
ATOM      2  C   UNL     1      34.487 -16.858 -23.255  0.00  0.00    +0.099 C 
ATOM      3  C   UNL     1      35.330 -18.838 -21.578  0.00  0.00    -0.003 C 
ATOM      4  C   UNL     1      34.768 -16.527 -21.940  0.00  0.00    +0.020 C 
ATOM      5  C   UNL     1      35.198 -17.542 -21.091  0.00  0.00    -0.001 C 
ATOM      6  C   UNL     1      35.024 -19.065 -22.911  0.00  0.00    +0.095 C 
ATOM      7  C   UNL     1      35.787 -19.945 -20.697  0.00  0.00    +0.033 C 
ENDROOT
BRANCH   2   9
ATOM      8  N   UNL     1      33.808 -16.311 -25.447  0.00  0.00    -0.243 NA
ATOM      9  C   UNL     1      34.037 -15.856 -24.194  0.00  0.00    +0.099 C 
ATOM     10  C   UNL     1      33.182 -14.056 -26.058  0.00  0.00    -0.003 C 
ATOM     11  C   UNL     1      33.863 -14.538 -23.802  0.00  0.00    +0.020 C 
ATOM     12  C   UNL     1      33.427 -13.627 -24.758  0.00  0.00    -0.001 C 
ATOM     13  C   UNL     1      33.385 -15.396 -26.348  0.00  0.00    +0.095 C 
ATOM     14  C   UNL     1      32.714 -13.107 -27.103  0.00  0.00    +0.033 C 
ENDBRANCH   2   9
TORSDOF 1
ENDMDL
MODEL 7
REMARK VINA RESULT:      -7.5      4.085      5.639
REMARK  Name = 15664
REMARK  1 active torsions:
REMARK  status: ('A' for Active; 'I' for Inactive)
REMARK    1  A    between atoms: C_2  and  C_9
REMARK                            x       y       z     vdW  Elec       q    Type
REMARK                         _______ _______ _______ _____ _____    ______ ____
ROOT
ATOM      1  N   UNL     1      32.295 -12.434 -22.645  0.00  0.00    -0.243 NA
ATOM      2  C   UNL     1      33.240 -12.534 -23.607  0.00  0.00    +0.099 C 
ATOM      3  C   UNL     1      32.425 -10.031 -22.887  0.00  0.00    -0.003 C 
ATOM      4  C   UNL     1      33.817 -11.448 -24.245  0.00  0.00    +0.020 C 
ATOM      5  C   UNL     1      33.396 -10.175 -23.873  0.00  0.00    -0.001 C 
ATOM      6  C   UNL     1      31.912 -11.181 -22.309  0.00  0.00    +0.095 C 
ATOM      7  C   UNL     1      31.955  -8.685 -22.466  0.00  0.00    +0.033 C 
ENDROOT
BRANCH   2   9
ATOM      8  N   UNL     1      33.198 -14.319 -25.148  0.00  0.00    -0.243 NA
ATOM      9  C   UNL     1      33.628 -13.884 -23.942  0.00  0.00    +0.099 C 
ATOM     10  C   UNL     1      34.298 -16.422 -24.687  0.00  0.00    -0.003 C 
ATOM     11  C   UNL     1      34.385 -14.647 -23.067  0.00  0.00    +0.020 C 
ATOM     12  C   UNL     1      34.723 -15.939 -23.454  0.00  0.00    -0.001 C 
ATOM     13  C   UNL     1      33.546 -15.580 -25.490  0.00  0.00    +0.095 C 
ATOM     14  C   UNL     1      34.644 -17.799 -25.131  0.00  0.00    +0.033 C 
ENDBRANCH   2   9
TORSDOF 1
ENDMDL
MODEL 8
REMARK VINA RESULT:      -7.5      4.053      7.405
REMARK  Name = 15664
REMARK  1 active torsions:
REMARK  status: ('A' for Active; 'I' for Inactive)
REMARK    1  A    between atoms: C_2  and  C_9
REMARK                            x       y       z     vdW  Elec       q    Type
REMARK                         _______ _______ _______ _____ _____    ______ ____
ROOT
ATOM      1  N   UNL     1      33.184 -14.360 -25.094  0.00  0.00    -0.243 NA
ATOM      2  C   UNL     1      33.626 -13.918 -23.895  0.00  0.00    +0.099 C 
ATOM      3  C   UNL     1      34.324 -16.445 -24.649  0.00  0.00    -0.003 C 
ATOM      4  C   UNL     1      34.408 -14.667 -23.031  0.00  0.00    +0.020 C 
ATOM      5  C   UNL     1      34.760 -15.955 -23.423  0.00  0.00    -0.001 C 
ATOM      6  C   UNL     1      33.546 -15.615 -25.441  0.00  0.00    +0.095 C 
ATOM      7  C   UNL     1      34.683 -17.817 -25.097  0.00  0.00    +0.033 C 
ENDROOT
BRANCH   2   9
ATOM      8  N   UNL     1      32.245 -12.489 -22.625  0.00  0.00    -0.243 NA
ATOM      9  C   UNL     1      33.223 -12.573 -23.555  0.00  0.00    +0.099 C 
ATOM     10  C   UNL     1      32.376 -10.083 -22.829  0.00  0.00    -0.003 C 
ATOM     11  C   UNL     1      33.817 -11.476 -24.158  0.00  0.00    +0.020 C 
ATOM     12  C   UNL     1      33.380 -10.210 -23.783  0.00  0.00    -0.001 C 
ATOM     13  C   UNL     1      31.846 -11.242 -22.285  0.00  0.00    +0.095 C 
ATOM     14  C   UNL     1      31.887  -8.743 -22.406  0.00  0.00    +0.033 C 
ENDBRANCH   2   9
TORSDOF 1
ENDMDL
MODEL 9
REMARK VINA RESULT:      -7.4      3.568      6.133
REMARK  Name = 15664
REMARK  1 active torsions:
REMARK  status: ('A' for Active; 'I' for Inactive)
REMARK    1  A    between atoms: C_2  and  C_9
REMARK                            x       y       z     vdW  Elec       q    Type
REMARK                         _______ _______ _______ _____ _____    ______ ____
ROOT
ATOM      1  N   UNL     1      36.414 -20.860 -19.195  0.00  0.00    -0.243 NA
ATOM      2  C   UNL     1      35.444 -21.579 -18.587  0.00  0.00    +0.099 C 
ATOM      3  C   UNL     1      34.768 -20.184 -20.832  0.00  0.00    -0.003 C 
ATOM      4  C   UNL     1      34.135 -21.651 -19.033  0.00  0.00    +0.020 C 
ATOM      5  C   UNL     1      33.798 -20.937 -20.179  0.00  0.00    -0.001 C 
ATOM      6  C   UNL     1      36.050 -20.179 -20.305  0.00  0.00    +0.095 C 
ATOM      7  C   UNL     1      34.440 -19.410 -22.059  0.00  0.00    +0.033 C 
ENDROOT
BRANCH   2   9
ATOM      8  N   UNL     1      34.938 -23.128 -16.881  0.00  0.00    -0.243 NA
ATOM      9  C   UNL     1      35.866 -22.295 -17.405  0.00  0.00    +0.099 C 
ATOM     10  C   UNL     1      36.547 -23.703 -15.169  0.00  0.00    -0.003 C 
ATOM     11  C   UNL     1      37.135 -22.115 -16.877  0.00  0.00    +0.020 C 
ATOM     12  C   UNL     1      37.474 -22.837 -15.738  0.00  0.00    -0.001 C 
ATOM     13  C   UNL     1      35.304 -23.812 -15.774  0.00  0.00    +0.095 C 
ATOM     14  C   UNL     1      36.879 -24.490 -13.951  0.00  0.00    +0.033 C 
ENDBRANCH   2   9
TORSDOF 1
ENDMDL
