MODEL 1
REMARK VINA RESULT:      -7.7      0.000      0.000
REMARK  Name = 4284847
REMARK  4 active torsions:
REMARK  status: ('A' for Active; 'I' for Inactive)
REMARK    1  A    between atoms: N_3  and  C_6
REMARK    2  A    between atoms: C_5  and  C_13
REMARK    3  A    between atoms: C_13  and  C_14
REMARK    4  A    between atoms: C_14  and  C_17
REMARK                            x       y       z     vdW  Elec       q    Type
REMARK                         _______ _______ _______ _____ _____    ______ ____
ROOT
ATOM      1  O   UNL     1      35.014 -16.240 -20.635  0.00  0.00    -0.275 OA
ATOM      2  N   UNL     1      34.661 -18.017 -22.128  0.00  0.00    -0.287 N 
ATOM      3  C   UNL     1      34.923 -16.698 -21.769  0.00  0.00    +0.224 C 
ATOM      4  H   UNL     1      34.615 -18.205 -23.093  0.00  0.00    +0.151 HD
ENDROOT
BRANCH   2   7
ATOM      5 BR   UNL     1      33.808 -22.727 -18.451  0.00  0.00    -0.048 Br
ATOM      6  N   UNL     1      35.490 -19.780 -20.759  0.00  0.00    -0.314 N 
ATOM      7  C   UNL     1      34.452 -19.121 -21.266  0.00  0.00    +0.169 C 
ATOM      8  C   UNL     1      33.155 -19.485 -20.972  0.00  0.00    +0.014 C 
ATOM      9  C   UNL     1      35.326 -20.828 -19.941  0.00  0.00    +0.066 C 
ATOM     10  C   UNL     1      32.955 -20.571 -20.124  0.00  0.00    +0.007 C 
ATOM     11  C   UNL     1      34.050 -21.252 -19.600  0.00  0.00    +0.049 C 
ATOM     12  H   UNL     1      36.402 -19.491 -20.992  0.00  0.00    +0.149 HD
ENDBRANCH   2   7
BRANCH   3  13
ATOM     13  C   UNL     1      35.083 -15.828 -23.010  0.00  0.00    +0.097 C 
BRANCH  13  14
ATOM     14  C   UNL     1      33.884 -15.885 -23.948  0.00  0.00    +0.124 C 
BRANCH  14  17
ATOM     15  O   UNL     1      34.615 -17.628 -25.399  0.00  0.00    -0.246 OA
ATOM     16  O   UNL     1      33.818 -15.683 -26.290  0.00  0.00    -0.246 OA
ATOM     17  C   UNL     1      34.134 -16.462 -25.347  0.00  0.00    +0.365 C 
ENDBRANCH  14  17
ENDBRANCH  13  14
ENDBRANCH   3  13
TORSDOF 4
ENDMDL
MODEL 2
REMARK VINA RESULT:      -7.6      9.784     11.314
REMARK  Name = 4284847
REMARK  4 active torsions:
REMARK  status: ('A' for Active; 'I' for Inactive)
REMARK    1  A    between atoms: N_3  and  C_6
REMARK    2  A    between atoms: C_5  and  C_13
REMARK    3  A    between atoms: C_13  and  C_14
REMARK    4  A    between atoms: C_14  and  C_17
REMARK                            x       y       z     vdW  Elec       q    Type
REMARK                         _______ _______ _______ _____ _____    ______ ____
ROOT
ATOM      1  O   UNL     1      36.316 -25.471 -11.788  0.00  0.00    -0.275 OA
ATOM      2  N   UNL     1      36.421 -24.903 -14.064  0.00  0.00    -0.287 N 
ATOM      3  C   UNL     1      36.921 -25.366 -12.850  0.00  0.00    +0.224 C 
ATOM      4  H   UNL     1      37.057 -24.879 -14.816  0.00  0.00    +0.151 HD
ENDROOT
BRANCH   2   7
ATOM      5 BR   UNL     1      30.798 -23.039 -15.222  0.00  0.00    -0.048 Br
ATOM      6  N   UNL     1      34.110 -24.756 -13.511  0.00  0.00    -0.314 N 
ATOM      7  C   UNL     1      35.106 -24.461 -14.344  0.00  0.00    +0.169 C 
ATOM      8  C   UNL     1      34.891 -23.726 -15.489  0.00  0.00    +0.014 C 
ATOM      9  C   UNL     1      32.854 -24.353 -13.746  0.00  0.00    +0.066 C 
ATOM     10  C   UNL     1      33.595 -23.294 -15.759  0.00  0.00    +0.007 C 
ATOM     11  C   UNL     1      32.563 -23.609 -14.881  0.00  0.00    +0.049 C 
ATOM     12  H   UNL     1      34.302 -25.283 -12.702  0.00  0.00    +0.149 HD
ENDBRANCH   2   7
BRANCH   3  13
ATOM     13  C   UNL     1      38.393 -25.740 -12.986  0.00  0.00    +0.097 C 
BRANCH  13  14
ATOM     14  C   UNL     1      38.811 -26.043 -14.419  0.00  0.00    +0.124 C 
BRANCH  14  17
ATOM     15  O   UNL     1      40.684 -26.113 -15.889  0.00  0.00    -0.246 OA
ATOM     16  O   UNL     1      40.763 -24.792 -14.029  0.00  0.00    -0.246 OA
ATOM     17  C   UNL     1      40.225 -25.613 -14.825  0.00  0.00    +0.365 C 
ENDBRANCH  14  17
ENDBRANCH  13  14
ENDBRANCH   3  13
TORSDOF 4
ENDMDL
MODEL 3
REMARK VINA RESULT:      -7.6      5.316      7.715
REMARK  Name = 4284847
REMARK  4 active torsions:
REMARK  status: ('A' for Active; 'I' for Inactive)
REMARK    1  A    between atoms: N_3  and  C_6
REMARK    2  A    between atoms: C_5  and  C_13
REMARK    3  A    between atoms: C_13  and  C_14
REMARK    4  A    between atoms: C_14  and  C_17
REMARK                            x       y       z     vdW  Elec       q    Type
REMARK                         _______ _______ _______ _____ _____    ______ ____
ROOT
ATOM      1  O   UNL     1      34.564 -23.069 -17.326  0.00  0.00    -0.275 OA
ATOM      2  N   UNL     1      32.857 -22.123 -18.632  0.00  0.00    -0.287 N 
ATOM      3  C   UNL     1      33.384 -22.939 -17.634  0.00  0.00    +0.224 C 
ATOM      4  H   UNL     1      31.879 -22.151 -18.746  0.00  0.00    +0.151 HD
ENDROOT
BRANCH   2   7
ATOM      5 BR   UNL     1      35.903 -18.452 -22.330  0.00  0.00    -0.048 Br
ATOM      6  N   UNL     1      34.886 -21.353 -19.611  0.00  0.00    -0.314 N 
ATOM      7  C   UNL     1      33.563 -21.258 -19.502  0.00  0.00    +0.169 C 
ATOM      8  C   UNL     1      32.847 -20.328 -20.224  0.00  0.00    +0.014 C 
ATOM      9  C   UNL     1      35.584 -20.550 -20.425  0.00  0.00    +0.066 C 
ATOM     10  C   UNL     1      33.547 -19.480 -21.079  0.00  0.00    +0.007 C 
ATOM     11  C   UNL     1      34.930 -19.589 -21.183  0.00  0.00    +0.049 C 
ATOM     12  H   UNL     1      35.364 -22.031 -19.079  0.00  0.00    +0.149 HD
ENDBRANCH   2   7
BRANCH   3  13
ATOM     13  C   UNL     1      32.272 -23.709 -16.931  0.00  0.00    +0.097 C 
BRANCH  13  14
ATOM     14  C   UNL     1      31.232 -22.809 -16.277  0.00  0.00    +0.124 C 
BRANCH  14  17
ATOM     15  O   UNL     1      29.037 -22.314 -17.061  0.00  0.00    -0.246 OA
ATOM     16  O   UNL     1      29.456 -24.342 -16.099  0.00  0.00    -0.246 OA
ATOM     17  C   UNL     1      29.762 -23.184 -16.504  0.00  0.00    +0.365 C 
ENDBRANCH  14  17
ENDBRANCH  13  14
ENDBRANCH   3  13
TORSDOF 4
ENDMDL
MODEL 4
REMARK VINA RESULT:      -7.5      0.773      1.286
REMARK  Name = 4284847
REMARK  4 active torsions:
REMARK  status: ('A' for Active; 'I' for Inactive)
REMARK    1  A    between atoms: N_3  and  C_6
REMARK    2  A    between atoms: C_5  and  C_13
REMARK    3  A    between atoms: C_13  and  C_14
REMARK    4  A    between atoms: C_14  and  C_17
REMARK                            x       y       z     vdW  Elec       q    Type
REMARK                         _______ _______ _______ _____ _____    ______ ____
ROOT
ATOM      1  O   UNL     1      33.900 -16.220 -21.025  0.00  0.00    -0.275 OA
ATOM      2  N   UNL     1      34.831 -18.040 -22.181  0.00  0.00    -0.287 N 
ATOM      3  C   UNL     1      34.495 -16.704 -21.982  0.00  0.00    +0.224 C 
ATOM      4  H   UNL     1      35.306 -18.250 -23.018  0.00  0.00    +0.151 HD
ENDROOT
BRANCH   2   7
ATOM      5 BR   UNL     1      33.674 -22.689 -18.510  0.00  0.00    -0.048 Br
ATOM      6  N   UNL     1      33.318 -19.422 -20.968  0.00  0.00    -0.314 N 
ATOM      7  C   UNL     1      34.569 -19.133 -21.320  0.00  0.00    +0.169 C 
ATOM      8  C   UNL     1      35.635 -19.878 -20.865  0.00  0.00    +0.014 C 
ATOM      9  C   UNL     1      33.037 -20.449 -20.154  0.00  0.00    +0.066 C 
ATOM     10  C   UNL     1      35.372 -20.952 -20.018  0.00  0.00    +0.007 C 
ATOM     11  C   UNL     1      34.060 -21.243 -19.656  0.00  0.00    +0.049 C 
ATOM     12  H   UNL     1      32.582 -18.867 -21.313  0.00  0.00    +0.149 HD
ENDBRANCH   2   7
BRANCH   3  13
ATOM     13  C   UNL     1      34.965 -15.855 -23.159  0.00  0.00    +0.097 C 
BRANCH  13  14
ATOM     14  C   UNL     1      33.865 -15.559 -24.169  0.00  0.00    +0.124 C 
BRANCH  14  17
ATOM     15  O   UNL     1      34.370 -17.496 -25.462  0.00  0.00    -0.246 OA
ATOM     16  O   UNL     1      33.551 -15.634 -26.499  0.00  0.00    -0.246 OA
ATOM     17  C   UNL     1      33.940 -16.310 -25.504  0.00  0.00    +0.365 C 
ENDBRANCH  14  17
ENDBRANCH  13  14
ENDBRANCH   3  13
TORSDOF 4
ENDMDL
MODEL 5
REMARK VINA RESULT:      -7.5      4.092      6.579
REMARK  Name = 4284847
REMARK  4 active torsions:
REMARK  status: ('A' for Active; 'I' for Inactive)
REMARK    1  A    between atoms: N_3  and  C_6
REMARK    2  A    between atoms: C_5  and  C_13
REMARK    3  A    between atoms: C_13  and  C_14
REMARK    4  A    between atoms: C_14  and  C_17
REMARK                            x       y       z     vdW  Elec       q    Type
REMARK                         _______ _______ _______ _____ _____    ______ ____
ROOT
ATOM      1  O   UNL     1      34.896 -19.635 -22.626  0.00  0.00    -0.275 OA
ATOM      2  N   UNL     1      35.136 -18.044 -20.915  0.00  0.00    -0.287 N 
ATOM      3  C   UNL     1      35.155 -19.321 -21.469  0.00  0.00    +0.224 C 
ATOM      4  H   UNL     1      35.366 -17.980 -19.961  0.00  0.00    +0.151 HD
ENDROOT
BRANCH   2   7
ATOM      5 BR   UNL     1      33.808 -12.870 -23.726  0.00  0.00    -0.048 Br
ATOM      6  N   UNL     1      34.862 -16.748 -22.894  0.00  0.00    -0.314 N 
ATOM      7  C   UNL     1      34.822 -16.827 -21.566  0.00  0.00    +0.169 C 
ATOM      8  C   UNL     1      34.479 -15.740 -20.792  0.00  0.00    +0.014 C 
ATOM      9  C   UNL     1      34.571 -15.611 -23.541  0.00  0.00    +0.066 C 
ATOM     10  C   UNL     1      34.171 -14.545 -21.437  0.00  0.00    +0.007 C 
ATOM     11  C   UNL     1      34.217 -14.476 -22.826  0.00  0.00    +0.049 C 
ATOM     12  H   UNL     1      35.112 -17.546 -23.414  0.00  0.00    +0.149 HD
ENDBRANCH   2   7
BRANCH   3  13
ATOM     13  C   UNL     1      35.546 -20.353 -20.417  0.00  0.00    +0.097 C 
BRANCH  13  14
ATOM     14  C   UNL     1      34.354 -21.086 -19.816  0.00  0.00    +0.124 C 
BRANCH  14  17
ATOM     15  O   UNL     1      33.994 -23.415 -19.462  0.00  0.00    -0.246 OA
ATOM     16  O   UNL     1      35.545 -22.312 -18.200  0.00  0.00    -0.246 OA
ATOM     17  C   UNL     1      34.654 -22.405 -19.092  0.00  0.00    +0.365 C 
ENDBRANCH  14  17
ENDBRANCH  13  14
ENDBRANCH   3  13
TORSDOF 4
ENDMDL
MODEL 6
REMARK VINA RESULT:      -7.5      1.533      1.734
REMARK  Name = 4284847
REMARK  4 active torsions:
REMARK  status: ('A' for Active; 'I' for Inactive)
REMARK    1  A    between atoms: N_3  and  C_6
REMARK    2  A    between atoms: C_5  and  C_13
REMARK    3  A    between atoms: C_13  and  C_14
REMARK    4  A    between atoms: C_14  and  C_17
REMARK                            x       y       z     vdW  Elec       q    Type
REMARK                         _______ _______ _______ _____ _____    ______ ____
ROOT
ATOM      1  O   UNL     1      34.992 -19.383 -23.916  0.00  0.00    -0.275 OA
ATOM      2  N   UNL     1      34.621 -18.334 -21.848  0.00  0.00    -0.287 N 
ATOM      3  C   UNL     1      34.892 -18.383 -23.213  0.00  0.00    +0.224 C 
ATOM      4  H   UNL     1      34.585 -17.438 -21.443  0.00  0.00    +0.151 HD
ENDROOT
BRANCH   2   7
ATOM      5 BR   UNL     1      33.688 -22.990 -18.122  0.00  0.00    -0.048 Br
ATOM      6  N   UNL     1      35.421 -20.080 -20.440  0.00  0.00    -0.314 N 
ATOM      7  C   UNL     1      34.393 -19.425 -20.974  0.00  0.00    +0.169 C 
ATOM      8  C   UNL     1      33.091 -19.781 -20.698  0.00  0.00    +0.014 C 
ATOM      9  C   UNL     1      35.239 -21.116 -19.610  0.00  0.00    +0.066 C 
ATOM     10  C   UNL     1      32.872 -20.854 -19.838  0.00  0.00    +0.007 C 
ATOM     11  C   UNL     1      33.955 -21.532 -19.286  0.00  0.00    +0.049 C 
ATOM     12  H   UNL     1      36.337 -19.796 -20.660  0.00  0.00    +0.149 HD
ENDBRANCH   2   7
BRANCH   3  13
ATOM     13  C   UNL     1      35.073 -16.976 -23.772  0.00  0.00    +0.097 C 
BRANCH  13  14
ATOM     14  C   UNL     1      34.573 -16.823 -25.202  0.00  0.00    +0.124 C 
BRANCH  14  17
ATOM     15  O   UNL     1      33.415 -15.380 -26.704  0.00  0.00    -0.246 OA
ATOM     16  O   UNL     1      33.335 -14.966 -24.460  0.00  0.00    -0.246 OA
ATOM     17  C   UNL     1      33.689 -15.604 -25.493  0.00  0.00    +0.365 C 
ENDBRANCH  14  17
ENDBRANCH  13  14
ENDBRANCH   3  13
TORSDOF 4
ENDMDL
MODEL 7
REMARK VINA RESULT:      -7.3      9.826     11.116
REMARK  Name = 4284847
REMARK  4 active torsions:
REMARK  status: ('A' for Active; 'I' for Inactive)
REMARK    1  A    between atoms: N_3  and  C_6
REMARK    2  A    between atoms: C_5  and  C_13
REMARK    3  A    between atoms: C_13  and  C_14
REMARK    4  A    between atoms: C_14  and  C_17
REMARK                            x       y       z     vdW  Elec       q    Type
REMARK                         _______ _______ _______ _____ _____    ______ ____
ROOT
ATOM      1  O   UNL     1      34.757 -24.742 -11.707  0.00  0.00    -0.275 OA
ATOM      2  N   UNL     1      34.775 -24.686 -14.055  0.00  0.00    -0.287 N 
ATOM      3  C   UNL     1      35.337 -24.803 -12.787  0.00  0.00    +0.224 C 
ATOM      4  H   UNL     1      35.397 -24.753 -14.815  0.00  0.00    +0.151 HD
ENDROOT
BRANCH   2   7
ATOM      5 BR   UNL     1      28.954 -23.839 -15.410  0.00  0.00    -0.048 Br
ATOM      6  N   UNL     1      32.466 -25.200 -13.781  0.00  0.00    -0.314 N 
ATOM      7  C   UNL     1      33.412 -24.480 -14.379  0.00  0.00    +0.169 C 
ATOM      8  C   UNL     1      33.099 -23.522 -15.320  0.00  0.00    +0.014 C 
ATOM      9  C   UNL     1      31.167 -25.030 -14.065  0.00  0.00    +0.066 C 
ATOM     10  C   UNL     1      31.758 -23.324 -15.634  0.00  0.00    +0.007 C 
ATOM     11  C   UNL     1      30.778 -24.084 -15.002  0.00  0.00    +0.049 C 
ATOM     12  H   UNL     1      32.727 -25.876 -13.114  0.00  0.00    +0.149 HD
ENDBRANCH   2   7
BRANCH   3  13
ATOM     13  C   UNL     1      36.843 -25.016 -12.888  0.00  0.00    +0.097 C 
BRANCH  13  14
ATOM     14  C   UNL     1      37.348 -25.096 -14.323  0.00  0.00    +0.124 C 
BRANCH  14  17
ATOM     15  O   UNL     1      38.361 -27.223 -14.683  0.00  0.00    -0.246 OA
ATOM     16  O   UNL     1      36.379 -26.734 -15.705  0.00  0.00    -0.246 OA
ATOM     17  C   UNL     1      37.373 -26.489 -14.964  0.00  0.00    +0.365 C 
ENDBRANCH  14  17
ENDBRANCH  13  14
ENDBRANCH   3  13
TORSDOF 4
ENDMDL
MODEL 8
REMARK VINA RESULT:      -7.3      8.107      9.487
REMARK  Name = 4284847
REMARK  4 active torsions:
REMARK  status: ('A' for Active; 'I' for Inactive)
REMARK    1  A    between atoms: N_3  and  C_6
REMARK    2  A    between atoms: C_5  and  C_13
REMARK    3  A    between atoms: C_13  and  C_14
REMARK    4  A    between atoms: C_14  and  C_17
REMARK                            x       y       z     vdW  Elec       q    Type
REMARK                         _______ _______ _______ _____ _____    ______ ____
ROOT
ATOM      1  O   UNL     1      30.953 -25.482 -14.418  0.00  0.00    -0.275 OA
ATOM      2  N   UNL     1      31.124 -23.668 -15.900  0.00  0.00    -0.287 N 
ATOM      3  C   UNL     1      30.457 -24.641 -15.160  0.00  0.00    +0.224 C 
ATOM      4  H   UNL     1      30.561 -23.079 -16.452  0.00  0.00    +0.151 HD
ENDROOT
BRANCH   2   7
ATOM      5 BR   UNL     1      37.071 -22.655 -16.080  0.00  0.00    -0.048 Br
ATOM      6  N   UNL     1      33.246 -23.471 -14.838  0.00  0.00    -0.314 N 
ATOM      7  C   UNL     1      32.518 -23.430 -15.951  0.00  0.00    +0.169 C 
ATOM      8  C   UNL     1      33.092 -23.159 -17.175  0.00  0.00    +0.014 C 
ATOM      9  C   UNL     1      34.567 -23.250 -14.853  0.00  0.00    +0.066 C 
ATOM     10  C   UNL     1      34.463 -22.925 -17.221  0.00  0.00    +0.007 C 
ATOM     11  C   UNL     1      35.213 -22.970 -16.049  0.00  0.00    +0.049 C 
ATOM     12  H   UNL     1      32.801 -23.668 -13.982  0.00  0.00    +0.149 HD
ENDBRANCH   2   7
BRANCH   3  13
ATOM     13  C   UNL     1      28.953 -24.552 -15.394  0.00  0.00    +0.097 C 
BRANCH  13  14
ATOM     14  C   UNL     1      28.458 -23.128 -15.615  0.00  0.00    +0.124 C 
BRANCH  14  17
ATOM     15  O   UNL     1      27.479 -21.633 -17.191  0.00  0.00    -0.246 OA
ATOM     16  O   UNL     1      27.696 -23.843 -17.723  0.00  0.00    -0.246 OA
ATOM     17  C   UNL     1      27.812 -22.830 -16.974  0.00  0.00    +0.365 C 
ENDBRANCH  14  17
ENDBRANCH  13  14
ENDBRANCH   3  13
TORSDOF 4
ENDMDL
MODEL 9
REMARK VINA RESULT:      -7.3      3.999      6.235
REMARK  Name = 4284847
REMARK  4 active torsions:
REMARK  status: ('A' for Active; 'I' for Inactive)
REMARK    1  A    between atoms: N_3  and  C_6
REMARK    2  A    between atoms: C_5  and  C_13
REMARK    3  A    between atoms: C_13  and  C_14
REMARK    4  A    between atoms: C_14  and  C_17
REMARK                            x       y       z     vdW  Elec       q    Type
REMARK                         _______ _______ _______ _____ _____    ______ ____
ROOT
ATOM      1  O   UNL     1      37.267 -19.422 -20.033  0.00  0.00    -0.275 OA
ATOM      2  N   UNL     1      35.225 -19.697 -21.160  0.00  0.00    -0.287 N 
ATOM      3  C   UNL     1      36.316 -20.105 -20.397  0.00  0.00    +0.224 C 
ATOM      4  H   UNL     1      34.555 -20.388 -21.366  0.00  0.00    +0.151 HD
ENDROOT
BRANCH   2   7
ATOM      5 BR   UNL     1      34.133 -14.168 -23.320  0.00  0.00    -0.048 Br
ATOM      6  N   UNL     1      34.885 -17.360 -20.853  0.00  0.00    -0.314 N 
ATOM      7  C   UNL     1      34.969 -18.404 -21.675  0.00  0.00    +0.169 C 
ATOM      8  C   UNL     1      34.813 -18.261 -23.037  0.00  0.00    +0.014 C 
ATOM      9  C   UNL     1      34.644 -16.124 -21.309  0.00  0.00    +0.066 C 
ATOM     10  C   UNL     1      34.561 -16.986 -23.539  0.00  0.00    +0.007 C 
ATOM     11  C   UNL     1      34.475 -15.904 -22.669  0.00  0.00    +0.049 C 
ATOM     12  H   UNL     1      35.003 -17.501 -19.886  0.00  0.00    +0.149 HD
ENDBRANCH   2   7
BRANCH   3  13
ATOM     13  C   UNL     1      36.201 -21.586 -20.050  0.00  0.00    +0.097 C 
BRANCH  13  14
ATOM     14  C   UNL     1      35.211 -21.870 -18.929  0.00  0.00    +0.124 C 
BRANCH  14  17
ATOM     15  O   UNL     1      33.030 -21.747 -19.882  0.00  0.00    -0.246 OA
ATOM     16  O   UNL     1      33.794 -23.741 -19.075  0.00  0.00    -0.246 OA
ATOM     17  C   UNL     1      33.877 -22.507 -19.337  0.00  0.00    +0.365 C 
ENDBRANCH  14  17
ENDBRANCH  13  14
ENDBRANCH   3  13
TORSDOF 4
ENDMDL
