MODEL 1
REMARK VINA RESULT:      -4.3      0.000      0.000
REMARK  Name = 6597
REMARK  2 active torsions:
REMARK  status: ('A' for Active; 'I' for Inactive)
REMARK    1  A    between atoms: C_2  and  C_5
REMARK    2  A    between atoms: C_2  and  O_6
REMARK                            x       y       z     vdW  Elec       q    Type
REMARK                         _______ _______ _______ _____ _____    ______ ____
ROOT
ATOM      1  O   UNL     1      40.937 -24.753 -14.243  0.00  0.00    -0.248 OA
ATOM      2  C   UNL     1      40.114 -25.340 -14.933  0.00  0.00    +0.345 C 
ENDROOT
BRANCH   2   5
ATOM      3 CL   UNL     1      37.784 -24.005 -15.107  0.00  0.00    -0.085 Cl
ATOM      4 CL   UNL     1      38.457 -25.770 -12.893  0.00  0.00    -0.085 Cl
ATOM      5  C   UNL     1      38.645 -25.479 -14.628  0.00  0.00    +0.256 C 
ENDBRANCH   2   5
BRANCH   2   6
ATOM      6  O   UNL     1      40.446 -25.952 -16.103  0.00  0.00    -0.478 OA
ATOM      7  H   UNL     1      41.347 -26.045 -16.343  0.00  0.00    +0.295 HD
ENDBRANCH   2   6
TORSDOF 2
ENDMDL
MODEL 2
REMARK VINA RESULT:      -4.1     10.950     11.376
REMARK  Name = 6597
REMARK  2 active torsions:
REMARK  status: ('A' for Active; 'I' for Inactive)
REMARK    1  A    between atoms: C_2  and  C_5
REMARK    2  A    between atoms: C_2  and  O_6
REMARK                            x       y       z     vdW  Elec       q    Type
REMARK                         _______ _______ _______ _____ _____    ______ ____
ROOT
ATOM      1  O   UNL     1      27.672 -23.858 -17.677  0.00  0.00    -0.248 OA
ATOM      2  C   UNL     1      28.064 -22.956 -16.949  0.00  0.00    +0.345 C 
ENDROOT
BRANCH   2   5
ATOM      3 CL   UNL     1      30.714 -22.867 -16.486  0.00  0.00    -0.085 Cl
ATOM      4 CL   UNL     1      28.910 -24.700 -15.123  0.00  0.00    -0.085 Cl
ATOM      5  C   UNL     1      29.078 -23.092 -15.842  0.00  0.00    +0.256 C 
ENDBRANCH   2   5
BRANCH   2   6
ATOM      6  O   UNL     1      27.616 -21.676 -17.067  0.00  0.00    -0.478 OA
ATOM      7  H   UNL     1      27.743 -21.069 -16.364  0.00  0.00    +0.295 HD
ENDBRANCH   2   6
TORSDOF 2
ENDMDL
MODEL 3
REMARK VINA RESULT:      -4.1     10.131     10.525
REMARK  Name = 6597
REMARK  2 active torsions:
REMARK  status: ('A' for Active; 'I' for Inactive)
REMARK    1  A    between atoms: C_2  and  C_5
REMARK    2  A    between atoms: C_2  and  O_6
REMARK                            x       y       z     vdW  Elec       q    Type
REMARK                         _______ _______ _______ _____ _____    ______ ____
ROOT
ATOM      1  O   UNL     1      42.401 -16.840 -15.806  0.00  0.00    -0.248 OA
ATOM      2  C   UNL     1      41.518 -15.993 -15.765  0.00  0.00    +0.345 C 
ENDROOT
BRANCH   2   5
ATOM      3 CL   UNL     1      40.832 -13.584 -14.781  0.00  0.00    -0.085 Cl
ATOM      4 CL   UNL     1      41.075 -14.141 -17.627  0.00  0.00    -0.085 Cl
ATOM      5  C   UNL     1      41.698 -14.518 -16.015  0.00  0.00    +0.256 C 
ENDBRANCH   2   5
BRANCH   2   6
ATOM      6  O   UNL     1      40.222 -16.303 -15.486  0.00  0.00    -0.478 OA
ATOM      7  H   UNL     1      39.850 -16.058 -14.662  0.00  0.00    +0.295 HD
ENDBRANCH   2   6
TORSDOF 2
ENDMDL
MODEL 4
REMARK VINA RESULT:      -4.1     10.318     10.748
REMARK  Name = 6597
REMARK  2 active torsions:
REMARK  status: ('A' for Active; 'I' for Inactive)
REMARK    1  A    between atoms: C_2  and  C_5
REMARK    2  A    between atoms: C_2  and  O_6
REMARK                            x       y       z     vdW  Elec       q    Type
REMARK                         _______ _______ _______ _____ _____    ______ ____
ROOT
ATOM      1  O   UNL     1      42.312 -16.449 -15.764  0.00  0.00    -0.248 OA
ATOM      2  C   UNL     1      41.346 -15.698 -15.806  0.00  0.00    +0.345 C 
ENDROOT
BRANCH   2   5
ATOM      3 CL   UNL     1      41.213 -14.576 -18.249  0.00  0.00    -0.085 Cl
ATOM      4 CL   UNL     1      42.755 -13.451 -16.051  0.00  0.00    -0.085 Cl
ATOM      5  C   UNL     1      41.300 -14.357 -16.492  0.00  0.00    +0.256 C 
ENDBRANCH   2   5
BRANCH   2   6
ATOM      6  O   UNL     1      40.157 -16.006 -15.221  0.00  0.00    -0.478 OA
ATOM      7  H   UNL     1      39.353 -15.763 -15.638  0.00  0.00    +0.295 HD
ENDBRANCH   2   6
TORSDOF 2
ENDMDL
MODEL 5
REMARK VINA RESULT:      -4.1     10.469     10.964
REMARK  Name = 6597
REMARK  2 active torsions:
REMARK  status: ('A' for Active; 'I' for Inactive)
REMARK    1  A    between atoms: C_2  and  C_5
REMARK    2  A    between atoms: C_2  and  O_6
REMARK                            x       y       z     vdW  Elec       q    Type
REMARK                         _______ _______ _______ _____ _____    ______ ____
ROOT
ATOM      1  O   UNL     1      28.479 -21.993 -16.990  0.00  0.00    -0.248 OA
ATOM      2  C   UNL     1      28.586 -23.208 -16.878  0.00  0.00    +0.345 C 
ENDROOT
BRANCH   2   5
ATOM      3 CL   UNL     1      28.828 -24.959 -14.849  0.00  0.00    -0.085 Cl
ATOM      4 CL   UNL     1      30.651 -22.728 -15.266  0.00  0.00    -0.085 Cl
ATOM      5  C   UNL     1      29.621 -23.931 -16.056  0.00  0.00    +0.256 C 
ENDBRANCH   2   5
BRANCH   2   6
ATOM      6  O   UNL     1      27.743 -24.075 -17.504  0.00  0.00    -0.478 OA
ATOM      7  H   UNL     1      26.907 -23.778 -17.808  0.00  0.00    +0.295 HD
ENDBRANCH   2   6
TORSDOF 2
ENDMDL
MODEL 6
REMARK VINA RESULT:      -4.0      4.906      5.114
REMARK  Name = 6597
REMARK  2 active torsions:
REMARK  status: ('A' for Active; 'I' for Inactive)
REMARK    1  A    between atoms: C_2  and  C_5
REMARK    2  A    between atoms: C_2  and  O_6
REMARK                            x       y       z     vdW  Elec       q    Type
REMARK                         _______ _______ _______ _____ _____    ______ ____
ROOT
ATOM      1  O   UNL     1      35.957 -24.288  -9.769  0.00  0.00    -0.248 OA
ATOM      2  C   UNL     1      35.846 -24.238 -10.987  0.00  0.00    +0.345 C 
ENDROOT
BRANCH   2   5
ATOM      3 CL   UNL     1      35.935 -23.361 -13.529  0.00  0.00    -0.085 Cl
ATOM      4 CL   UNL     1      38.308 -24.027 -11.980  0.00  0.00    -0.085 Cl
ATOM      5  C   UNL     1      36.664 -23.376 -11.913  0.00  0.00    +0.256 C 
ENDBRANCH   2   5
BRANCH   2   6
ATOM      6  O   UNL     1      34.938 -24.990 -11.667  0.00  0.00    -0.478 OA
ATOM      7  H   UNL     1      35.185 -25.829 -12.005  0.00  0.00    +0.295 HD
ENDBRANCH   2   6
TORSDOF 2
ENDMDL
MODEL 7
REMARK VINA RESULT:      -4.0      9.868     10.413
REMARK  Name = 6597
REMARK  2 active torsions:
REMARK  status: ('A' for Active; 'I' for Inactive)
REMARK    1  A    between atoms: C_2  and  C_5
REMARK    2  A    between atoms: C_2  and  O_6
REMARK                            x       y       z     vdW  Elec       q    Type
REMARK                         _______ _______ _______ _____ _____    ______ ____
ROOT
ATOM      1  O   UNL     1      42.386 -16.719 -15.536  0.00  0.00    -0.248 OA
ATOM      2  C   UNL     1      41.771 -15.896 -16.202  0.00  0.00    +0.345 C 
ENDROOT
BRANCH   2   5
ATOM      3 CL   UNL     1      41.012 -14.161 -18.113  0.00  0.00    -0.085 Cl
ATOM      4 CL   UNL     1      42.660 -16.503 -18.638  0.00  0.00    -0.085 Cl
ATOM      5  C   UNL     1      42.262 -15.239 -17.465  0.00  0.00    +0.256 C 
ENDBRANCH   2   5
BRANCH   2   6
ATOM      6  O   UNL     1      40.522 -15.472 -15.865  0.00  0.00    -0.478 OA
ATOM      7  H   UNL     1      40.390 -14.989 -15.072  0.00  0.00    +0.295 HD
ENDBRANCH   2   6
TORSDOF 2
ENDMDL
MODEL 8
REMARK VINA RESULT:      -3.9      9.467     10.110
REMARK  Name = 6597
REMARK  2 active torsions:
REMARK  status: ('A' for Active; 'I' for Inactive)
REMARK    1  A    between atoms: C_2  and  C_5
REMARK    2  A    between atoms: C_2  and  O_6
REMARK                            x       y       z     vdW  Elec       q    Type
REMARK                         _______ _______ _______ _____ _____    ______ ____
ROOT
ATOM      1  O   UNL     1      42.442 -16.679 -18.978  0.00  0.00    -0.248 OA
ATOM      2  C   UNL     1      42.106 -16.625 -17.801  0.00  0.00    +0.345 C 
ENDROOT
BRANCH   2   5
ATOM      3 CL   UNL     1      40.969 -15.719 -15.537  0.00  0.00    -0.085 Cl
ATOM      4 CL   UNL     1      41.076 -14.177 -18.004  0.00  0.00    -0.085 Cl
ATOM      5  C   UNL     1      41.913 -15.367 -16.996  0.00  0.00    +0.256 C 
ENDBRANCH   2   5
BRANCH   2   6
ATOM      6  O   UNL     1      41.854 -17.740 -17.063  0.00  0.00    -0.478 OA
ATOM      7  H   UNL     1      41.864 -17.694 -16.127  0.00  0.00    +0.295 HD
ENDBRANCH   2   6
TORSDOF 2
ENDMDL
MODEL 9
REMARK VINA RESULT:      -3.8      3.150      3.431
REMARK  Name = 6597
REMARK  2 active torsions:
REMARK  status: ('A' for Active; 'I' for Inactive)
REMARK    1  A    between atoms: C_2  and  C_5
REMARK    2  A    between atoms: C_2  and  O_6
REMARK                            x       y       z     vdW  Elec       q    Type
REMARK                         _______ _______ _______ _____ _____    ______ ____
ROOT
ATOM      1  O   UNL     1      36.046 -25.326 -15.464  0.00  0.00    -0.248 OA
ATOM      2  C   UNL     1      36.742 -26.329 -15.373  0.00  0.00    +0.345 C 
ENDROOT
BRANCH   2   5
ATOM      3 CL   UNL     1      37.045 -26.089 -12.710  0.00  0.00    -0.085 Cl
ATOM      4 CL   UNL     1      39.237 -25.803 -14.604  0.00  0.00    -0.085 Cl
ATOM      5  C   UNL     1      37.712 -26.632 -14.260  0.00  0.00    +0.256 C 
ENDBRANCH   2   5
BRANCH   2   6
ATOM      6  O   UNL     1      36.713 -27.324 -16.301  0.00  0.00    -0.478 OA
ATOM      7  H   UNL     1      37.512 -27.720 -16.589  0.00  0.00    +0.295 HD
ENDBRANCH   2   6
TORSDOF 2
ENDMDL
