MODEL 1
REMARK VINA RESULT:      -7.7      0.000      0.000
REMARK  Name = 3034287
REMARK  6 active torsions:
REMARK  status: ('A' for Active; 'I' for Inactive)
REMARK    1  A    between atoms: N_1  and  C_2
REMARK    2  A    between atoms: N_1  and  C_4
REMARK    3  A    between atoms: N_1  and  C_12
REMARK    4  A    between atoms: C_4  and  N_9
REMARK    5  A    between atoms: C_5  and  N_8
REMARK    6  A    between atoms: C_12  and  C_15
REMARK                            x       y       z     vdW  Elec       q    Type
REMARK                         _______ _______ _______ _____ _____    ______ ____
ROOT
ATOM      1  N   UNL     1      37.454 -24.692 -13.120  0.00  0.00    -0.291 N 
ENDROOT
BRANCH   1   2
ATOM      2  C   UNL     1      36.653 -25.125 -11.978  0.00  0.00    +0.092 C 
ATOM      3  C   UNL     1      36.376 -23.951 -11.057  0.00  0.00    +0.023 C 
ENDBRANCH   1   2
BRANCH   1   4
ATOM      4  C   UNL     1      38.299 -25.579 -13.845  0.00  0.00    +0.122 C 
ATOM      5  C   UNL     1      39.603 -25.226 -13.955  0.00  0.00    +0.195 C 
BRANCH   5   8
ATOM      6  O   UNL     1      41.245 -26.798 -14.005  0.00  0.00    -0.126 OA
ATOM      7  O   UNL     1      40.530 -25.942 -15.904  0.00  0.00    -0.126 OA
ATOM      8  N   UNL     1      40.519 -26.042 -14.669  0.00  0.00    +0.062 N 
ENDBRANCH   5   8
BRANCH   4   9
ATOM      9  N   UNL     1      37.821 -26.759 -14.430  0.00  0.00    -0.319 N 
ATOM     10  C   UNL     1      36.768 -26.896 -15.409  0.00  0.00    +0.109 C 
ATOM     11  H   UNL     1      38.254 -27.594 -14.140  0.00  0.00    +0.148 HD
ENDBRANCH   4   9
ENDBRANCH   1   4
BRANCH   1  12
ATOM     12  C   UNL     1      37.237 -23.299 -13.517  0.00  0.00    +0.120 C 
BRANCH  12  15
ATOM     13 CL   UNL     1      33.486 -23.023 -18.101  0.00  0.00    -0.061 Cl
ATOM     14  N   UNL     1      35.797 -22.758 -16.958  0.00  0.00    -0.233 NA
ATOM     15  C   UNL     1      36.250 -23.247 -14.643  0.00  0.00    +0.017 C 
ATOM     16  C   UNL     1      34.930 -23.618 -14.444  0.00  0.00    +0.001 C 
ATOM     17  C   UNL     1      36.636 -22.828 -15.900  0.00  0.00    +0.097 C 
ATOM     18  C   UNL     1      34.037 -23.561 -15.507  0.00  0.00    +0.031 C 
ATOM     19  C   UNL     1      34.516 -23.127 -16.733  0.00  0.00    +0.138 C 
ENDBRANCH  12  15
ENDBRANCH   1  12
TORSDOF 6
ENDMDL
MODEL 2
REMARK VINA RESULT:      -7.1      3.033      4.094
REMARK  Name = 3034287
REMARK  6 active torsions:
REMARK  status: ('A' for Active; 'I' for Inactive)
REMARK    1  A    between atoms: N_1  and  C_2
REMARK    2  A    between atoms: N_1  and  C_4
REMARK    3  A    between atoms: N_1  and  C_12
REMARK    4  A    between atoms: C_4  and  N_9
REMARK    5  A    between atoms: C_5  and  N_8
REMARK    6  A    between atoms: C_12  and  C_15
REMARK                            x       y       z     vdW  Elec       q    Type
REMARK                         _______ _______ _______ _____ _____    ______ ____
ROOT
ATOM      1  N   UNL     1      36.481 -24.216 -14.304  0.00  0.00    -0.291 N 
ENDROOT
BRANCH   1   2
ATOM      2  C   UNL     1      36.603 -25.457 -15.065  0.00  0.00    +0.092 C 
ATOM      3  C   UNL     1      37.987 -26.051 -14.876  0.00  0.00    +0.023 C 
ENDBRANCH   1   2
BRANCH   1   4
ATOM      4  C   UNL     1      35.831 -24.153 -13.039  0.00  0.00    +0.122 C 
ATOM      5  C   UNL     1      36.575 -24.479 -11.954  0.00  0.00    +0.195 C 
BRANCH   5   8
ATOM      6  O   UNL     1      36.451 -23.614  -9.855  0.00  0.00    -0.126 OA
ATOM      7  O   UNL     1      35.117 -25.278 -10.404  0.00  0.00    -0.126 OA
ATOM      8  N   UNL     1      36.010 -24.456 -10.652  0.00  0.00    +0.062 N 
ENDBRANCH   5   8
BRANCH   4   9
ATOM      9  N   UNL     1      34.486 -23.783 -12.905  0.00  0.00    -0.319 N 
ATOM     10  C   UNL     1      33.360 -24.248 -13.680  0.00  0.00    +0.109 C 
ATOM     11  H   UNL     1      34.285 -23.128 -12.199  0.00  0.00    +0.148 HD
ENDBRANCH   4   9
ENDBRANCH   1   4
BRANCH   1  12
ATOM     12  C   UNL     1      37.168 -23.069 -14.904  0.00  0.00    +0.120 C 
BRANCH  12  15
ATOM     13 CL   UNL     1      34.253 -21.618 -19.859  0.00  0.00    -0.061 Cl
ATOM     14  N   UNL     1      34.476 -22.702 -17.515  0.00  0.00    -0.233 NA
ATOM     15  C   UNL     1      36.476 -22.678 -16.174  0.00  0.00    +0.017 C 
ATOM     16  C   UNL     1      37.147 -21.964 -17.152  0.00  0.00    +0.001 C 
ATOM     17  C   UNL     1      35.158 -23.023 -16.393  0.00  0.00    +0.097 C 
ATOM     18  C   UNL     1      36.479 -21.614 -18.320  0.00  0.00    +0.031 C 
ATOM     19  C   UNL     1      35.156 -22.004 -18.452  0.00  0.00    +0.138 C 
ENDBRANCH  12  15
ENDBRANCH   1  12
TORSDOF 6
ENDMDL
MODEL 3
REMARK VINA RESULT:      -7.1      9.837     12.680
REMARK  Name = 3034287
REMARK  6 active torsions:
REMARK  status: ('A' for Active; 'I' for Inactive)
REMARK    1  A    between atoms: N_1  and  C_2
REMARK    2  A    between atoms: N_1  and  C_4
REMARK    3  A    between atoms: N_1  and  C_12
REMARK    4  A    between atoms: C_4  and  N_9
REMARK    5  A    between atoms: C_5  and  N_8
REMARK    6  A    between atoms: C_12  and  C_15
REMARK                            x       y       z     vdW  Elec       q    Type
REMARK                         _______ _______ _______ _____ _____    ______ ____
ROOT
ATOM      1  N   UNL     1      34.659 -16.051 -22.822  0.00  0.00    -0.291 N 
ENDROOT
BRANCH   1   2
ATOM      2  C   UNL     1      34.522 -15.505 -21.474  0.00  0.00    +0.092 C 
ATOM      3  C   UNL     1      33.091 -15.658 -20.992  0.00  0.00    +0.023 C 
ENDBRANCH   1   2
BRANCH   1   4
ATOM      4  C   UNL     1      33.936 -15.536 -23.936  0.00  0.00    +0.122 C 
ATOM      5  C   UNL     1      33.995 -16.251 -25.086  0.00  0.00    +0.195 C 
BRANCH   5   8
ATOM      6  O   UNL     1      32.336 -16.473 -26.624  0.00  0.00    -0.126 OA
ATOM      7  O   UNL     1      33.748 -14.794 -26.813  0.00  0.00    -0.126 OA
ATOM      8  N   UNL     1      33.316 -15.810 -26.251  0.00  0.00    +0.062 N 
ENDBRANCH   5   8
BRANCH   4   9
ATOM      9  N   UNL     1      33.202 -14.345 -23.866  0.00  0.00    -0.319 N 
ATOM     10  C   UNL     1      33.705 -12.992 -23.914  0.00  0.00    +0.109 C 
ATOM     11  H   UNL     1      32.227 -14.441 -23.772  0.00  0.00    +0.148 HD
ENDBRANCH   4   9
ENDBRANCH   1   4
BRANCH   1  12
ATOM     12  C   UNL     1      35.673 -17.100 -22.950  0.00  0.00    +0.120 C 
BRANCH  12  15
ATOM     13 CL   UNL     1      34.494 -21.617 -19.295  0.00  0.00    -0.061 Cl
ATOM     14  N   UNL     1      35.991 -19.749 -20.289  0.00  0.00    -0.233 NA
ATOM     15  C   UNL     1      35.326 -18.245 -22.048  0.00  0.00    +0.017 C 
ATOM     16  C   UNL     1      34.081 -18.848 -22.120  0.00  0.00    +0.001 C 
ATOM     17  C   UNL     1      36.240 -18.721 -21.131  0.00  0.00    +0.097 C 
ATOM     18  C   UNL     1      33.787 -19.908 -21.270  0.00  0.00    +0.031 C 
ATOM     19  C   UNL     1      34.768 -20.317 -20.381  0.00  0.00    +0.138 C 
ENDBRANCH  12  15
ENDBRANCH   1  12
TORSDOF 6
ENDMDL
MODEL 4
REMARK VINA RESULT:      -7.0      9.590     12.349
REMARK  Name = 3034287
REMARK  6 active torsions:
REMARK  status: ('A' for Active; 'I' for Inactive)
REMARK    1  A    between atoms: N_1  and  C_2
REMARK    2  A    between atoms: N_1  and  C_4
REMARK    3  A    between atoms: N_1  and  C_12
REMARK    4  A    between atoms: C_4  and  N_9
REMARK    5  A    between atoms: C_5  and  N_8
REMARK    6  A    between atoms: C_12  and  C_15
REMARK                            x       y       z     vdW  Elec       q    Type
REMARK                         _______ _______ _______ _____ _____    ______ ____
ROOT
ATOM      1  N   UNL     1      34.409 -16.322 -22.765  0.00  0.00    -0.291 N 
ENDROOT
BRANCH   1   2
ATOM      2  C   UNL     1      33.549 -15.646 -21.798  0.00  0.00    +0.092 C 
ATOM      3  C   UNL     1      34.384 -14.784 -20.868  0.00  0.00    +0.023 C 
ENDBRANCH   1   2
BRANCH   1   4
ATOM      4  C   UNL     1      34.193 -16.244 -24.170  0.00  0.00    +0.122 C 
ATOM      5  C   UNL     1      33.486 -15.180 -24.621  0.00  0.00    +0.195 C 
BRANCH   5   8
ATOM      6  O   UNL     1      33.518 -13.941 -26.527  0.00  0.00    -0.126 OA
ATOM      7  O   UNL     1      32.684 -15.978 -26.592  0.00  0.00    -0.126 OA
ATOM      8  N   UNL     1      33.211 -15.023 -26.004  0.00  0.00    +0.062 N 
ENDBRANCH   5   8
BRANCH   4   9
ATOM      9  N   UNL     1      34.672 -17.217 -25.057  0.00  0.00    -0.319 N 
ATOM     10  C   UNL     1      34.333 -18.620 -25.098  0.00  0.00    +0.109 C 
ATOM     11  H   UNL     1      35.318 -16.909 -25.732  0.00  0.00    +0.148 HD
ENDBRANCH   4   9
ENDBRANCH   1   4
BRANCH   1  12
ATOM     12  C   UNL     1      35.566 -17.000 -22.175  0.00  0.00    +0.120 C 
BRANCH  12  15
ATOM     13 CL   UNL     1      33.988 -22.000 -19.407  0.00  0.00    -0.061 Cl
ATOM     14  N   UNL     1      35.689 -20.230 -20.238  0.00  0.00    -0.233 NA
ATOM     15  C   UNL     1      35.116 -18.254 -21.488  0.00  0.00    +0.017 C 
ATOM     16  C   UNL     1      33.775 -18.599 -21.458  0.00  0.00    +0.001 C 
ATOM     17  C   UNL     1      36.028 -19.087 -20.874  0.00  0.00    +0.097 C 
ATOM     18  C   UNL     1      33.387 -19.768 -20.813  0.00  0.00    +0.031 C 
ATOM     19  C   UNL     1      34.374 -20.542 -20.224  0.00  0.00    +0.138 C 
ENDBRANCH  12  15
ENDBRANCH   1  12
TORSDOF 6
ENDMDL
MODEL 5
REMARK VINA RESULT:      -7.0      3.215      4.312
REMARK  Name = 3034287
REMARK  6 active torsions:
REMARK  status: ('A' for Active; 'I' for Inactive)
REMARK    1  A    between atoms: N_1  and  C_2
REMARK    2  A    between atoms: N_1  and  C_4
REMARK    3  A    between atoms: N_1  and  C_12
REMARK    4  A    between atoms: C_4  and  N_9
REMARK    5  A    between atoms: C_5  and  N_8
REMARK    6  A    between atoms: C_12  and  C_15
REMARK                            x       y       z     vdW  Elec       q    Type
REMARK                         _______ _______ _______ _____ _____    ______ ____
ROOT
ATOM      1  N   UNL     1      35.470 -23.781 -14.792  0.00  0.00    -0.291 N 
ENDROOT
BRANCH   1   2
ATOM      2  C   UNL     1      35.887 -22.413 -15.087  0.00  0.00    +0.092 C 
ATOM      3  C   UNL     1      37.092 -22.420 -16.009  0.00  0.00    +0.023 C 
ENDBRANCH   1   2
BRANCH   1   4
ATOM      4  C   UNL     1      35.846 -24.457 -13.597  0.00  0.00    +0.122 C 
ATOM      5  C   UNL     1      35.771 -23.748 -12.445  0.00  0.00    +0.195 C 
BRANCH   5   8
ATOM      6  O   UNL     1      37.315 -24.206 -10.840  0.00  0.00    -0.126 OA
ATOM      7  O   UNL     1      35.253 -24.932 -10.575  0.00  0.00    -0.126 OA
ATOM      8  N   UNL     1      36.136 -24.334 -11.205  0.00  0.00    +0.062 N 
ENDBRANCH   5   8
BRANCH   4   9
ATOM      9  N   UNL     1      36.285 -25.788 -13.595  0.00  0.00    -0.319 N 
ATOM     10  C   UNL     1      37.551 -26.302 -14.062  0.00  0.00    +0.109 C 
ATOM     11  H   UNL     1      35.655 -26.452 -13.233  0.00  0.00    +0.148 HD
ENDBRANCH   4   9
ENDBRANCH   1   4
BRANCH   1  12
ATOM     12  C   UNL     1      34.554 -24.360 -15.778  0.00  0.00    +0.120 C 
BRANCH  12  15
ATOM     13 CL   UNL     1      29.073 -22.207 -15.088  0.00  0.00    -0.061 Cl
ATOM     14  N   UNL     1      31.181 -22.823 -16.462  0.00  0.00    -0.233 NA
ATOM     15  C   UNL     1      33.172 -23.827 -15.551  0.00  0.00    +0.017 C 
ATOM     16  C   UNL     1      32.612 -23.835 -14.284  0.00  0.00    +0.001 C 
ATOM     17  C   UNL     1      32.432 -23.318 -16.599  0.00  0.00    +0.097 C 
ATOM     18  C   UNL     1      31.327 -23.335 -14.104  0.00  0.00    +0.031 C 
ATOM     19  C   UNL     1      30.660 -22.844 -15.216  0.00  0.00    +0.138 C 
ENDBRANCH  12  15
ENDBRANCH   1  12
TORSDOF 6
ENDMDL
MODEL 6
REMARK VINA RESULT:      -7.0      8.754     11.178
REMARK  Name = 3034287
REMARK  6 active torsions:
REMARK  status: ('A' for Active; 'I' for Inactive)
REMARK    1  A    between atoms: N_1  and  C_2
REMARK    2  A    between atoms: N_1  and  C_4
REMARK    3  A    between atoms: N_1  and  C_12
REMARK    4  A    between atoms: C_4  and  N_9
REMARK    5  A    between atoms: C_5  and  N_8
REMARK    6  A    between atoms: C_12  and  C_15
REMARK                            x       y       z     vdW  Elec       q    Type
REMARK                         _______ _______ _______ _____ _____    ______ ____
ROOT
ATOM      1  N   UNL     1      34.789 -18.163 -22.663  0.00  0.00    -0.291 N 
ENDROOT
BRANCH   1   2
ATOM      2  C   UNL     1      34.252 -18.614 -23.945  0.00  0.00    +0.092 C 
ATOM      3  C   UNL     1      34.722 -17.697 -25.059  0.00  0.00    +0.023 C 
ENDBRANCH   1   2
BRANCH   1   4
ATOM      4  C   UNL     1      34.756 -18.971 -21.491  0.00  0.00    +0.122 C 
ATOM      5  C   UNL     1      33.671 -19.765 -21.327  0.00  0.00    +0.195 C 
BRANCH   5   8
ATOM      6  O   UNL     1      32.497 -20.507 -19.527  0.00  0.00    -0.126 OA
ATOM      7  O   UNL     1      34.491 -21.354 -19.923  0.00  0.00    -0.126 OA
ATOM      8  N   UNL     1      33.545 -20.597 -20.184  0.00  0.00    +0.062 N 
ENDBRANCH   5   8
BRANCH   4   9
ATOM      9  N   UNL     1      35.782 -18.949 -20.537  0.00  0.00    -0.319 N 
ATOM     10  C   UNL     1      37.142 -19.412 -20.690  0.00  0.00    +0.109 C 
ATOM     11  H   UNL     1      35.550 -18.574 -19.658  0.00  0.00    +0.148 HD
ENDBRANCH   4   9
ENDBRANCH   1   4
BRANCH   1  12
ATOM     12  C   UNL     1      35.451 -16.857 -22.710  0.00  0.00    +0.120 C 
BRANCH  12  15
ATOM     13 CL   UNL     1      31.721 -12.546 -21.082  0.00  0.00    -0.061 Cl
ATOM     14  N   UNL     1      33.429 -13.677 -22.668  0.00  0.00    -0.233 NA
ATOM     15  C   UNL     1      34.497 -15.795 -22.254  0.00  0.00    +0.017 C 
ATOM     16  C   UNL     1      33.822 -15.922 -21.051  0.00  0.00    +0.001 C 
ATOM     17  C   UNL     1      34.275 -14.671 -23.022  0.00  0.00    +0.097 C 
ATOM     18  C   UNL     1      32.943 -14.921 -20.654  0.00  0.00    +0.031 C 
ATOM     19  C   UNL     1      32.784 -13.829 -21.491  0.00  0.00    +0.138 C 
ENDBRANCH  12  15
ENDBRANCH   1  12
TORSDOF 6
ENDMDL
MODEL 7
REMARK VINA RESULT:      -6.9      1.520      2.724
REMARK  Name = 3034287
REMARK  6 active torsions:
REMARK  status: ('A' for Active; 'I' for Inactive)
REMARK    1  A    between atoms: N_1  and  C_2
REMARK    2  A    between atoms: N_1  and  C_4
REMARK    3  A    between atoms: N_1  and  C_12
REMARK    4  A    between atoms: C_4  and  N_9
REMARK    5  A    between atoms: C_5  and  N_8
REMARK    6  A    between atoms: C_12  and  C_15
REMARK                            x       y       z     vdW  Elec       q    Type
REMARK                         _______ _______ _______ _____ _____    ______ ____
ROOT
ATOM      1  N   UNL     1      36.876 -24.739 -14.586  0.00  0.00    -0.291 N 
ENDROOT
BRANCH   1   2
ATOM      2  C   UNL     1      36.092 -25.795 -15.222  0.00  0.00    +0.092 C 
ATOM      3  C   UNL     1      36.718 -27.149 -14.946  0.00  0.00    +0.023 C 
ENDBRANCH   1   2
BRANCH   1   4
ATOM      4  C   UNL     1      38.220 -24.933 -14.158  0.00  0.00    +0.122 C 
ATOM      5  C   UNL     1      39.143 -25.153 -15.126  0.00  0.00    +0.195 C 
BRANCH   5   8
ATOM      6  O   UNL     1      41.224 -24.366 -14.657  0.00  0.00    -0.126 OA
ATOM      7  O   UNL     1      40.883 -26.542 -14.668  0.00  0.00    -0.126 OA
ATOM      8  N   UNL     1      40.506 -25.368 -14.795  0.00  0.00    +0.062 N 
ENDBRANCH   5   8
BRANCH   4   9
ATOM      9  N   UNL     1      38.586 -24.913 -12.806  0.00  0.00    -0.319 N 
ATOM     10  C   UNL     1      38.168 -23.975 -11.790  0.00  0.00    +0.109 C 
ATOM     11  H   UNL     1      39.203 -25.622 -12.513  0.00  0.00    +0.148 HD
ENDBRANCH   4   9
ENDBRANCH   1   4
BRANCH   1  12
ATOM     12  C   UNL     1      36.200 -23.441 -14.518  0.00  0.00    +0.120 C 
BRANCH  12  15
ATOM     13 CL   UNL     1      35.382 -21.319 -19.993  0.00  0.00    -0.061 Cl
ATOM     14  N   UNL     1      34.661 -22.584 -17.849  0.00  0.00    -0.233 NA
ATOM     15  C   UNL     1      36.043 -22.885 -15.900  0.00  0.00    +0.017 C 
ATOM     16  C   UNL     1      37.076 -22.185 -16.500  0.00  0.00    +0.001 C 
ATOM     17  C   UNL     1      34.867 -23.060 -16.600  0.00  0.00    +0.097 C 
ATOM     18  C   UNL     1      36.902 -21.679 -17.784  0.00  0.00    +0.031 C 
ATOM     19  C   UNL     1      35.686 -21.905 -18.410  0.00  0.00    +0.138 C 
ENDBRANCH  12  15
ENDBRANCH   1  12
TORSDOF 6
ENDMDL
MODEL 8
REMARK VINA RESULT:      -6.9      7.785     10.729
REMARK  Name = 3034287
REMARK  6 active torsions:
REMARK  status: ('A' for Active; 'I' for Inactive)
REMARK    1  A    between atoms: N_1  and  C_2
REMARK    2  A    between atoms: N_1  and  C_4
REMARK    3  A    between atoms: N_1  and  C_12
REMARK    4  A    between atoms: C_4  and  N_9
REMARK    5  A    between atoms: C_5  and  N_8
REMARK    6  A    between atoms: C_12  and  C_15
REMARK                            x       y       z     vdW  Elec       q    Type
REMARK                         _______ _______ _______ _____ _____    ______ ____
ROOT
ATOM      1  N   UNL     1      35.135 -18.383 -22.216  0.00  0.00    -0.291 N 
ENDROOT
BRANCH   1   2
ATOM      2  C   UNL     1      34.380 -19.241 -23.126  0.00  0.00    +0.092 C 
ATOM      3  C   UNL     1      35.024 -19.240 -24.500  0.00  0.00    +0.023 C 
ENDBRANCH   1   2
BRANCH   1   4
ATOM      4  C   UNL     1      34.879 -16.988 -22.087  0.00  0.00    +0.122 C 
ATOM      5  C   UNL     1      34.433 -16.559 -20.882  0.00  0.00    +0.195 C 
BRANCH   5   8
ATOM      6  O   UNL     1      32.956 -14.833 -20.772  0.00  0.00    -0.126 OA
ATOM      7  O   UNL     1      35.087 -14.441 -20.376  0.00  0.00    -0.126 OA
ATOM      8  N   UNL     1      34.140 -15.188 -20.662  0.00  0.00    +0.062 N 
ENDBRANCH   5   8
BRANCH   4   9
ATOM      9  N   UNL     1      35.064 -16.092 -23.147  0.00  0.00    -0.319 N 
ATOM     10  C   UNL     1      34.083 -15.644 -24.108  0.00  0.00    +0.109 C 
ATOM     11  H   UNL     1      35.971 -15.723 -23.250  0.00  0.00    +0.148 HD
ENDBRANCH   4   9
ENDBRANCH   1   4
BRANCH   1  12
ATOM     12  C   UNL     1      36.103 -19.095 -21.378  0.00  0.00    +0.120 C 
BRANCH  12  15
ATOM     13 CL   UNL     1      33.489 -23.311 -18.133  0.00  0.00    -0.061 Cl
ATOM     14  N   UNL     1      35.526 -22.103 -19.184  0.00  0.00    -0.233 NA
ATOM     15  C   UNL     1      35.395 -20.138 -20.570  0.00  0.00    +0.017 C 
ATOM     16  C   UNL     1      34.015 -20.123 -20.451  0.00  0.00    +0.001 C 
ATOM     17  C   UNL     1      36.104 -21.134 -19.929  0.00  0.00    +0.097 C 
ATOM     18  C   UNL     1      33.385 -21.103 -19.693  0.00  0.00    +0.031 C 
ATOM     19  C   UNL     1      34.179 -22.063 -19.086  0.00  0.00    +0.138 C 
ENDBRANCH  12  15
ENDBRANCH   1  12
TORSDOF 6
ENDMDL
MODEL 9
REMARK VINA RESULT:      -6.9     12.807     14.770
REMARK  Name = 3034287
REMARK  6 active torsions:
REMARK  status: ('A' for Active; 'I' for Inactive)
REMARK    1  A    between atoms: N_1  and  C_2
REMARK    2  A    between atoms: N_1  and  C_4
REMARK    3  A    between atoms: N_1  and  C_12
REMARK    4  A    between atoms: C_4  and  N_9
REMARK    5  A    between atoms: C_5  and  N_8
REMARK    6  A    between atoms: C_12  and  C_15
REMARK                            x       y       z     vdW  Elec       q    Type
REMARK                         _______ _______ _______ _____ _____    ______ ____
ROOT
ATOM      1  N   UNL     1      33.598 -14.652 -22.642  0.00  0.00    -0.291 N 
ENDROOT
BRANCH   1   2
ATOM      2  C   UNL     1      34.667 -14.496 -21.658  0.00  0.00    +0.092 C 
ATOM      3  C   UNL     1      34.533 -15.546 -20.570  0.00  0.00    +0.023 C 
ENDBRANCH   1   2
BRANCH   1   4
ATOM      4  C   UNL     1      33.835 -15.122 -23.965  0.00  0.00    +0.122 C 
ATOM      5  C   UNL     1      33.060 -14.601 -24.946  0.00  0.00    +0.195 C 
BRANCH   5   8
ATOM      6  O   UNL     1      33.687 -14.195 -27.094  0.00  0.00    -0.126 OA
ATOM      7  O   UNL     1      32.872 -16.174 -26.577  0.00  0.00    -0.126 OA
ATOM      8  N   UNL     1      33.216 -15.018 -26.294  0.00  0.00    +0.062 N 
ENDBRANCH   5   8
BRANCH   4   9
ATOM      9  N   UNL     1      34.811 -16.085 -24.253  0.00  0.00    -0.319 N 
ATOM     10  C   UNL     1      34.795 -17.489 -23.917  0.00  0.00    +0.109 C 
ATOM     11  H   UNL     1      35.603 -15.767 -24.743  0.00  0.00    +0.148 HD
ENDBRANCH   4   9
ENDBRANCH   1   4
BRANCH   1  12
ATOM     12  C   UNL     1      32.255 -14.381 -22.124  0.00  0.00    +0.120 C 
BRANCH  12  15
ATOM     13 CL   UNL     1      31.827  -8.584 -20.952  0.00  0.00    -0.061 Cl
ATOM     14  N   UNL     1      32.237 -10.630 -22.489  0.00  0.00    -0.233 NA
ATOM     15  C   UNL     1      32.135 -12.928 -21.776  0.00  0.00    +0.017 C 
ATOM     16  C   UNL     1      31.827 -12.534 -20.485  0.00  0.00    +0.001 C 
ATOM     17  C   UNL     1      32.330 -11.956 -22.736  0.00  0.00    +0.097 C 
ATOM     18  C   UNL     1      31.722 -11.179 -20.192  0.00  0.00    +0.031 C 
ATOM     19  C   UNL     1      31.935 -10.275 -21.221  0.00  0.00    +0.138 C 
ENDBRANCH  12  15
ENDBRANCH   1  12
TORSDOF 6
ENDMDL
