MODEL 1
REMARK VINA RESULT:     -10.0      0.000      0.000
REMARK  Name = 24405
REMARK  7 active torsions:
REMARK  status: ('A' for Active; 'I' for Inactive)
REMARK    1  A    between atoms: N_1  and  C1*_12
REMARK    2  A    between atoms: C2*_11  and  O2*_15
REMARK    3  A    between atoms: C3*_13  and  O3*_17
REMARK    4  A    between atoms: C4*_14  and  C5*_19
REMARK    5  A    between atoms: C5*_19  and  O5*_20
REMARK    6  A    between atoms: N_22  and  C_24
REMARK    7  A    between atoms: C_24  and  C_25
REMARK                            x       y       z     vdW  Elec       q    Type
REMARK                         _______ _______ _______ _____ _____    ______ ____
ROOT
ATOM      1  N   UNL     1      36.699 -23.021 -15.922  0.00  0.00    -0.247 N 
ATOM      2  N   UNL     1      37.131 -21.543 -17.536  0.00  0.00    -0.242 NA
ATOM      3  N   UNL     1      34.420 -23.622 -16.509  0.00  0.00    -0.228 NA
ATOM      4  N   UNL     1      33.664 -22.411 -18.489  0.00  0.00    -0.228 NA
ATOM      5  C   UNL     1      35.567 -22.948 -16.684  0.00  0.00    +0.152 C 
ATOM      6  C   UNL     1      37.609 -22.158 -16.475  0.00  0.00    +0.223 C 
ATOM      7  C   UNL     1      35.855 -22.028 -17.679  0.00  0.00    +0.140 C 
ATOM      8  C   UNL     1      34.850 -21.766 -18.604  0.00  0.00    +0.146 C 
ATOM      9  C   UNL     1      33.525 -23.286 -17.464  0.00  0.00    +0.253 C 
ATOM     10  N   UNL     1      35.057 -20.847 -19.647  0.00  0.00    -0.313 N 
ATOM     11  H   UNL     1      35.929 -20.393 -19.707  0.00  0.00    +0.149 HD
ENDROOT
BRANCH   1  14
ATOM     12  O4* UNL     1      38.308 -23.826 -14.374  0.00  0.00    -0.333 OA
ATOM     13  C2* UNL     1      36.520 -25.322 -14.945  0.00  0.00    +0.187 C 
ATOM     14  C1* UNL     1      36.912 -23.858 -14.740  0.00  0.00    +0.225 C 
ATOM     15  C3* UNL     1      37.861 -26.008 -15.121  0.00  0.00    +0.171 C 
ATOM     16  C4* UNL     1      38.766 -25.181 -14.225  0.00  0.00    +0.175 C 
BRANCH  13  17
ATOM     17  O2* UNL     1      35.845 -25.795 -13.781  0.00  0.00    -0.378 OA
ATOM     18  H2* UNL     1      35.522 -26.696 -13.937  0.00  0.00    +0.211 HD
ENDBRANCH  13  17
BRANCH  15  19
ATOM     19  O3* UNL     1      37.848 -27.371 -14.750  0.00  0.00    -0.379 OA
ATOM     20  H3* UNL     1      36.979 -27.752 -14.951  0.00  0.00    +0.211 HD
ENDBRANCH  15  19
BRANCH  16  21
ATOM     21  C5* UNL     1      40.235 -25.271 -14.602  0.00  0.00    +0.169 C 
BRANCH  21  22
ATOM     22  O5* UNL     1      40.339 -25.857 -15.888  0.00  0.00    -0.379 OA
ATOM     23  H5* UNL     1      39.541 -26.378 -16.070  0.00  0.00    +0.211 HD
ENDBRANCH  21  22
ENDBRANCH  16  21
ENDBRANCH   1  14
BRANCH  10  24
ATOM     24  C   UNL     1      34.058 -20.539 -20.628  0.00  0.00    +0.114 C 
BRANCH  24  25
ATOM     25  C   UNL     1      34.130 -19.079 -20.948  0.00  0.00    -0.013 C 
ATOM     26  C   UNL     1      34.511 -18.506 -22.106  0.00  0.00    -0.046 C 
ATOM     27  C   UNL     1      34.561 -17.027 -22.362  0.00  0.00    +0.026 C 
ATOM     28  C   UNL     1      34.943 -19.355 -23.272  0.00  0.00    +0.026 C 
ENDBRANCH  24  25
ENDBRANCH  10  24
TORSDOF 7
ENDMDL
MODEL 2
REMARK VINA RESULT:      -9.9      1.471      1.952
REMARK  Name = 24405
REMARK  7 active torsions:
REMARK  status: ('A' for Active; 'I' for Inactive)
REMARK    1  A    between atoms: N_1  and  C1*_12
REMARK    2  A    between atoms: C2*_11  and  O2*_15
REMARK    3  A    between atoms: C3*_13  and  O3*_17
REMARK    4  A    between atoms: C4*_14  and  C5*_19
REMARK    5  A    between atoms: C5*_19  and  O5*_20
REMARK    6  A    between atoms: N_22  and  C_24
REMARK    7  A    between atoms: C_24  and  C_25
REMARK                            x       y       z     vdW  Elec       q    Type
REMARK                         _______ _______ _______ _____ _____    ______ ____
ROOT
ATOM      1  N   UNL     1      36.099 -23.016 -15.988  0.00  0.00    -0.247 N 
ATOM      2  N   UNL     1      37.167 -21.497 -17.224  0.00  0.00    -0.242 NA
ATOM      3  N   UNL     1      34.139 -23.376 -17.376  0.00  0.00    -0.228 NA
ATOM      4  N   UNL     1      34.209 -21.995 -19.388  0.00  0.00    -0.228 NA
ATOM      5  C   UNL     1      35.315 -22.800 -17.086  0.00  0.00    +0.152 C 
ATOM      6  C   UNL     1      37.200 -22.209 -16.118  0.00  0.00    +0.223 C 
ATOM      7  C   UNL     1      35.994 -21.856 -17.840  0.00  0.00    +0.140 C 
ATOM      8  C   UNL     1      35.399 -21.455 -19.031  0.00  0.00    +0.146 C 
ATOM      9  C   UNL     1      33.660 -22.909 -18.550  0.00  0.00    +0.253 C 
ATOM     10  N   UNL     1      36.019 -20.502 -19.858  0.00  0.00    -0.313 N 
ATOM     11  H   UNL     1      36.883 -20.126 -19.574  0.00  0.00    +0.149 HD
ENDROOT
BRANCH   1  14
ATOM     12  O4* UNL     1      35.837 -23.198 -13.636  0.00  0.00    -0.333 OA
ATOM     13  C2* UNL     1      36.846 -25.066 -14.755  0.00  0.00    +0.187 C 
ATOM     14  C1* UNL     1      35.827 -23.932 -14.879  0.00  0.00    +0.225 C 
ATOM     15  C3* UNL     1      37.706 -24.620 -13.588  0.00  0.00    +0.171 C 
ATOM     16  C4* UNL     1      36.708 -23.878 -12.717  0.00  0.00    +0.175 C 
BRANCH  13  17
ATOM     17  O2* UNL     1      36.162 -26.282 -14.458  0.00  0.00    -0.378 OA
ATOM     18  H2* UNL     1      35.213 -26.104 -14.362  0.00  0.00    +0.211 HD
ENDBRANCH  13  17
BRANCH  15  19
ATOM     19  O3* UNL     1      38.319 -25.689 -12.901  0.00  0.00    -0.379 OA
ATOM     20  H3* UNL     1      39.261 -25.493 -12.772  0.00  0.00    +0.211 HD
ENDBRANCH  15  19
BRANCH  16  21
ATOM     21  C5* UNL     1      37.352 -22.872 -11.779  0.00  0.00    +0.169 C 
BRANCH  21  22
ATOM     22  O5* UNL     1      38.735 -23.169 -11.677  0.00  0.00    -0.379 OA
ATOM     23  H5* UNL     1      39.191 -22.863 -12.476  0.00  0.00    +0.211 HD
ENDBRANCH  21  22
ENDBRANCH  16  21
ENDBRANCH   1  14
BRANCH  10  24
ATOM     24  C   UNL     1      35.451 -20.052 -21.095  0.00  0.00    +0.114 C 
BRANCH  24  25
ATOM     25  C   UNL     1      35.177 -18.585 -20.994  0.00  0.00    -0.013 C 
ATOM     26  C   UNL     1      35.089 -17.692 -21.999  0.00  0.00    -0.046 C 
ATOM     27  C   UNL     1      34.810 -16.225 -21.829  0.00  0.00    +0.026 C 
ATOM     28  C   UNL     1      35.285 -18.126 -23.427  0.00  0.00    +0.026 C 
ENDBRANCH  24  25
ENDBRANCH  10  24
TORSDOF 7
ENDMDL
MODEL 3
REMARK VINA RESULT:      -9.5      5.417      9.037
REMARK  Name = 24405
REMARK  7 active torsions:
REMARK  status: ('A' for Active; 'I' for Inactive)
REMARK    1  A    between atoms: N_1  and  C1*_12
REMARK    2  A    between atoms: C2*_11  and  O2*_15
REMARK    3  A    between atoms: C3*_13  and  O3*_17
REMARK    4  A    between atoms: C4*_14  and  C5*_19
REMARK    5  A    between atoms: C5*_19  and  O5*_20
REMARK    6  A    between atoms: N_22  and  C_24
REMARK    7  A    between atoms: C_24  and  C_25
REMARK                            x       y       z     vdW  Elec       q    Type
REMARK                         _______ _______ _______ _____ _____    ______ ____
ROOT
ATOM      1  N   UNL     1      34.456 -19.271 -21.006  0.00  0.00    -0.247 N 
ATOM      2  N   UNL     1      32.689 -20.440 -20.309  0.00  0.00    -0.242 NA
ATOM      3  N   UNL     1      36.224 -20.454 -19.835  0.00  0.00    -0.228 NA
ATOM      4  N   UNL     1      35.330 -22.288 -18.495  0.00  0.00    -0.228 NA
ATOM      5  C   UNL     1      34.945 -20.238 -20.174  0.00  0.00    +0.152 C 
ATOM      6  C   UNL     1      33.096 -19.434 -21.054  0.00  0.00    +0.223 C 
ATOM      7  C   UNL     1      33.834 -20.952 -19.753  0.00  0.00    +0.140 C 
ATOM      8  C   UNL     1      34.061 -22.012 -18.882  0.00  0.00    +0.146 C 
ATOM      9  C   UNL     1      36.319 -21.503 -18.989  0.00  0.00    +0.253 C 
ATOM     10  N   UNL     1      32.992 -22.791 -18.404  0.00  0.00    -0.313 N 
ATOM     11  H   UNL     1      32.080 -22.568 -18.702  0.00  0.00    +0.149 HD
ENDROOT
BRANCH   1  14
ATOM     12  O4* UNL     1      35.350 -17.075 -20.888  0.00  0.00    -0.333 OA
ATOM     13  C2* UNL     1      34.598 -17.818 -23.043  0.00  0.00    +0.187 C 
ATOM     14  C1* UNL     1      35.228 -18.250 -21.717  0.00  0.00    +0.225 C 
ATOM     15  C3* UNL     1      33.982 -16.475 -22.701  0.00  0.00    +0.171 C 
ATOM     16  C4* UNL     1      34.947 -15.932 -21.661  0.00  0.00    +0.175 C 
BRANCH  13  17
ATOM     17  O2* UNL     1      35.623 -17.681 -24.026  0.00  0.00    -0.378 OA
ATOM     18  H2* UNL     1      36.463 -18.005 -23.666  0.00  0.00    +0.211 HD
ENDBRANCH  13  17
BRANCH  15  19
ATOM     19  O3* UNL     1      33.859 -15.613 -23.812  0.00  0.00    -0.379 OA
ATOM     20  H3* UNL     1      33.454 -16.094 -24.551  0.00  0.00    +0.211 HD
ENDBRANCH  15  19
BRANCH  16  21
ATOM     21  C5* UNL     1      34.330 -14.886 -20.750  0.00  0.00    +0.169 C 
BRANCH  21  22
ATOM     22  O5* UNL     1      32.952 -14.771 -21.060  0.00  0.00    -0.379 OA
ATOM     23  H5* UNL     1      32.551 -15.654 -21.085  0.00  0.00    +0.211 HD
ENDBRANCH  21  22
ENDBRANCH  16  21
ENDBRANCH   1  14
BRANCH  10  24
ATOM     24  C   UNL     1      33.168 -23.894 -17.506  0.00  0.00    +0.114 C 
BRANCH  24  25
ATOM     25  C   UNL     1      32.962 -23.411 -16.105  0.00  0.00    -0.013 C 
ATOM     26  C   UNL     1      31.800 -23.299 -15.433  0.00  0.00    -0.046 C 
ATOM     27  C   UNL     1      31.662 -22.805 -14.021  0.00  0.00    +0.026 C 
ATOM     28  C   UNL     1      30.498 -23.669 -16.093  0.00  0.00    +0.026 C 
ENDBRANCH  24  25
ENDBRANCH  10  24
TORSDOF 7
ENDMDL
MODEL 4
REMARK VINA RESULT:      -9.1      8.038     12.214
REMARK  Name = 24405
REMARK  7 active torsions:
REMARK  status: ('A' for Active; 'I' for Inactive)
REMARK    1  A    between atoms: N_1  and  C1*_12
REMARK    2  A    between atoms: C2*_11  and  O2*_15
REMARK    3  A    between atoms: C3*_13  and  O3*_17
REMARK    4  A    between atoms: C4*_14  and  C5*_19
REMARK    5  A    between atoms: C5*_19  and  O5*_20
REMARK    6  A    between atoms: N_22  and  C_24
REMARK    7  A    between atoms: C_24  and  C_25
REMARK                            x       y       z     vdW  Elec       q    Type
REMARK                         _______ _______ _______ _____ _____    ______ ____
ROOT
ATOM      1  N   UNL     1      33.012 -14.128 -22.267  0.00  0.00    -0.247 N 
ATOM      2  N   UNL     1      33.819 -15.210 -20.491  0.00  0.00    -0.242 NA
ATOM      3  N   UNL     1      33.757 -15.618 -24.034  0.00  0.00    -0.228 NA
ATOM      4  N   UNL     1      34.985 -17.524 -23.130  0.00  0.00    -0.228 NA
ATOM      5  C   UNL     1      33.640 -15.240 -22.752  0.00  0.00    +0.152 C 
ATOM      6  C   UNL     1      33.148 -14.155 -20.903  0.00  0.00    +0.223 C 
ATOM      7  C   UNL     1      34.133 -15.897 -21.637  0.00  0.00    +0.140 C 
ATOM      8  C   UNL     1      34.828 -17.081 -21.859  0.00  0.00    +0.146 C 
ATOM      9  C   UNL     1      34.447 -16.776 -24.125  0.00  0.00    +0.253 C 
ATOM     10  N   UNL     1      35.362 -17.813 -20.785  0.00  0.00    -0.313 N 
ATOM     11  H   UNL     1      35.233 -17.468 -19.872  0.00  0.00    +0.149 HD
ENDROOT
BRANCH   1  14
ATOM     12  O4* UNL     1      33.118 -12.750 -24.198  0.00  0.00    -0.333 OA
ATOM     13  C2* UNL     1      32.056 -11.812 -22.260  0.00  0.00    +0.187 C 
ATOM     14  C1* UNL     1      32.321 -13.098 -23.045  0.00  0.00    +0.225 C 
ATOM     15  C3* UNL     1      33.117 -10.868 -22.792  0.00  0.00    +0.171 C 
ATOM     16  C4* UNL     1      33.258 -11.320 -24.235  0.00  0.00    +0.175 C 
BRANCH  13  17
ATOM     17  O2* UNL     1      30.745 -11.339 -22.564  0.00  0.00    -0.378 OA
ATOM     18  H2* UNL     1      30.365 -11.872 -23.280  0.00  0.00    +0.211 HD
ENDBRANCH  13  17
BRANCH  15  19
ATOM     19  O3* UNL     1      32.759  -9.506 -22.695  0.00  0.00    -0.379 OA
ATOM     20  H3* UNL     1      32.871  -9.207 -21.778  0.00  0.00    +0.211 HD
ENDBRANCH  15  19
BRANCH  16  21
ATOM     21  C5* UNL     1      34.592 -10.951 -24.858  0.00  0.00    +0.169 C 
BRANCH  21  22
ATOM     22  O5* UNL     1      35.260 -10.045 -23.996  0.00  0.00    -0.379 OA
ATOM     23  H5* UNL     1      36.209 -10.248 -23.988  0.00  0.00    +0.211 HD
ENDBRANCH  21  22
ENDBRANCH  16  21
ENDBRANCH   1  14
BRANCH  10  24
ATOM     24  C   UNL     1      36.086 -19.038 -20.956  0.00  0.00    +0.114 C 
BRANCH  24  25
ATOM     25  C   UNL     1      35.181 -20.183 -20.622  0.00  0.00    -0.013 C 
ATOM     26  C   UNL     1      35.402 -21.180 -19.744  0.00  0.00    -0.046 C 
ATOM     27  C   UNL     1      34.448 -22.304 -19.456  0.00  0.00    +0.026 C 
ATOM     28  C   UNL     1      36.689 -21.242 -18.966  0.00  0.00    +0.026 C 
ENDBRANCH  24  25
ENDBRANCH  10  24
TORSDOF 7
ENDMDL
MODEL 5
REMARK VINA RESULT:      -9.1      7.690     11.952
REMARK  Name = 24405
REMARK  7 active torsions:
REMARK  status: ('A' for Active; 'I' for Inactive)
REMARK    1  A    between atoms: N_1  and  C1*_12
REMARK    2  A    between atoms: C2*_11  and  O2*_15
REMARK    3  A    between atoms: C3*_13  and  O3*_17
REMARK    4  A    between atoms: C4*_14  and  C5*_19
REMARK    5  A    between atoms: C5*_19  and  O5*_20
REMARK    6  A    between atoms: N_22  and  C_24
REMARK    7  A    between atoms: C_24  and  C_25
REMARK                            x       y       z     vdW  Elec       q    Type
REMARK                         _______ _______ _______ _____ _____    ______ ____
ROOT
ATOM      1  N   UNL     1      33.480 -14.503 -22.405  0.00  0.00    -0.247 N 
ATOM      2  N   UNL     1      34.287 -15.466 -20.562  0.00  0.00    -0.242 NA
ATOM      3  N   UNL     1      34.133 -16.158 -24.058  0.00  0.00    -0.228 NA
ATOM      4  N   UNL     1      35.311 -18.029 -23.024  0.00  0.00    -0.228 NA
ATOM      5  C   UNL     1      34.058 -15.673 -22.809  0.00  0.00    +0.152 C 
ATOM      6  C   UNL     1      33.646 -14.424 -21.046  0.00  0.00    +0.223 C 
ATOM      7  C   UNL     1      34.551 -16.255 -21.653  0.00  0.00    +0.140 C 
ATOM      8  C   UNL     1      35.198 -17.479 -21.791  0.00  0.00    +0.146 C 
ATOM      9  C   UNL     1      34.779 -17.344 -24.066  0.00  0.00    +0.253 C 
ATOM     10  N   UNL     1      35.729 -18.141 -20.671  0.00  0.00    -0.313 N 
ATOM     11  H   UNL     1      35.632 -17.718 -19.787  0.00  0.00    +0.149 HD
ENDROOT
BRANCH   1  14
ATOM     12  O4* UNL     1      32.414 -14.133 -24.493  0.00  0.00    -0.333 OA
ATOM     13  C2* UNL     1      33.685 -12.306 -23.594  0.00  0.00    +0.187 C 
ATOM     14  C1* UNL     1      32.810 -13.514 -23.250  0.00  0.00    +0.225 C 
ATOM     15  C3* UNL     1      34.101 -12.588 -25.024  0.00  0.00    +0.171 C 
ATOM     16  C4* UNL     1      32.888 -13.316 -25.577  0.00  0.00    +0.175 C 
BRANCH  13  17
ATOM     17  O2* UNL     1      32.899 -11.119 -23.508  0.00  0.00    -0.378 OA
ATOM     18  H2* UNL     1      33.374 -10.453 -22.986  0.00  0.00    +0.211 HD
ENDBRANCH  13  17
BRANCH  15  19
ATOM     19  O3* UNL     1      34.402 -11.422 -25.762  0.00  0.00    -0.379 OA
ATOM     20  H3* UNL     1      34.901 -10.806 -25.204  0.00  0.00    +0.211 HD
ENDBRANCH  15  19
BRANCH  16  21
ATOM     21  C5* UNL     1      33.202 -14.189 -26.779  0.00  0.00    +0.169 C 
BRANCH  21  22
ATOM     22  O5* UNL     1      33.876 -13.403 -27.747  0.00  0.00    -0.379 OA
ATOM     23  H5* UNL     1      33.261 -12.750 -28.117  0.00  0.00    +0.211 HD
ENDBRANCH  21  22
ENDBRANCH  16  21
ENDBRANCH   1  14
BRANCH  10  24
ATOM     24  C   UNL     1      36.404 -19.403 -20.755  0.00  0.00    +0.114 C 
BRANCH  24  25
ATOM     25  C   UNL     1      35.418 -20.496 -20.484  0.00  0.00    -0.013 C 
ATOM     26  C   UNL     1      35.452 -21.411 -19.496  0.00  0.00    -0.046 C 
ATOM     27  C   UNL     1      34.426 -22.487 -19.280  0.00  0.00    +0.026 C 
ATOM     28  C   UNL     1      36.584 -21.421 -18.503  0.00  0.00    +0.026 C 
ENDBRANCH  24  25
ENDBRANCH  10  24
TORSDOF 7
ENDMDL
MODEL 6
REMARK VINA RESULT:      -9.1      1.549      2.401
REMARK  Name = 24405
REMARK  7 active torsions:
REMARK  status: ('A' for Active; 'I' for Inactive)
REMARK    1  A    between atoms: N_1  and  C1*_12
REMARK    2  A    between atoms: C2*_11  and  O2*_15
REMARK    3  A    between atoms: C3*_13  and  O3*_17
REMARK    4  A    between atoms: C4*_14  and  C5*_19
REMARK    5  A    between atoms: C5*_19  and  O5*_20
REMARK    6  A    between atoms: N_22  and  C_24
REMARK    7  A    between atoms: C_24  and  C_25
REMARK                            x       y       z     vdW  Elec       q    Type
REMARK                         _______ _______ _______ _____ _____    ______ ____
ROOT
ATOM      1  N   UNL     1      35.574 -23.279 -14.609  0.00  0.00    -0.247 N 
ATOM      2  N   UNL     1      33.720 -23.382 -15.846  0.00  0.00    -0.242 NA
ATOM      3  N   UNL     1      37.100 -22.309 -16.230  0.00  0.00    -0.228 NA
ATOM      4  N   UNL     1      35.988 -21.902 -18.365  0.00  0.00    -0.228 NA
ATOM      5  C   UNL     1      35.906 -22.775 -15.835  0.00  0.00    +0.152 C 
ATOM      6  C   UNL     1      34.250 -23.631 -14.667  0.00  0.00    +0.223 C 
ATOM      7  C   UNL     1      34.744 -22.847 -16.586  0.00  0.00    +0.140 C 
ATOM      8  C   UNL     1      34.813 -22.386 -17.897  0.00  0.00    +0.146 C 
ATOM      9  C   UNL     1      37.044 -21.893 -17.514  0.00  0.00    +0.253 C 
ATOM     10  N   UNL     1      33.682 -22.422 -18.730  0.00  0.00    -0.313 N 
ATOM     11  H   UNL     1      32.840 -22.779 -18.364  0.00  0.00    +0.149 HD
ENDROOT
BRANCH   1  14
ATOM     12  O4* UNL     1      37.792 -23.732 -13.895  0.00  0.00    -0.333 OA
ATOM     13  C2* UNL     1      36.022 -24.527 -12.482  0.00  0.00    +0.187 C 
ATOM     14  C1* UNL     1      36.454 -23.423 -13.449  0.00  0.00    +0.225 C 
ATOM     15  C3* UNL     1      36.993 -25.648 -12.796  0.00  0.00    +0.171 C 
ATOM     16  C4* UNL     1      38.252 -24.888 -13.175  0.00  0.00    +0.175 C 
BRANCH  13  17
ATOM     17  O2* UNL     1      36.179 -24.065 -11.142  0.00  0.00    -0.378 OA
ATOM     18  H2* UNL     1      35.652 -24.619 -10.544  0.00  0.00    +0.211 HD
ENDBRANCH  13  17
BRANCH  15  19
ATOM     19  O3* UNL     1      37.209 -26.525 -11.710  0.00  0.00    -0.379 OA
ATOM     20  H3* UNL     1      37.926 -26.181 -11.154  0.00  0.00    +0.211 HD
ENDBRANCH  15  19
BRANCH  16  21
ATOM     21  C5* UNL     1      39.204 -25.690 -14.045  0.00  0.00    +0.169 C 
BRANCH  21  22
ATOM     22  O5* UNL     1      38.528 -26.845 -14.512  0.00  0.00    -0.379 OA
ATOM     23  H5* UNL     1      38.543 -26.858 -15.482  0.00  0.00    +0.211 HD
ENDBRANCH  21  22
ENDBRANCH  16  21
ENDBRANCH   1  14
BRANCH  10  24
ATOM     24  C   UNL     1      33.695 -21.961 -20.088  0.00  0.00    +0.114 C 
BRANCH  24  25
ATOM     25  C   UNL     1      33.296 -20.519 -20.111  0.00  0.00    -0.013 C 
ATOM     26  C   UNL     1      33.827 -19.528 -20.853  0.00  0.00    -0.046 C 
ATOM     27  C   UNL     1      33.379 -18.094 -20.829  0.00  0.00    +0.026 C 
ATOM     28  C   UNL     1      34.970 -19.807 -21.794  0.00  0.00    +0.026 C 
ENDBRANCH  24  25
ENDBRANCH  10  24
TORSDOF 7
ENDMDL
MODEL 7
REMARK VINA RESULT:      -8.8      6.617     10.029
REMARK  Name = 24405
REMARK  7 active torsions:
REMARK  status: ('A' for Active; 'I' for Inactive)
REMARK    1  A    between atoms: N_1  and  C1*_12
REMARK    2  A    between atoms: C2*_11  and  O2*_15
REMARK    3  A    between atoms: C3*_13  and  O3*_17
REMARK    4  A    between atoms: C4*_14  and  C5*_19
REMARK    5  A    between atoms: C5*_19  and  O5*_20
REMARK    6  A    between atoms: N_22  and  C_24
REMARK    7  A    between atoms: C_24  and  C_25
REMARK                            x       y       z     vdW  Elec       q    Type
REMARK                         _______ _______ _______ _____ _____    ______ ____
ROOT
ATOM      1  N   UNL     1      33.753 -16.518 -21.969  0.00  0.00    -0.247 N 
ATOM      2  N   UNL     1      32.556 -15.176 -20.649  0.00  0.00    -0.242 NA
ATOM      3  N   UNL     1      33.915 -15.119 -23.947  0.00  0.00    -0.228 NA
ATOM      4  N   UNL     1      32.762 -12.991 -23.627  0.00  0.00    -0.228 NA
ATOM      5  C   UNL     1      33.516 -15.385 -22.694  0.00  0.00    +0.152 C 
ATOM      6  C   UNL     1      33.155 -16.343 -20.748  0.00  0.00    +0.223 C 
ATOM      7  C   UNL     1      32.773 -14.566 -21.859  0.00  0.00    +0.140 C 
ATOM      8  C   UNL     1      32.394 -13.327 -22.367  0.00  0.00    +0.146 C 
ATOM      9  C   UNL     1      33.489 -13.894 -24.329  0.00  0.00    +0.253 C 
ATOM     10  N   UNL     1      31.640 -12.433 -21.588  0.00  0.00    -0.313 N 
ATOM     11  H   UNL     1      31.387 -12.703 -20.676  0.00  0.00    +0.149 HD
ENDROOT
BRANCH   1  14
ATOM     12  O4* UNL     1      33.785 -18.891 -22.012  0.00  0.00    -0.333 OA
ATOM     13  C2* UNL     1      35.907 -17.788 -21.805  0.00  0.00    +0.187 C 
ATOM     14  C1* UNL     1      34.501 -17.699 -22.402  0.00  0.00    +0.225 C 
ATOM     15  C3* UNL     1      35.748 -18.838 -20.722  0.00  0.00    +0.171 C 
ATOM     16  C4* UNL     1      34.697 -19.759 -21.317  0.00  0.00    +0.175 C 
BRANCH  13  17
ATOM     17  O2* UNL     1      36.819 -18.220 -22.813  0.00  0.00    -0.378 OA
ATOM     18  H2* UNL     1      37.134 -19.114 -22.604  0.00  0.00    +0.211 HD
ENDBRANCH  13  17
BRANCH  15  19
ATOM     19  O3* UNL     1      36.945 -19.522 -20.421  0.00  0.00    -0.379 OA
ATOM     20  H3* UNL     1      37.696 -19.046 -20.809  0.00  0.00    +0.211 HD
ENDBRANCH  15  19
BRANCH  16  21
ATOM     21  C5* UNL     1      33.943 -20.569 -20.277  0.00  0.00    +0.169 C 
BRANCH  21  22
ATOM     22  O5* UNL     1      32.557 -20.501 -20.567  0.00  0.00    -0.379 OA
ATOM     23  H5* UNL     1      32.376 -19.708 -21.096  0.00  0.00    +0.211 HD
ENDBRANCH  21  22
ENDBRANCH  16  21
ENDBRANCH   1  14
BRANCH  10  24
ATOM     24  C   UNL     1      31.223 -11.145 -22.060  0.00  0.00    +0.114 C 
BRANCH  24  25
ATOM     25  C   UNL     1      31.778 -10.095 -21.149  0.00  0.00    -0.013 C 
ATOM     26  C   UNL     1      31.986  -8.793 -21.422  0.00  0.00    -0.046 C 
ATOM     27  C   UNL     1      32.550  -7.787 -20.458  0.00  0.00    +0.026 C 
ATOM     28  C   UNL     1      31.662  -8.236 -22.783  0.00  0.00    +0.026 C 
ENDBRANCH  24  25
ENDBRANCH  10  24
TORSDOF 7
ENDMDL
MODEL 8
REMARK VINA RESULT:      -8.8      8.210     12.309
REMARK  Name = 24405
REMARK  7 active torsions:
REMARK  status: ('A' for Active; 'I' for Inactive)
REMARK    1  A    between atoms: N_1  and  C1*_12
REMARK    2  A    between atoms: C2*_11  and  O2*_15
REMARK    3  A    between atoms: C3*_13  and  O3*_17
REMARK    4  A    between atoms: C4*_14  and  C5*_19
REMARK    5  A    between atoms: C5*_19  and  O5*_20
REMARK    6  A    between atoms: N_22  and  C_24
REMARK    7  A    between atoms: C_24  and  C_25
REMARK                            x       y       z     vdW  Elec       q    Type
REMARK                         _______ _______ _______ _____ _____    ______ ____
ROOT
ATOM      1  N   UNL     1      33.666 -14.733 -23.926  0.00  0.00    -0.247 N 
ATOM      2  N   UNL     1      34.526 -16.757 -24.301  0.00  0.00    -0.242 NA
ATOM      3  N   UNL     1      33.969 -14.593 -21.520  0.00  0.00    -0.228 NA
ATOM      4  N   UNL     1      35.020 -16.612 -20.638  0.00  0.00    -0.228 NA
ATOM      5  C   UNL     1      34.067 -15.207 -22.709  0.00  0.00    +0.152 C 
ATOM      6  C   UNL     1      33.963 -15.702 -24.850  0.00  0.00    +0.223 C 
ATOM      7  C   UNL     1      34.597 -16.462 -22.963  0.00  0.00    +0.140 C 
ATOM      8  C   UNL     1      35.086 -17.171 -21.870  0.00  0.00    +0.146 C 
ATOM      9  C   UNL     1      34.473 -15.375 -20.541  0.00  0.00    +0.253 C 
ATOM     10  N   UNL     1      35.642 -18.451 -22.036  0.00  0.00    -0.313 N 
ATOM     11  H   UNL     1      35.677 -18.834 -22.943  0.00  0.00    +0.149 HD
ENDROOT
BRANCH   1  14
ATOM     12  O4* UNL     1      33.321 -13.051 -25.564  0.00  0.00    -0.333 OA
ATOM     13  C2* UNL     1      33.524 -12.313 -23.289  0.00  0.00    +0.187 C 
ATOM     14  C1* UNL     1      33.038 -13.440 -24.203  0.00  0.00    +0.225 C 
ATOM     15  C3* UNL     1      34.474 -11.540 -24.183  0.00  0.00    +0.171 C 
ATOM     16  C4* UNL     1      33.839 -11.709 -25.552  0.00  0.00    +0.175 C 
BRANCH  13  17
ATOM     17  O2* UNL     1      32.410 -11.511 -22.902  0.00  0.00    -0.378 OA
ATOM     18  H2* UNL     1      31.692 -11.620 -23.545  0.00  0.00    +0.211 HD
ENDBRANCH  13  17
BRANCH  15  19
ATOM     19  O3* UNL     1      34.604 -10.181 -23.823  0.00  0.00    -0.379 OA
ATOM     20  H3* UNL     1      33.846  -9.682 -24.164  0.00  0.00    +0.211 HD
ENDBRANCH  15  19
BRANCH  16  21
ATOM     21  C5* UNL     1      34.817 -11.526 -26.699  0.00  0.00    +0.169 C 
BRANCH  21  22
ATOM     22  O5* UNL     1      35.677 -10.441 -26.393  0.00  0.00    -0.379 OA
ATOM     23  H5* UNL     1      36.435 -10.450 -26.998  0.00  0.00    +0.211 HD
ENDBRANCH  21  22
ENDBRANCH  16  21
ENDBRANCH   1  14
BRANCH  10  24
ATOM     24  C   UNL     1      36.160 -19.226 -20.948  0.00  0.00    +0.114 C 
BRANCH  24  25
ATOM     25  C   UNL     1      35.132 -20.235 -20.542  0.00  0.00    -0.013 C 
ATOM     26  C   UNL     1      35.258 -21.221 -19.633  0.00  0.00    -0.046 C 
ATOM     27  C   UNL     1      34.182 -22.205 -19.270  0.00  0.00    +0.026 C 
ATOM     28  C   UNL     1      36.555 -21.417 -18.893  0.00  0.00    +0.026 C 
ENDBRANCH  24  25
ENDBRANCH  10  24
TORSDOF 7
ENDMDL
MODEL 9
REMARK VINA RESULT:      -8.8      2.798      4.581
REMARK  Name = 24405
REMARK  7 active torsions:
REMARK  status: ('A' for Active; 'I' for Inactive)
REMARK    1  A    between atoms: N_1  and  C1*_12
REMARK    2  A    between atoms: C2*_11  and  O2*_15
REMARK    3  A    between atoms: C3*_13  and  O3*_17
REMARK    4  A    between atoms: C4*_14  and  C5*_19
REMARK    5  A    between atoms: C5*_19  and  O5*_20
REMARK    6  A    between atoms: N_22  and  C_24
REMARK    7  A    between atoms: C_24  and  C_25
REMARK                            x       y       z     vdW  Elec       q    Type
REMARK                         _______ _______ _______ _____ _____    ______ ____
ROOT
ATOM      1  N   UNL     1      33.666 -22.470 -18.247  0.00  0.00    -0.247 N 
ATOM      2  N   UNL     1      32.817 -20.929 -19.619  0.00  0.00    -0.242 NA
ATOM      3  N   UNL     1      36.032 -22.181 -18.712  0.00  0.00    -0.228 NA
ATOM      4  N   UNL     1      36.404 -20.434 -20.376  0.00  0.00    -0.228 NA
ATOM      5  C   UNL     1      34.732 -21.892 -18.875  0.00  0.00    +0.152 C 
ATOM      6  C   UNL     1      32.538 -21.857 -18.729  0.00  0.00    +0.223 C 
ATOM      7  C   UNL     1      34.186 -20.939 -19.720  0.00  0.00    +0.140 C 
ATOM      8  C   UNL     1      35.075 -20.195 -20.489  0.00  0.00    +0.146 C 
ATOM      9  C   UNL     1      36.794 -21.399 -19.506  0.00  0.00    +0.253 C 
ATOM     10  N   UNL     1      34.608 -19.208 -21.373  0.00  0.00    -0.313 N 
ATOM     11  H   UNL     1      33.637 -19.055 -21.435  0.00  0.00    +0.149 HD
ENDROOT
BRANCH   1  14
ATOM     12  O4* UNL     1      32.462 -23.561 -16.517  0.00  0.00    -0.333 OA
ATOM     13  C2* UNL     1      34.839 -23.387 -16.231  0.00  0.00    +0.187 C 
ATOM     14  C1* UNL     1      33.707 -23.539 -17.249  0.00  0.00    +0.225 C 
ATOM     15  C3* UNL     1      34.119 -22.874 -14.999  0.00  0.00    +0.171 C 
ATOM     16  C4* UNL     1      32.765 -23.552 -15.111  0.00  0.00    +0.175 C 
BRANCH  13  17
ATOM     17  O2* UNL     1      35.429 -24.664 -15.991  0.00  0.00    -0.378 OA
ATOM     18  H2* UNL     1      35.704 -24.724 -15.063  0.00  0.00    +0.211 HD
ENDBRANCH  13  17
BRANCH  15  19
ATOM     19  O3* UNL     1      34.775 -23.194 -13.791  0.00  0.00    -0.379 OA
ATOM     20  H3* UNL     1      34.268 -22.838 -13.044  0.00  0.00    +0.211 HD
ENDBRANCH  15  19
BRANCH  16  21
ATOM     21  C5* UNL     1      31.663 -22.833 -14.353  0.00  0.00    +0.169 C 
BRANCH  21  22
ATOM     22  O5* UNL     1      31.957 -22.886 -12.967  0.00  0.00    -0.379 OA
ATOM     23  H5* UNL     1      31.558 -23.683 -12.583  0.00  0.00    +0.211 HD
ENDBRANCH  21  22
ENDBRANCH  16  21
ENDBRANCH   1  14
BRANCH  10  24
ATOM     24  C   UNL     1      35.478 -18.412 -22.188  0.00  0.00    +0.114 C 
BRANCH  24  25
ATOM     25  C   UNL     1      35.025 -16.987 -22.128  0.00  0.00    -0.013 C 
ATOM     26  C   UNL     1      34.698 -16.181 -23.157  0.00  0.00    -0.046 C 
ATOM     27  C   UNL     1      34.249 -14.753 -23.027  0.00  0.00    +0.026 C 
ATOM     28  C   UNL     1      34.778 -16.682 -24.574  0.00  0.00    +0.026 C 
ENDBRANCH  24  25
ENDBRANCH  10  24
TORSDOF 7
ENDMDL
