MODEL 1
REMARK VINA RESULT:      -4.1      0.000      0.000
REMARK  Name = 77022
REMARK  0 active torsions:
REMARK  status: ('A' for Active; 'I' for Inactive)
REMARK                            x       y       z     vdW  Elec       q    Type
REMARK                         _______ _______ _______ _____ _____    ______ ____
ROOT
ATOM      1  I   UNL     1      39.879 -25.559 -14.350  0.00  0.00    -0.039 I 
ATOM      2  N   UNL     1      35.894 -26.504 -15.172  0.00  0.00    -0.234 N 
ATOM      3  N   UNL     1      35.756 -25.176 -15.323  0.00  0.00    -0.179 NA
ATOM      4  C   UNL     1      37.161 -26.893 -14.848  0.00  0.00    +0.087 C 
ATOM      5  C   UNL     1      37.903 -25.739 -14.784  0.00  0.00    +0.067 C 
ATOM      6  C   UNL     1      36.987 -24.713 -15.085  0.00  0.00    +0.125 C 
ATOM      7  H   UNL     1      35.150 -27.138 -15.285  0.00  0.00    +0.174 HD
ENDROOT
TORSDOF 0
ENDMDL
MODEL 2
REMARK VINA RESULT:      -4.0     13.751     14.382
REMARK  Name = 77022
REMARK  0 active torsions:
REMARK  status: ('A' for Active; 'I' for Inactive)
REMARK                            x       y       z     vdW  Elec       q    Type
REMARK                         _______ _______ _______ _____ _____    ______ ____
ROOT
ATOM      1  I   UNL     1      33.067 -13.639 -23.259  0.00  0.00    -0.039 I 
ATOM      2  N   UNL     1      35.215 -16.961 -24.599  0.00  0.00    -0.234 N 
ATOM      3  N   UNL     1      34.519 -16.778 -25.734  0.00  0.00    -0.179 NA
ATOM      4  C   UNL     1      34.923 -16.056 -23.621  0.00  0.00    +0.087 C 
ATOM      5  C   UNL     1      33.969 -15.223 -24.154  0.00  0.00    +0.067 C 
ATOM      6  C   UNL     1      33.759 -15.715 -25.457  0.00  0.00    +0.125 C 
ATOM      7  H   UNL     1      35.876 -17.681 -24.484  0.00  0.00    +0.174 HD
ENDROOT
TORSDOF 0
ENDMDL
MODEL 3
REMARK VINA RESULT:      -4.0     11.457     12.144
REMARK  Name = 77022
REMARK  0 active torsions:
REMARK  status: ('A' for Active; 'I' for Inactive)
REMARK                            x       y       z     vdW  Elec       q    Type
REMARK                         _______ _______ _______ _____ _____    ______ ____
ROOT
ATOM      1  I   UNL     1      42.450 -15.985 -18.027  0.00  0.00    -0.039 I 
ATOM      2  N   UNL     1      41.253 -13.432 -14.946  0.00  0.00    -0.234 N 
ATOM      3  N   UNL     1      40.754 -14.553 -14.399  0.00  0.00    -0.179 NA
ATOM      4  C   UNL     1      41.866 -13.630 -16.149  0.00  0.00    +0.087 C 
ATOM      5  C   UNL     1      41.760 -14.976 -16.406  0.00  0.00    +0.067 C 
ATOM      6  C   UNL     1      41.066 -15.493 -15.296  0.00  0.00    +0.125 C 
ATOM      7  H   UNL     1      41.185 -12.548 -14.518  0.00  0.00    +0.174 HD
ENDROOT
TORSDOF 0
ENDMDL
MODEL 4
REMARK VINA RESULT:      -3.9     11.648     12.081
REMARK  Name = 77022
REMARK  0 active torsions:
REMARK  status: ('A' for Active; 'I' for Inactive)
REMARK                            x       y       z     vdW  Elec       q    Type
REMARK                         _______ _______ _______ _____ _____    ______ ____
ROOT
ATOM      1  I   UNL     1      42.767 -12.578 -17.226  0.00  0.00    -0.039 I 
ATOM      2  N   UNL     1      40.592 -15.464 -15.132  0.00  0.00    -0.234 N 
ATOM      3  N   UNL     1      40.967 -16.274 -16.137  0.00  0.00    -0.179 NA
ATOM      4  C   UNL     1      41.056 -14.186 -15.252  0.00  0.00    +0.087 C 
ATOM      5  C   UNL     1      41.784 -14.159 -16.416  0.00  0.00    +0.067 C 
ATOM      6  C   UNL     1      41.695 -15.472 -16.919  0.00  0.00    +0.125 C 
ATOM      7  H   UNL     1      40.036 -15.765 -14.378  0.00  0.00    +0.174 HD
ENDROOT
TORSDOF 0
ENDMDL
MODEL 5
REMARK VINA RESULT:      -3.9     12.067     12.416
REMARK  Name = 77022
REMARK  0 active torsions:
REMARK  status: ('A' for Active; 'I' for Inactive)
REMARK                            x       y       z     vdW  Elec       q    Type
REMARK                         _______ _______ _______ _____ _____    ______ ____
ROOT
ATOM      1  I   UNL     1      34.907 -19.113 -21.516  0.00  0.00    -0.039 I 
ATOM      2  N   UNL     1      35.029 -16.583 -24.837  0.00  0.00    -0.234 N 
ATOM      3  N   UNL     1      34.607 -17.669 -25.505  0.00  0.00    -0.179 NA
ATOM      4  C   UNL     1      35.206 -16.792 -23.500  0.00  0.00    +0.087 C 
ATOM      5  C   UNL     1      34.877 -18.108 -23.279  0.00  0.00    +0.067 C 
ATOM      6  C   UNL     1      34.515 -18.598 -24.549  0.00  0.00    +0.125 C 
ATOM      7  H   UNL     1      35.194 -15.715 -25.271  0.00  0.00    +0.174 HD
ENDROOT
TORSDOF 0
ENDMDL
MODEL 6
REMARK VINA RESULT:      -3.9      7.054      7.664
REMARK  Name = 77022
REMARK  0 active torsions:
REMARK  status: ('A' for Active; 'I' for Inactive)
REMARK                            x       y       z     vdW  Elec       q    Type
REMARK                         _______ _______ _______ _____ _____    ______ ____
ROOT
ATOM      1  I   UNL     1      35.091 -19.127 -21.310  0.00  0.00    -0.039 I 
ATOM      2  N   UNL     1      33.180 -22.142 -19.141  0.00  0.00    -0.234 N 
ATOM      3  N   UNL     1      34.429 -22.598 -18.942  0.00  0.00    -0.179 NA
ATOM      4  C   UNL     1      33.121 -21.005 -19.893  0.00  0.00    +0.087 C 
ATOM      5  C   UNL     1      34.422 -20.696 -20.208  0.00  0.00    +0.067 C 
ATOM      6  C   UNL     1      35.184 -21.711 -19.597  0.00  0.00    +0.125 C 
ATOM      7  H   UNL     1      32.381 -22.587 -18.776  0.00  0.00    +0.174 HD
ENDROOT
TORSDOF 0
ENDMDL
MODEL 7
REMARK VINA RESULT:      -3.9     11.021     11.589
REMARK  Name = 77022
REMARK  0 active torsions:
REMARK  status: ('A' for Active; 'I' for Inactive)
REMARK                            x       y       z     vdW  Elec       q    Type
REMARK                         _______ _______ _______ _____ _____    ______ ____
ROOT
ATOM      1  I   UNL     1      34.619 -17.107 -24.754  0.00  0.00    -0.039 I 
ATOM      2  N   UNL     1      35.562 -17.937 -20.771  0.00  0.00    -0.234 N 
ATOM      3  N   UNL     1      35.129 -16.683 -20.553  0.00  0.00    -0.179 NA
ATOM      4  C   UNL     1      35.498 -18.323 -22.078  0.00  0.00    +0.087 C 
ATOM      5  C   UNL     1      34.988 -17.247 -22.762  0.00  0.00    +0.067 C 
ATOM      6  C   UNL     1      34.780 -16.266 -21.773  0.00  0.00    +0.125 C 
ATOM      7  H   UNL     1      35.893 -18.523 -20.053  0.00  0.00    +0.174 HD
ENDROOT
TORSDOF 0
ENDMDL
MODEL 8
REMARK VINA RESULT:      -3.9     14.745     15.182
REMARK  Name = 77022
REMARK  0 active torsions:
REMARK  status: ('A' for Active; 'I' for Inactive)
REMARK                            x       y       z     vdW  Elec       q    Type
REMARK                         _______ _______ _______ _____ _____    ______ ____
ROOT
ATOM      1  I   UNL     1      34.118 -15.059 -22.212  0.00  0.00    -0.039 I 
ATOM      2  N   UNL     1      32.929 -14.536 -26.181  0.00  0.00    -0.234 N 
ATOM      3  N   UNL     1      33.503 -15.737 -26.365  0.00  0.00    -0.179 NA
ATOM      4  C   UNL     1      32.995 -14.084 -24.896  0.00  0.00    +0.087 C 
ATOM      5  C   UNL     1      33.659 -15.058 -24.190  0.00  0.00    +0.067 C 
ATOM      6  C   UNL     1      33.948 -16.051 -25.145  0.00  0.00    +0.125 C 
ATOM      7  H   UNL     1      32.499 -14.029 -26.908  0.00  0.00    +0.174 HD
ENDROOT
TORSDOF 0
ENDMDL
MODEL 9
REMARK VINA RESULT:      -3.9      9.027      9.324
REMARK  Name = 77022
REMARK  0 active torsions:
REMARK  status: ('A' for Active; 'I' for Inactive)
REMARK                            x       y       z     vdW  Elec       q    Type
REMARK                         _______ _______ _______ _____ _____    ______ ____
ROOT
ATOM      1  I   UNL     1      30.204 -24.784 -14.670  0.00  0.00    -0.039 I 
ATOM      2  N   UNL     1      27.636 -22.227 -16.747  0.00  0.00    -0.234 N 
ATOM      3  N   UNL     1      27.496 -23.271 -17.580  0.00  0.00    -0.179 NA
ATOM      4  C   UNL     1      28.479 -22.465 -15.701  0.00  0.00    +0.087 C 
ATOM      5  C   UNL     1      28.920 -23.756 -15.861  0.00  0.00    +0.067 C 
ATOM      6  C   UNL     1      28.282 -24.203 -17.035  0.00  0.00    +0.125 C 
ATOM      7  H   UNL     1      27.173 -21.368 -16.878  0.00  0.00    +0.174 HD
ENDROOT
TORSDOF 0
ENDMDL
