MODEL 1
REMARK VINA RESULT:     -10.7      0.000      0.000
REMARK  Name = 23586040
REMARK  9 active torsions:
REMARK  status: ('A' for Active; 'I' for Inactive)
REMARK    1  A    between atoms: C_3  and  C_10
REMARK    2  A    between atoms: C_7  and  C_22
REMARK    3  A    between atoms: N_9  and  C_12
REMARK    4  A    between atoms: C_12  and  C_13
REMARK    5  A    between atoms: C_13  and  N_14
REMARK    6  A    between atoms: N_14  and  C_17
REMARK    7  A    between atoms: C_22  and  N_23
REMARK    8  A    between atoms: C_22  and  C_27
REMARK    9  A    between atoms: C_27  and  C_28
REMARK                            x       y       z     vdW  Elec       q    Type
REMARK                         _______ _______ _______ _____ _____    ______ ____
ROOT
ATOM      1  O   UNL     1      35.007 -15.594 -20.385  0.00  0.00    -0.277 OA
ATOM      2  N   UNL     1      34.354 -15.594 -22.605  0.00  0.00    -0.275 N 
ATOM      3  C   UNL     1      34.037 -14.174 -22.685  0.00  0.00    +0.152 C 
ATOM      4  C   UNL     1      33.936 -13.884 -24.178  0.00  0.00    +0.031 C 
ATOM      5  C   UNL     1      33.479 -15.216 -24.768  0.00  0.00    +0.024 C 
ATOM      6  C   UNL     1      34.193 -16.244 -23.903  0.00  0.00    +0.094 C 
ATOM      7  C   UNL     1      34.887 -16.175 -21.465  0.00  0.00    +0.206 C 
ENDROOT
BRANCH   3  10
ATOM      8  O   UNL     1      31.968 -14.910 -21.751  0.00  0.00    -0.273 OA
ATOM      9  N   UNL     1      32.491 -12.643 -21.686  0.00  0.00    -0.301 N 
ATOM     10  C   UNL     1      32.726 -13.973 -21.988  0.00  0.00    +0.241 C 
ATOM     11  H   UNL     1      33.177 -11.979 -21.927  0.00  0.00    +0.150 HD
BRANCH   9  12
ATOM     12  C   UNL     1      31.287 -12.182 -21.034  0.00  0.00    +0.111 C 
BRANCH  12  13
ATOM     13  C   UNL     1      31.107 -10.677 -21.155  0.00  0.00    +0.109 C 
BRANCH  13  14
ATOM     14  N   UNL     1      31.419 -10.238 -22.495  0.00  0.00    -0.331 N 
ATOM     15  H   UNL     1      30.818 -10.511 -23.225  0.00  0.00    +0.147 HD
BRANCH  14  17
ATOM     16  N   UNL     1      34.754  -7.863 -23.453  0.00  0.00    -0.242 NA
ATOM     17  C   UNL     1      32.517  -9.456 -22.811  0.00  0.00    +0.048 C 
ATOM     18  C   UNL     1      32.694  -8.190 -22.232  0.00  0.00    +0.035 C 
ATOM     19  C   UNL     1      33.488  -9.905 -23.719  0.00  0.00    +0.035 C 
ATOM     20  C   UNL     1      33.810  -7.447 -22.581  0.00  0.00    +0.100 C 
ATOM     21  C   UNL     1      34.569  -9.085 -24.000  0.00  0.00    +0.100 C 
ENDBRANCH  14  17
ENDBRANCH  13  14
ENDBRANCH  12  13
ENDBRANCH   9  12
ENDBRANCH   3  10
BRANCH   7  22
ATOM     22  C   UNL     1      35.319 -17.612 -21.609  0.00  0.00    +0.018 C 
BRANCH  22  23
ATOM     23  N   UNL     1      36.042 -17.673 -22.873  0.00  0.00    +0.388 N 
ATOM     24  H   UNL     1      35.794 -18.531 -23.365  0.00  0.00    -0.089 HD
ATOM     25  H   UNL     1      37.045 -17.663 -22.691  0.00  0.00    -0.089 HD
ATOM     26  H   UNL     1      35.792 -16.868 -23.447  0.00  0.00    -0.089 HD
ENDBRANCH  22  23
BRANCH  22  27
ATOM     27  C   UNL     1      34.115 -18.554 -21.612  0.00  0.00    +0.013 C 
BRANCH  27  28
ATOM     28  C   UNL     1      34.336 -19.786 -20.766  0.00  0.00    -0.024 C 
ATOM     29  C   UNL     1      33.241 -20.459 -20.251  0.00  0.00    -0.004 C 
ATOM     30  C   UNL     1      35.629 -20.218 -20.522  0.00  0.00    -0.004 C 
ATOM     31  C   UNL     1      33.444 -21.596 -19.469  0.00  0.00    -0.000 C 
ATOM     32  C   UNL     1      35.833 -21.355 -19.741  0.00  0.00    -0.000 C 
ATOM     33  C   UNL     1      34.741 -22.044 -19.214  0.00  0.00    -0.000 C 
ENDBRANCH  27  28
ENDBRANCH  22  27
ENDBRANCH   7  22
TORSDOF 9
ENDMDL
MODEL 2
REMARK VINA RESULT:     -10.6      1.632      2.704
REMARK  Name = 23586040
REMARK  9 active torsions:
REMARK  status: ('A' for Active; 'I' for Inactive)
REMARK    1  A    between atoms: C_3  and  C_10
REMARK    2  A    between atoms: C_7  and  C_22
REMARK    3  A    between atoms: N_9  and  C_12
REMARK    4  A    between atoms: C_12  and  C_13
REMARK    5  A    between atoms: C_13  and  N_14
REMARK    6  A    between atoms: N_14  and  C_17
REMARK    7  A    between atoms: C_22  and  N_23
REMARK    8  A    between atoms: C_22  and  C_27
REMARK    9  A    between atoms: C_27  and  C_28
REMARK                            x       y       z     vdW  Elec       q    Type
REMARK                         _______ _______ _______ _____ _____    ______ ____
ROOT
ATOM      1  O   UNL     1      34.196 -17.111 -24.057  0.00  0.00    -0.277 OA
ATOM      2  N   UNL     1      33.852 -15.946 -22.088  0.00  0.00    -0.275 N 
ATOM      3  C   UNL     1      32.975 -14.927 -22.648  0.00  0.00    +0.152 C 
ATOM      4  C   UNL     1      32.331 -14.263 -21.437  0.00  0.00    +0.031 C 
ATOM      5  C   UNL     1      33.383 -14.421 -20.343  0.00  0.00    +0.024 C 
ATOM      6  C   UNL     1      33.997 -15.781 -20.643  0.00  0.00    +0.094 C 
ATOM      7  C   UNL     1      34.337 -17.006 -22.837  0.00  0.00    +0.206 C 
ENDROOT
BRANCH   3  10
ATOM      8  O   UNL     1      34.980 -14.265 -23.762  0.00  0.00    -0.273 OA
ATOM      9  N   UNL     1      33.208 -12.761 -23.641  0.00  0.00    -0.301 N 
ATOM     10  C   UNL     1      33.839 -13.971 -23.414  0.00  0.00    +0.241 C 
ATOM     11  H   UNL     1      32.287 -12.643 -23.313  0.00  0.00    +0.150 HD
BRANCH   9  12
ATOM     12  C   UNL     1      33.835 -11.661 -24.338  0.00  0.00    +0.111 C 
BRANCH  12  13
ATOM     13  C   UNL     1      33.275 -10.313 -23.911  0.00  0.00    +0.109 C 
BRANCH  13  14
ATOM     14  N   UNL     1      32.168 -10.494 -23.001  0.00  0.00    -0.331 N 
ATOM     15  H   UNL     1      31.424 -11.073 -23.283  0.00  0.00    +0.147 HD
BRANCH  14  17
ATOM     16  N   UNL     1      31.945  -8.682 -19.213  0.00  0.00    -0.242 NA
ATOM     17  C   UNL     1      32.094  -9.897 -21.753  0.00  0.00    +0.048 C 
ATOM     18  C   UNL     1      31.636 -10.612 -20.636  0.00  0.00    +0.035 C 
ATOM     19  C   UNL     1      32.476  -8.560 -21.568  0.00  0.00    +0.035 C 
ATOM     20  C   UNL     1      31.581  -9.969 -19.410  0.00  0.00    +0.100 C 
ATOM     21  C   UNL     1      32.385  -8.009 -20.299  0.00  0.00    +0.100 C 
ENDBRANCH  14  17
ENDBRANCH  13  14
ENDBRANCH  12  13
ENDBRANCH   9  12
ENDBRANCH   3  10
BRANCH   7  22
ATOM     22  C   UNL     1      35.084 -18.062 -22.064  0.00  0.00    +0.018 C 
BRANCH  22  23
ATOM     23  N   UNL     1      36.405 -18.128 -22.677  0.00  0.00    +0.388 N 
ATOM     24  H   UNL     1      36.454 -17.462 -23.449  0.00  0.00    -0.089 HD
ATOM     25  H   UNL     1      36.569 -19.070 -23.030  0.00  0.00    -0.089 HD
ATOM     26  H   UNL     1      37.114 -17.896 -21.983  0.00  0.00    -0.089 HD
ENDBRANCH  22  23
BRANCH  22  27
ATOM     27  C   UNL     1      34.370 -19.412 -22.138  0.00  0.00    +0.013 C 
BRANCH  27  28
ATOM     28  C   UNL     1      34.623 -20.273 -20.923  0.00  0.00    -0.024 C 
ATOM     29  C   UNL     1      33.548 -20.837 -20.257  0.00  0.00    -0.004 C 
ATOM     30  C   UNL     1      35.926 -20.481 -20.498  0.00  0.00    -0.004 C 
ATOM     31  C   UNL     1      33.781 -21.632 -19.134  0.00  0.00    -0.000 C 
ATOM     32  C   UNL     1      36.159 -21.275 -19.376  0.00  0.00    -0.000 C 
ATOM     33  C   UNL     1      35.087 -21.850 -18.693  0.00  0.00    -0.000 C 
ENDBRANCH  27  28
ENDBRANCH  22  27
ENDBRANCH   7  22
TORSDOF 9
ENDMDL
MODEL 3
REMARK VINA RESULT:     -10.4      1.996      9.267
REMARK  Name = 23586040
REMARK  9 active torsions:
REMARK  status: ('A' for Active; 'I' for Inactive)
REMARK    1  A    between atoms: C_3  and  C_10
REMARK    2  A    between atoms: C_7  and  C_22
REMARK    3  A    between atoms: N_9  and  C_12
REMARK    4  A    between atoms: C_12  and  C_13
REMARK    5  A    between atoms: C_13  and  N_14
REMARK    6  A    between atoms: N_14  and  C_17
REMARK    7  A    between atoms: C_22  and  N_23
REMARK    8  A    between atoms: C_22  and  C_27
REMARK    9  A    between atoms: C_27  and  C_28
REMARK                            x       y       z     vdW  Elec       q    Type
REMARK                         _______ _______ _______ _____ _____    ______ ____
ROOT
ATOM      1  O   UNL     1      31.958 -14.516 -21.791  0.00  0.00    -0.277 OA
ATOM      2  N   UNL     1      32.951 -13.264 -23.466  0.00  0.00    -0.275 N 
ATOM      3  C   UNL     1      32.966 -14.316 -24.473  0.00  0.00    +0.152 C 
ATOM      4  C   UNL     1      33.246 -13.592 -25.785  0.00  0.00    +0.031 C 
ATOM      5  C   UNL     1      34.067 -12.380 -25.353  0.00  0.00    +0.024 C 
ATOM      6  C   UNL     1      33.458 -12.007 -24.010  0.00  0.00    +0.094 C 
ATOM      7  C   UNL     1      32.375 -13.437 -22.217  0.00  0.00    +0.206 C 
ENDROOT
BRANCH   3  10
ATOM      8  O   UNL     1      34.926 -14.969 -23.278  0.00  0.00    -0.273 OA
ATOM      9  N   UNL     1      34.010 -16.441 -24.831  0.00  0.00    -0.301 N 
ATOM     10  C   UNL     1      34.071 -15.261 -24.111  0.00  0.00    +0.241 C 
ATOM     11  H   UNL     1      33.274 -16.561 -25.474  0.00  0.00    +0.150 HD
BRANCH   9  12
ATOM     12  C   UNL     1      34.974 -17.508 -24.684  0.00  0.00    +0.111 C 
BRANCH  12  13
ATOM     13  C   UNL     1      34.447 -18.647 -23.825  0.00  0.00    +0.109 C 
BRANCH  13  14
ATOM     14  N   UNL     1      34.850 -18.469 -22.450  0.00  0.00    -0.331 N 
ATOM     15  H   UNL     1      35.301 -17.630 -22.203  0.00  0.00    +0.147 HD
BRANCH  14  17
ATOM     16  N   UNL     1      34.201 -21.331 -19.439  0.00  0.00    -0.242 NA
ATOM     17  C   UNL     1      34.636 -19.412 -21.458  0.00  0.00    +0.048 C 
ATOM     18  C   UNL     1      35.711 -20.074 -20.847  0.00  0.00    +0.035 C 
ATOM     19  C   UNL     1      33.338 -19.733 -21.034  0.00  0.00    +0.035 C 
ATOM     20  C   UNL     1      35.444 -21.009 -19.860  0.00  0.00    +0.100 C 
ATOM     21  C   UNL     1      33.177 -20.683 -20.038  0.00  0.00    +0.100 C 
ENDBRANCH  14  17
ENDBRANCH  13  14
ENDBRANCH  12  13
ENDBRANCH   9  12
ENDBRANCH   3  10
BRANCH   7  22
ATOM     22  C   UNL     1      32.290 -12.197 -21.363  0.00  0.00    +0.018 C 
BRANCH  22  23
ATOM     23  N   UNL     1      32.081 -12.678 -20.004  0.00  0.00    +0.388 N 
ATOM     24  H   UNL     1      32.494 -12.020 -19.343  0.00  0.00    -0.089 HD
ATOM     25  H   UNL     1      32.522 -13.591 -19.895  0.00  0.00    -0.089 HD
ATOM     26  H   UNL     1      31.081 -12.760 -19.822  0.00  0.00    -0.089 HD
ENDBRANCH  22  23
BRANCH  22  27
ATOM     27  C   UNL     1      31.143 -11.293 -21.815  0.00  0.00    +0.013 C 
BRANCH  27  28
ATOM     28  C   UNL     1      31.519  -9.830 -21.814  0.00  0.00    -0.024 C 
ATOM     29  C   UNL     1      31.389  -9.097 -22.982  0.00  0.00    -0.004 C 
ATOM     30  C   UNL     1      31.986  -9.250 -20.646  0.00  0.00    -0.004 C 
ATOM     31  C   UNL     1      31.737  -7.745 -22.983  0.00  0.00    -0.000 C 
ATOM     32  C   UNL     1      32.333  -7.899 -20.646  0.00  0.00    -0.000 C 
ATOM     33  C   UNL     1      32.209  -7.147 -21.814  0.00  0.00    -0.000 C 
ENDBRANCH  27  28
ENDBRANCH  22  27
ENDBRANCH   7  22
TORSDOF 9
ENDMDL
MODEL 4
REMARK VINA RESULT:     -10.3      7.738     11.989
REMARK  Name = 23586040
REMARK  9 active torsions:
REMARK  status: ('A' for Active; 'I' for Inactive)
REMARK    1  A    between atoms: C_3  and  C_10
REMARK    2  A    between atoms: C_7  and  C_22
REMARK    3  A    between atoms: N_9  and  C_12
REMARK    4  A    between atoms: C_12  and  C_13
REMARK    5  A    between atoms: C_13  and  N_14
REMARK    6  A    between atoms: N_14  and  C_17
REMARK    7  A    between atoms: C_22  and  N_23
REMARK    8  A    between atoms: C_22  and  C_27
REMARK    9  A    between atoms: C_27  and  C_28
REMARK                            x       y       z     vdW  Elec       q    Type
REMARK                         _______ _______ _______ _____ _____    ______ ____
ROOT
ATOM      1  O   UNL     1      32.877 -24.158 -17.060  0.00  0.00    -0.277 OA
ATOM      2  N   UNL     1      34.887 -23.362 -16.234  0.00  0.00    -0.275 N 
ATOM      3  C   UNL     1      35.161 -24.488 -15.350  0.00  0.00    +0.152 C 
ATOM      4  C   UNL     1      36.631 -24.339 -14.979  0.00  0.00    +0.031 C 
ATOM      5  C   UNL     1      36.867 -22.833 -15.056  0.00  0.00    +0.024 C 
ATOM      6  C   UNL     1      35.987 -22.401 -16.219  0.00  0.00    +0.094 C 
ATOM      7  C   UNL     1      33.788 -23.328 -17.078  0.00  0.00    +0.206 C 
ENDROOT
BRANCH   3  10
ATOM      8  O   UNL     1      34.650 -23.794 -13.124  0.00  0.00    -0.273 OA
ATOM      9  N   UNL     1      33.019 -24.900 -14.362  0.00  0.00    -0.301 N 
ATOM     10  C   UNL     1      34.267 -24.340 -14.156  0.00  0.00    +0.241 C 
ATOM     11  H   UNL     1      32.828 -25.312 -15.237  0.00  0.00    +0.150 HD
BRANCH   9  12
ATOM     12  C   UNL     1      31.981 -24.911 -13.357  0.00  0.00    +0.111 C 
BRANCH  12  13
ATOM     13  C   UNL     1      31.075 -23.693 -13.451  0.00  0.00    +0.109 C 
BRANCH  13  14
ATOM     14  N   UNL     1      31.002 -23.224 -14.815  0.00  0.00    -0.331 N 
ATOM     15  H   UNL     1      31.793 -22.781 -15.198  0.00  0.00    +0.147 HD
BRANCH  14  17
ATOM     16  N   UNL     1      27.598 -23.644 -17.248  0.00  0.00    -0.242 NA
ATOM     17  C   UNL     1      29.880 -23.362 -15.616  0.00  0.00    +0.048 C 
ATOM     18  C   UNL     1      29.112 -22.247 -15.983  0.00  0.00    +0.035 C 
ATOM     19  C   UNL     1      29.480 -24.621 -16.087  0.00  0.00    +0.035 C 
ATOM     20  C   UNL     1      27.999 -22.439 -16.786  0.00  0.00    +0.100 C 
ATOM     21  C   UNL     1      28.351 -24.707 -16.887  0.00  0.00    +0.100 C 
ENDBRANCH  14  17
ENDBRANCH  13  14
ENDBRANCH  12  13
ENDBRANCH   9  12
ENDBRANCH   3  10
BRANCH   7  22
ATOM     22  C   UNL     1      33.750 -22.176 -18.049  0.00  0.00    +0.018 C 
BRANCH  22  23
ATOM     23  N   UNL     1      32.347 -22.025 -18.414  0.00  0.00    +0.388 N 
ATOM     24  H   UNL     1      31.953 -22.940 -18.634  0.00  0.00    -0.089 HD
ATOM     25  H   UNL     1      32.272 -21.418 -19.231  0.00  0.00    -0.089 HD
ATOM     26  H   UNL     1      31.835 -21.613 -17.635  0.00  0.00    -0.089 HD
ENDBRANCH  22  23
BRANCH  22  27
ATOM     27  C   UNL     1      34.616 -22.459 -19.277  0.00  0.00    +0.013 C 
BRANCH  27  28
ATOM     28  C   UNL     1      35.143 -21.198 -19.922  0.00  0.00    -0.024 C 
ATOM     29  C   UNL     1      36.499 -20.926 -19.868  0.00  0.00    -0.004 C 
ATOM     30  C   UNL     1      34.259 -20.340 -20.555  0.00  0.00    -0.004 C 
ATOM     31  C   UNL     1      36.987 -19.762 -20.463  0.00  0.00    -0.000 C 
ATOM     32  C   UNL     1      34.746 -19.176 -21.149  0.00  0.00    -0.000 C 
ATOM     33  C   UNL     1      36.110 -18.887 -21.103  0.00  0.00    -0.000 C 
ENDBRANCH  27  28
ENDBRANCH  22  27
ENDBRANCH   7  22
TORSDOF 9
ENDMDL
MODEL 5
REMARK VINA RESULT:     -10.3      2.250      9.475
REMARK  Name = 23586040
REMARK  9 active torsions:
REMARK  status: ('A' for Active; 'I' for Inactive)
REMARK    1  A    between atoms: C_3  and  C_10
REMARK    2  A    between atoms: C_7  and  C_22
REMARK    3  A    between atoms: N_9  and  C_12
REMARK    4  A    between atoms: C_12  and  C_13
REMARK    5  A    between atoms: C_13  and  N_14
REMARK    6  A    between atoms: N_14  and  C_17
REMARK    7  A    between atoms: C_22  and  N_23
REMARK    8  A    between atoms: C_22  and  C_27
REMARK    9  A    between atoms: C_27  and  C_28
REMARK                            x       y       z     vdW  Elec       q    Type
REMARK                         _______ _______ _______ _____ _____    ______ ____
ROOT
ATOM      1  O   UNL     1      34.732 -15.298 -24.802  0.00  0.00    -0.277 OA
ATOM      2  N   UNL     1      33.712 -14.558 -22.861  0.00  0.00    -0.275 N 
ATOM      3  C   UNL     1      34.587 -15.263 -21.934  0.00  0.00    +0.152 C 
ATOM      4  C   UNL     1      34.318 -14.616 -20.580  0.00  0.00    +0.031 C 
ATOM      5  C   UNL     1      32.868 -14.152 -20.690  0.00  0.00    +0.024 C 
ATOM      6  C   UNL     1      32.748 -13.725 -22.146  0.00  0.00    +0.094 C 
ATOM      7  C   UNL     1      33.907 -14.580 -24.233  0.00  0.00    +0.206 C 
ENDROOT
BRANCH   3  10
ATOM      8  O   UNL     1      33.340 -17.152 -21.178  0.00  0.00    -0.273 OA
ATOM      9  N   UNL     1      34.875 -17.432 -22.904  0.00  0.00    -0.301 N 
ATOM     10  C   UNL     1      34.182 -16.706 -21.953  0.00  0.00    +0.241 C 
ATOM     11  H   UNL     1      35.529 -16.961 -23.470  0.00  0.00    +0.150 HD
BRANCH   9  12
ATOM     12  C   UNL     1      34.686 -18.850 -23.109  0.00  0.00    +0.111 C 
BRANCH  12  13
ATOM     13  C   UNL     1      35.289 -19.680 -21.987  0.00  0.00    +0.109 C 
BRANCH  13  14
ATOM     14  N   UNL     1      34.273 -20.044 -21.027  0.00  0.00    -0.331 N 
ATOM     15  H   UNL     1      33.379 -19.646 -21.124  0.00  0.00    +0.147 HD
BRANCH  14  17
ATOM     16  N   UNL     1      34.922 -22.713 -17.843  0.00  0.00    -0.242 NA
ATOM     17  C   UNL     1      34.487 -20.923 -19.978  0.00  0.00    +0.048 C 
ATOM     18  C   UNL     1      33.426 -21.646 -19.414  0.00  0.00    +0.035 C 
ATOM     19  C   UNL     1      35.771 -21.118 -19.449  0.00  0.00    +0.035 C 
ATOM     20  C   UNL     1      33.692 -22.513 -18.366  0.00  0.00    +0.100 C 
ATOM     21  C   UNL     1      35.933 -22.010 -18.400  0.00  0.00    +0.100 C 
ENDBRANCH  14  17
ENDBRANCH  13  14
ENDBRANCH  12  13
ENDBRANCH   9  12
ENDBRANCH   3  10
BRANCH   7  22
ATOM     22  C   UNL     1      33.021 -13.658 -25.031  0.00  0.00    +0.018 C 
BRANCH  22  23
ATOM     23  N   UNL     1      32.323 -14.518 -25.978  0.00  0.00    +0.388 N 
ATOM     24  H   UNL     1      31.820 -13.942 -26.653  0.00  0.00    -0.089 HD
ATOM     25  H   UNL     1      31.661 -15.110 -25.476  0.00  0.00    -0.089 HD
ATOM     26  H   UNL     1      32.999 -15.103 -26.468  0.00  0.00    -0.089 HD
ENDBRANCH  22  23
BRANCH  22  27
ATOM     27  C   UNL     1      33.842 -12.589 -25.752  0.00  0.00    +0.013 C 
BRANCH  27  28
ATOM     28  C   UNL     1      33.940 -11.301 -24.968  0.00  0.00    -0.024 C 
ATOM     29  C   UNL     1      32.956 -10.995 -24.044  0.00  0.00    -0.004 C 
ATOM     30  C   UNL     1      35.012 -10.452 -25.190  0.00  0.00    -0.004 C 
ATOM     31  C   UNL     1      33.045  -9.806 -23.319  0.00  0.00    -0.000 C 
ATOM     32  C   UNL     1      35.102  -9.263 -24.466  0.00  0.00    -0.000 C 
ATOM     33  C   UNL     1      34.118  -8.940 -23.532  0.00  0.00    -0.000 C 
ENDBRANCH  27  28
ENDBRANCH  22  27
ENDBRANCH   7  22
TORSDOF 9
ENDMDL
MODEL 6
REMARK VINA RESULT:     -10.3      2.510      9.396
REMARK  Name = 23586040
REMARK  9 active torsions:
REMARK  status: ('A' for Active; 'I' for Inactive)
REMARK    1  A    between atoms: C_3  and  C_10
REMARK    2  A    between atoms: C_7  and  C_22
REMARK    3  A    between atoms: N_9  and  C_12
REMARK    4  A    between atoms: C_12  and  C_13
REMARK    5  A    between atoms: C_13  and  N_14
REMARK    6  A    between atoms: N_14  and  C_17
REMARK    7  A    between atoms: C_22  and  N_23
REMARK    8  A    between atoms: C_22  and  C_27
REMARK    9  A    between atoms: C_27  and  C_28
REMARK                            x       y       z     vdW  Elec       q    Type
REMARK                         _______ _______ _______ _____ _____    ______ ____
ROOT
ATOM      1  O   UNL     1      30.784 -11.007 -21.083  0.00  0.00    -0.277 OA
ATOM      2  N   UNL     1      32.361 -11.654 -22.648  0.00  0.00    -0.275 N 
ATOM      3  C   UNL     1      31.914 -13.034 -22.774  0.00  0.00    +0.152 C 
ATOM      4  C   UNL     1      32.592 -13.546 -24.039  0.00  0.00    +0.031 C 
ATOM      5  C   UNL     1      33.877 -12.726 -24.111  0.00  0.00    +0.024 C 
ATOM      6  C   UNL     1      33.454 -11.367 -23.574  0.00  0.00    +0.094 C 
ATOM      7  C   UNL     1      31.703 -10.727 -21.854  0.00  0.00    +0.206 C 
ENDROOT
BRANCH   3  10
ATOM      8  O   UNL     1      32.536 -13.197 -20.475  0.00  0.00    -0.273 OA
ATOM      9  N   UNL     1      32.639 -15.102 -21.809  0.00  0.00    -0.301 N 
ATOM     10  C   UNL     1      32.386 -13.766 -21.554  0.00  0.00    +0.241 C 
ATOM     11  H   UNL     1      32.480 -15.444 -22.719  0.00  0.00    +0.150 HD
BRANCH   9  12
ATOM     12  C   UNL     1      33.126 -16.020 -20.805  0.00  0.00    +0.111 C 
BRANCH  12  13
ATOM     13  C   UNL     1      34.645 -16.065 -20.753  0.00  0.00    +0.109 C 
BRANCH  13  14
ATOM     14  N   UNL     1      35.138 -17.238 -21.436  0.00  0.00    -0.331 N 
ATOM     15  H   UNL     1      35.641 -17.903 -20.914  0.00  0.00    +0.147 HD
BRANCH  14  17
ATOM     16  N   UNL     1      34.546 -17.972 -25.534  0.00  0.00    -0.242 NA
ATOM     17  C   UNL     1      34.942 -17.480 -22.786  0.00  0.00    +0.048 C 
ATOM     18  C   UNL     1      34.990 -16.436 -23.721  0.00  0.00    +0.035 C 
ATOM     19  C   UNL     1      34.693 -18.777 -23.259  0.00  0.00    +0.035 C 
ATOM     20  C   UNL     1      34.788 -16.730 -25.060  0.00  0.00    +0.100 C 
ATOM     21  C   UNL     1      34.506 -18.967 -24.619  0.00  0.00    +0.100 C 
ENDBRANCH  14  17
ENDBRANCH  13  14
ENDBRANCH  12  13
ENDBRANCH   9  12
ENDBRANCH   3  10
BRANCH   7  22
ATOM     22  C   UNL     1      32.191  -9.306 -21.974  0.00  0.00    +0.018 C 
BRANCH  22  23
ATOM     23  N   UNL     1      32.108  -8.754 -20.628  0.00  0.00    +0.388 N 
ATOM     24  H   UNL     1      32.917  -9.058 -20.086  0.00  0.00    -0.089 HD
ATOM     25  H   UNL     1      31.254  -9.084 -20.178  0.00  0.00    -0.089 HD
ATOM     26  H   UNL     1      32.096  -7.736 -20.677  0.00  0.00    -0.089 HD
ENDBRANCH  22  23
BRANCH  22  27
ATOM     27  C   UNL     1      31.332  -8.507 -22.955  0.00  0.00    +0.013 C 
BRANCH  27  28
ATOM     28  C   UNL     1      32.139  -7.528 -23.774  0.00  0.00    -0.024 C 
ATOM     29  C   UNL     1      31.493  -6.480 -24.409  0.00  0.00    -0.004 C 
ATOM     30  C   UNL     1      33.511  -7.696 -23.874  0.00  0.00    -0.004 C 
ATOM     31  C   UNL     1      32.237  -5.576 -25.166  0.00  0.00    -0.000 C 
ATOM     32  C   UNL     1      34.256  -6.792 -24.630  0.00  0.00    -0.000 C 
ATOM     33  C   UNL     1      33.619  -5.732 -25.277  0.00  0.00    -0.000 C 
ENDBRANCH  27  28
ENDBRANCH  22  27
ENDBRANCH   7  22
TORSDOF 9
ENDMDL
MODEL 7
REMARK VINA RESULT:     -10.2      2.206      9.982
REMARK  Name = 23586040
REMARK  9 active torsions:
REMARK  status: ('A' for Active; 'I' for Inactive)
REMARK    1  A    between atoms: C_3  and  C_10
REMARK    2  A    between atoms: C_7  and  C_22
REMARK    3  A    between atoms: N_9  and  C_12
REMARK    4  A    between atoms: C_12  and  C_13
REMARK    5  A    between atoms: C_13  and  N_14
REMARK    6  A    between atoms: N_14  and  C_17
REMARK    7  A    between atoms: C_22  and  N_23
REMARK    8  A    between atoms: C_22  and  C_27
REMARK    9  A    between atoms: C_27  and  C_28
REMARK                            x       y       z     vdW  Elec       q    Type
REMARK                         _______ _______ _______ _____ _____    ______ ____
ROOT
ATOM      1  O   UNL     1      32.985 -12.549 -22.680  0.00  0.00    -0.277 OA
ATOM      2  N   UNL     1      33.302 -13.061 -24.914  0.00  0.00    -0.275 N 
ATOM      3  C   UNL     1      32.917 -14.463 -24.820  0.00  0.00    +0.152 C 
ATOM      4  C   UNL     1      32.700 -14.901 -26.264  0.00  0.00    +0.031 C 
ATOM      5  C   UNL     1      33.648 -14.003 -27.055  0.00  0.00    +0.024 C 
ATOM      6  C   UNL     1      33.594 -12.686 -26.296  0.00  0.00    +0.094 C 
ATOM      7  C   UNL     1      33.234 -12.195 -23.834  0.00  0.00    +0.206 C 
ENDROOT
BRANCH   3  10
ATOM      8  O   UNL     1      34.825 -14.640 -23.396  0.00  0.00    -0.273 OA
ATOM      9  N   UNL     1      34.139 -16.510 -24.600  0.00  0.00    -0.301 N 
ATOM     10  C   UNL     1      34.059 -15.194 -24.181  0.00  0.00    +0.241 C 
ATOM     11  H   UNL     1      33.464 -16.842 -25.235  0.00  0.00    +0.150 HD
BRANCH   9  12
ATOM     12  C   UNL     1      35.165 -17.422 -24.149  0.00  0.00    +0.111 C 
BRANCH  12  13
ATOM     13  C   UNL     1      34.584 -18.672 -23.508  0.00  0.00    +0.109 C 
BRANCH  13  14
ATOM     14  N   UNL     1      34.436 -18.486 -22.084  0.00  0.00    -0.331 N 
ATOM     15  H   UNL     1      34.322 -17.570 -21.744  0.00  0.00    +0.147 HD
BRANCH  14  17
ATOM     16  N   UNL     1      34.467 -21.640 -19.303  0.00  0.00    -0.242 NA
ATOM     17  C   UNL     1      34.446 -19.526 -21.168  0.00  0.00    +0.048 C 
ATOM     18  C   UNL     1      35.651 -20.112 -20.754  0.00  0.00    +0.035 C 
ATOM     19  C   UNL     1      33.252 -20.022 -20.626  0.00  0.00    +0.035 C 
ATOM     20  C   UNL     1      35.607 -21.148 -19.835  0.00  0.00    +0.100 C 
ATOM     21  C   UNL     1      33.315 -21.062 -19.712  0.00  0.00    +0.100 C 
ENDBRANCH  14  17
ENDBRANCH  13  14
ENDBRANCH  12  13
ENDBRANCH   9  12
ENDBRANCH   3  10
BRANCH   7  22
ATOM     22  C   UNL     1      33.499 -10.744 -24.145  0.00  0.00    +0.018 C 
BRANCH  22  23
ATOM     23  N   UNL     1      34.950 -10.615 -24.171  0.00  0.00    +0.388 N 
ATOM     24  H   UNL     1      35.368 -11.365 -23.620  0.00  0.00    -0.089 HD
ATOM     25  H   UNL     1      35.218  -9.714 -23.774  0.00  0.00    -0.089 HD
ATOM     26  H   UNL     1      35.280 -10.675 -25.133  0.00  0.00    -0.089 HD
ENDBRANCH  22  23
BRANCH  22  27
ATOM     27  C   UNL     1      32.879  -9.830 -23.089  0.00  0.00    +0.013 C 
BRANCH  27  28
ATOM     28  C   UNL     1      32.618  -8.434 -23.606  0.00  0.00    -0.024 C 
ATOM     29  C   UNL     1      33.691  -7.620 -23.929  0.00  0.00    -0.004 C 
ATOM     30  C   UNL     1      31.311  -7.997 -23.748  0.00  0.00    -0.004 C 
ATOM     31  C   UNL     1      33.451  -6.331 -24.406  0.00  0.00    -0.000 C 
ATOM     32  C   UNL     1      31.071  -6.708 -24.225  0.00  0.00    -0.000 C 
ATOM     33  C   UNL     1      32.141  -5.876 -24.554  0.00  0.00    -0.000 C 
ENDBRANCH  27  28
ENDBRANCH  22  27
ENDBRANCH   7  22
TORSDOF 9
ENDMDL
MODEL 8
REMARK VINA RESULT:     -10.2      1.949      9.594
REMARK  Name = 23586040
REMARK  9 active torsions:
REMARK  status: ('A' for Active; 'I' for Inactive)
REMARK    1  A    between atoms: C_3  and  C_10
REMARK    2  A    between atoms: C_7  and  C_22
REMARK    3  A    between atoms: N_9  and  C_12
REMARK    4  A    between atoms: C_12  and  C_13
REMARK    5  A    between atoms: C_13  and  N_14
REMARK    6  A    between atoms: N_14  and  C_17
REMARK    7  A    between atoms: C_22  and  N_23
REMARK    8  A    between atoms: C_22  and  C_27
REMARK    9  A    between atoms: C_27  and  C_28
REMARK                            x       y       z     vdW  Elec       q    Type
REMARK                         _______ _______ _______ _____ _____    ______ ____
ROOT
ATOM      1  O   UNL     1      34.121 -12.248 -23.888  0.00  0.00    -0.277 OA
ATOM      2  N   UNL     1      33.504 -13.525 -22.060  0.00  0.00    -0.275 N 
ATOM      3  C   UNL     1      34.570 -14.512 -22.179  0.00  0.00    +0.152 C 
ATOM      4  C   UNL     1      34.569 -15.245 -20.843  0.00  0.00    +0.031 C 
ATOM      5  C   UNL     1      33.115 -15.148 -20.385  0.00  0.00    +0.024 C 
ATOM      6  C   UNL     1      32.687 -13.772 -20.874  0.00  0.00    +0.094 C 
ATOM      7  C   UNL     1      33.413 -12.423 -22.895  0.00  0.00    +0.206 C 
ENDROOT
BRANCH   3  10
ATOM      8  O   UNL     1      33.221 -15.216 -24.018  0.00  0.00    -0.273 OA
ATOM      9  N   UNL     1      35.083 -16.484 -23.434  0.00  0.00    -0.301 N 
ATOM     10  C   UNL     1      34.207 -15.421 -23.314  0.00  0.00    +0.241 C 
ATOM     11  H   UNL     1      35.840 -16.542 -22.808  0.00  0.00    +0.150 HD
BRANCH   9  12
ATOM     12  C   UNL     1      34.940 -17.516 -24.436  0.00  0.00    +0.111 C 
BRANCH  12  13
ATOM     13  C   UNL     1      34.946 -18.911 -23.831  0.00  0.00    +0.109 C 
BRANCH  13  14
ATOM     14  N   UNL     1      35.372 -18.861 -22.452  0.00  0.00    -0.331 N 
ATOM     15  H   UNL     1      36.083 -18.226 -22.208  0.00  0.00    +0.147 HD
BRANCH  14  17
ATOM     16  N   UNL     1      33.746 -21.275 -19.418  0.00  0.00    -0.242 NA
ATOM     17  C   UNL     1      34.836 -19.657 -21.453  0.00  0.00    +0.048 C 
ATOM     18  C   UNL     1      35.653 -20.499 -20.684  0.00  0.00    +0.035 C 
ATOM     19  C   UNL     1      33.461 -19.643 -21.178  0.00  0.00    +0.035 C 
ATOM     20  C   UNL     1      35.068 -21.275 -19.696  0.00  0.00    +0.100 C 
ATOM     21  C   UNL     1      32.974 -20.456 -20.167  0.00  0.00    +0.100 C 
ENDBRANCH  14  17
ENDBRANCH  13  14
ENDBRANCH  12  13
ENDBRANCH   9  12
ENDBRANCH   3  10
BRANCH   7  22
ATOM     22  C   UNL     1      32.358 -11.412 -22.525  0.00  0.00    +0.018 C 
BRANCH  22  23
ATOM     23  N   UNL     1      31.089 -12.024 -22.899  0.00  0.00    +0.388 N 
ATOM     24  H   UNL     1      31.266 -12.911 -23.371  0.00  0.00    -0.089 HD
ATOM     25  H   UNL     1      30.584 -11.400 -23.529  0.00  0.00    -0.089 HD
ATOM     26  H   UNL     1      30.531 -12.189 -22.063  0.00  0.00    -0.089 HD
ENDBRANCH  22  23
BRANCH  22  27
ATOM     27  C   UNL     1      32.575 -10.090 -23.261  0.00  0.00    +0.013 C 
BRANCH  27  28
ATOM     28  C   UNL     1      32.423  -8.888 -22.359  0.00  0.00    -0.024 C 
ATOM     29  C   UNL     1      32.451  -7.618 -22.911  0.00  0.00    -0.004 C 
ATOM     30  C   UNL     1      32.259  -9.079 -20.996  0.00  0.00    -0.004 C 
ATOM     31  C   UNL     1      32.311  -6.507 -22.079  0.00  0.00    -0.000 C 
ATOM     32  C   UNL     1      32.120  -7.969 -20.164  0.00  0.00    -0.000 C 
ATOM     33  C   UNL     1      32.146  -6.684 -20.704  0.00  0.00    -0.000 C 
ENDBRANCH  27  28
ENDBRANCH  22  27
ENDBRANCH   7  22
TORSDOF 9
ENDMDL
MODEL 9
REMARK VINA RESULT:     -10.1      8.031     13.260
REMARK  Name = 23586040
REMARK  9 active torsions:
REMARK  status: ('A' for Active; 'I' for Inactive)
REMARK    1  A    between atoms: C_3  and  C_10
REMARK    2  A    between atoms: C_7  and  C_22
REMARK    3  A    between atoms: N_9  and  C_12
REMARK    4  A    between atoms: C_12  and  C_13
REMARK    5  A    between atoms: C_13  and  N_14
REMARK    6  A    between atoms: N_14  and  C_17
REMARK    7  A    between atoms: C_22  and  N_23
REMARK    8  A    between atoms: C_22  and  C_27
REMARK    9  A    between atoms: C_27  and  C_28
REMARK                            x       y       z     vdW  Elec       q    Type
REMARK                         _______ _______ _______ _____ _____    ______ ____
ROOT
ATOM      1  O   UNL     1      34.667 -22.582 -16.082  0.00  0.00    -0.277 OA
ATOM      2  N   UNL     1      32.411 -23.096 -16.035  0.00  0.00    -0.275 N 
ATOM      3  C   UNL     1      32.209 -22.827 -14.617  0.00  0.00    +0.152 C 
ATOM      4  C   UNL     1      30.696 -22.748 -14.451  0.00  0.00    +0.031 C 
ATOM      5  C   UNL     1      30.169 -23.668 -15.549  0.00  0.00    +0.024 C 
ATOM      6  C   UNL     1      31.153 -23.449 -16.689  0.00  0.00    +0.094 C 
ATOM      7  C   UNL     1      33.624 -22.879 -16.669  0.00  0.00    +0.206 C 
ENDROOT
BRANCH   3  10
ATOM      8  O   UNL     1      32.244 -25.078 -13.824  0.00  0.00    -0.273 OA
ATOM      9  N   UNL     1      33.971 -23.641 -13.217  0.00  0.00    -0.301 N 
ATOM     10  C   UNL     1      32.794 -23.980 -13.860  0.00  0.00    +0.241 C 
ATOM     11  H   UNL     1      34.316 -22.724 -13.321  0.00  0.00    +0.150 HD
BRANCH   9  12
ATOM     12  C   UNL     1      34.721 -24.569 -12.401  0.00  0.00    +0.111 C 
BRANCH  12  13
ATOM     13  C   UNL     1      35.951 -23.925 -11.779  0.00  0.00    +0.109 C 
BRANCH  13  14
ATOM     14  N   UNL     1      37.019 -24.890 -11.660  0.00  0.00    -0.331 N 
ATOM     15  H   UNL     1      37.281 -25.185 -10.759  0.00  0.00    +0.147 HD
BRANCH  14  17
ATOM     16  N   UNL     1      39.073 -26.514 -14.951  0.00  0.00    -0.242 NA
ATOM     17  C   UNL     1      37.695 -25.425 -12.745  0.00  0.00    +0.048 C 
ATOM     18  C   UNL     1      38.987 -24.990 -13.076  0.00  0.00    +0.035 C 
ATOM     19  C   UNL     1      37.110 -26.418 -13.543  0.00  0.00    +0.035 C 
ATOM     20  C   UNL     1      39.621 -25.557 -14.170  0.00  0.00    +0.100 C 
ATOM     21  C   UNL     1      37.828 -26.922 -14.616  0.00  0.00    +0.100 C 
ENDBRANCH  14  17
ENDBRANCH  13  14
ENDBRANCH  12  13
ENDBRANCH   9  12
ENDBRANCH   3  10
BRANCH   7  22
ATOM     22  C   UNL     1      33.613 -23.040 -18.167  0.00  0.00    +0.018 C 
BRANCH  22  23
ATOM     23  N   UNL     1      33.597 -24.479 -18.400  0.00  0.00    +0.388 N 
ATOM     24  H   UNL     1      34.152 -24.945 -17.683  0.00  0.00    -0.089 HD
ATOM     25  H   UNL     1      33.992 -24.679 -19.319  0.00  0.00    -0.089 HD
ATOM     26  H   UNL     1      32.637 -24.819 -18.361  0.00  0.00    -0.089 HD
ENDBRANCH  22  23
BRANCH  22  27
ATOM     27  C   UNL     1      34.841 -22.389 -18.803  0.00  0.00    +0.013 C 
BRANCH  27  28
ATOM     28  C   UNL     1      34.487 -21.214 -19.685  0.00  0.00    -0.024 C 
ATOM     29  C   UNL     1      35.501 -20.504 -20.306  0.00  0.00    -0.004 C 
ATOM     30  C   UNL     1      33.156 -20.871 -19.855  0.00  0.00    -0.004 C 
ATOM     31  C   UNL     1      35.176 -19.418 -21.120  0.00  0.00    -0.000 C 
ATOM     32  C   UNL     1      32.830 -19.786 -20.668  0.00  0.00    -0.000 C 
ATOM     33  C   UNL     1      33.839 -19.059 -21.300  0.00  0.00    -0.000 C 
ENDBRANCH  27  28
ENDBRANCH  22  27
ENDBRANCH   7  22
TORSDOF 9
ENDMDL
