MODEL 1
REMARK VINA RESULT:      -9.6      0.000      0.000
REMARK  Name = 9911502
REMARK  6 active torsions:
REMARK  status: ('A' for Active; 'I' for Inactive)
REMARK    1  A    between atoms: N_2  and  C_20
REMARK    2  A    between atoms: C_3  and  N_7
REMARK    3  A    between atoms: N_7  and  S_9
REMARK    4  A    between atoms: S_9  and  C_12
REMARK    5  A    between atoms: C_13  and  C_16
REMARK    6  A    between atoms: C_20  and  C_25
REMARK                            x       y       z     vdW  Elec       q    Type
REMARK                         _______ _______ _______ _____ _____    ______ ____
ROOT
ATOM      1  O   UNL     1      36.285 -22.720 -16.350  0.00  0.00    -0.273 OA
ATOM      2  N   UNL     1      34.081 -23.418 -15.917  0.00  0.00    -0.272 N 
ATOM      3  C   UNL     1      34.465 -22.227 -17.883  0.00  0.00    +0.153 C 
ATOM      4  C   UNL     1      33.143 -22.979 -17.992  0.00  0.00    +0.048 C 
ATOM      5  C   UNL     1      32.790 -23.288 -16.550  0.00  0.00    +0.096 C 
ATOM      6  C   UNL     1      35.103 -22.810 -16.646  0.00  0.00    +0.242 C 
ENDROOT
BRANCH   3   7
ATOM      7  N   UNL     1      35.322 -22.492 -19.043  0.00  0.00    -0.172 NA
ATOM      8  H   UNL     1      35.866 -23.330 -18.834  0.00  0.00    +0.149 HD
BRANCH   7   9
ATOM      9  S   UNL     1      36.434 -21.268 -19.528  0.00  0.00    +0.062 S 
ATOM     10  O   UNL     1      37.449 -21.885 -20.364  0.00  0.00    -0.153 OA
ATOM     11  O   UNL     1      36.831 -20.545 -18.332  0.00  0.00    -0.153 OA
BRANCH   9  12
ATOM     12  C   UNL     1      35.499 -20.190 -20.511  0.00  0.00    +0.141 C 
ATOM     13  C   UNL     1      36.112 -19.086 -20.956  0.00  0.00    +0.028 C 
BRANCH  13  16
ATOM     14 CL   UNL     1      34.069 -16.455 -25.285  0.00  0.00    -0.075 Cl
ATOM     15  S   UNL     1      35.356 -18.413 -23.460  0.00  0.00    -0.075 S 
ATOM     16  C   UNL     1      35.481 -18.107 -21.790  0.00  0.00    +0.032 C 
ATOM     17  C   UNL     1      34.942 -16.911 -21.417  0.00  0.00    +0.008 C 
ATOM     18  C   UNL     1      34.405 -16.212 -22.536  0.00  0.00    +0.018 C 
ATOM     19  C   UNL     1      34.563 -16.916 -23.710  0.00  0.00    +0.087 C 
ENDBRANCH  13  16
ENDBRANCH   9  12
ENDBRANCH   7   9
ENDBRANCH   3   7
BRANCH   2  20
ATOM     20  C   UNL     1      34.226 -24.015 -14.607  0.00  0.00    +0.152 C 
ATOM     21  C   UNL     1      32.960 -24.695 -14.142  0.00  0.00    +0.031 C 
BRANCH  20  25
ATOM     22  O   UNL     1      38.811 -24.406 -12.529  0.00  0.00    -0.350 OA
ATOM     23  O   UNL     1      35.290 -25.833 -15.696  0.00  0.00    -0.273 OA
ATOM     24  N   UNL     1      36.381 -24.948 -13.846  0.00  0.00    -0.273 N 
ATOM     25  C   UNL     1      35.342 -25.017 -14.772  0.00  0.00    +0.244 C 
ATOM     26  C   UNL     1      36.411 -24.081 -12.664  0.00  0.00    +0.126 C 
ATOM     27  C   UNL     1      37.503 -25.881 -13.937  0.00  0.00    +0.126 C 
ATOM     28  C   UNL     1      37.777 -23.419 -12.532  0.00  0.00    +0.164 C 
ATOM     29  C   UNL     1      38.822 -25.141 -13.755  0.00  0.00    +0.164 C 
ENDBRANCH  20  25
ENDBRANCH   2  20
TORSDOF 6
ENDMDL
MODEL 2
REMARK VINA RESULT:      -9.6      4.565     10.103
REMARK  Name = 9911502
REMARK  6 active torsions:
REMARK  status: ('A' for Active; 'I' for Inactive)
REMARK    1  A    between atoms: N_2  and  C_20
REMARK    2  A    between atoms: C_3  and  N_7
REMARK    3  A    between atoms: N_7  and  S_9
REMARK    4  A    between atoms: S_9  and  C_12
REMARK    5  A    between atoms: C_13  and  C_16
REMARK    6  A    between atoms: C_20  and  C_25
REMARK                            x       y       z     vdW  Elec       q    Type
REMARK                         _______ _______ _______ _____ _____    ______ ____
ROOT
ATOM      1  O   UNL     1      36.581 -20.739 -20.087  0.00  0.00    -0.273 OA
ATOM      2  N   UNL     1      34.913 -19.435 -21.110  0.00  0.00    -0.272 N 
ATOM      3  C   UNL     1      34.231 -21.344 -19.962  0.00  0.00    +0.153 C 
ATOM      4  C   UNL     1      33.043 -20.406 -20.143  0.00  0.00    +0.048 C 
ATOM      5  C   UNL     1      33.480 -19.493 -21.272  0.00  0.00    +0.096 C 
ATOM      6  C   UNL     1      35.415 -20.497 -20.358  0.00  0.00    +0.242 C 
ENDROOT
BRANCH   3   7
ATOM      7  N   UNL     1      34.373 -21.755 -18.561  0.00  0.00    -0.172 NA
ATOM      8  H   UNL     1      35.341 -22.050 -18.428  0.00  0.00    +0.149 HD
BRANCH   7   9
ATOM      9  S   UNL     1      33.366 -23.027 -17.982  0.00  0.00    +0.062 S 
ATOM     10  O   UNL     1      33.695 -24.235 -18.718  0.00  0.00    -0.153 OA
ATOM     11  O   UNL     1      32.000 -22.534 -17.984  0.00  0.00    -0.153 OA
BRANCH   9  12
ATOM     12  C   UNL     1      33.845 -23.247 -16.330  0.00  0.00    +0.141 C 
ATOM     13  C   UNL     1      35.158 -23.225 -16.070  0.00  0.00    +0.028 C 
BRANCH  13  16
ATOM     14 CL   UNL     1      35.762 -24.354 -10.760  0.00  0.00    -0.075 Cl
ATOM     15  S   UNL     1      34.723 -23.998 -13.519  0.00  0.00    -0.075 S 
ATOM     16  C   UNL     1      35.712 -23.377 -14.757  0.00  0.00    +0.032 C 
ATOM     17  C   UNL     1      36.977 -23.079 -14.341  0.00  0.00    +0.008 C 
ATOM     18  C   UNL     1      37.150 -23.368 -12.957  0.00  0.00    +0.018 C 
ATOM     19  C   UNL     1      36.002 -23.874 -12.387  0.00  0.00    +0.087 C 
ENDBRANCH  13  16
ENDBRANCH   9  12
ENDBRANCH   7   9
ENDBRANCH   3   7
BRANCH   2  20
ATOM     20  C   UNL     1      35.711 -18.432 -21.782  0.00  0.00    +0.152 C 
ATOM     21  C   UNL     1      37.193 -18.699 -21.656  0.00  0.00    +0.031 C 
BRANCH  20  25
ATOM     22  O   UNL     1      33.730 -15.031 -24.943  0.00  0.00    -0.350 OA
ATOM     23  O   UNL     1      35.180 -19.611 -23.769  0.00  0.00    -0.273 OA
ATOM     24  N   UNL     1      35.000 -17.297 -23.855  0.00  0.00    -0.273 N 
ATOM     25  C   UNL     1      35.275 -18.508 -23.224  0.00  0.00    +0.244 C 
ATOM     26  C   UNL     1      35.226 -15.968 -23.279  0.00  0.00    +0.126 C 
ATOM     27  C   UNL     1      34.567 -17.282 -25.252  0.00  0.00    +0.126 C 
ATOM     28  C   UNL     1      34.024 -15.068 -23.545  0.00  0.00    +0.164 C 
ATOM     29  C   UNL     1      33.392 -16.331 -25.432  0.00  0.00    +0.164 C 
ENDBRANCH  20  25
ENDBRANCH   2  20
TORSDOF 6
ENDMDL
MODEL 3
REMARK VINA RESULT:      -9.5      3.055      5.116
REMARK  Name = 9911502
REMARK  6 active torsions:
REMARK  status: ('A' for Active; 'I' for Inactive)
REMARK    1  A    between atoms: N_2  and  C_20
REMARK    2  A    between atoms: C_3  and  N_7
REMARK    3  A    between atoms: N_7  and  S_9
REMARK    4  A    between atoms: S_9  and  C_12
REMARK    5  A    between atoms: C_13  and  C_16
REMARK    6  A    between atoms: C_20  and  C_25
REMARK                            x       y       z     vdW  Elec       q    Type
REMARK                         _______ _______ _______ _____ _____    ______ ____
ROOT
ATOM      1  O   UNL     1      31.809 -23.214 -17.739  0.00  0.00    -0.273 OA
ATOM      2  N   UNL     1      33.006 -23.769 -15.792  0.00  0.00    -0.272 N 
ATOM      3  C   UNL     1      34.227 -23.004 -17.623  0.00  0.00    +0.153 C 
ATOM      4  C   UNL     1      35.065 -22.865 -16.357  0.00  0.00    +0.048 C 
ATOM      5  C   UNL     1      34.389 -23.805 -15.378  0.00  0.00    +0.096 C 
ATOM      6  C   UNL     1      32.847 -23.316 -17.101  0.00  0.00    +0.242 C 
ENDROOT
BRANCH   3   7
ATOM      7  N   UNL     1      34.191 -21.745 -18.375  0.00  0.00    -0.172 NA
ATOM      8  H   UNL     1      33.325 -21.739 -18.915  0.00  0.00    +0.149 HD
BRANCH   7   9
ATOM      9  S   UNL     1      35.480 -21.416 -19.470  0.00  0.00    +0.062 S 
ATOM     10  O   UNL     1      35.709 -22.607 -20.270  0.00  0.00    -0.153 OA
ATOM     11  O   UNL     1      36.571 -20.849 -18.698  0.00  0.00    -0.153 OA
BRANCH   9  12
ATOM     12  C   UNL     1      34.864 -20.172 -20.509  0.00  0.00    +0.141 C 
ATOM     13  C   UNL     1      35.761 -19.364 -21.088  0.00  0.00    +0.028 C 
BRANCH  13  16
ATOM     14 CL   UNL     1      34.196 -14.528 -23.087  0.00  0.00    -0.075 Cl
ATOM     15  S   UNL     1      34.940 -16.803 -21.328  0.00  0.00    -0.075 S 
ATOM     16  C   UNL     1      35.413 -18.301 -21.983  0.00  0.00    +0.032 C 
ATOM     17  C   UNL     1      35.408 -18.322 -23.347  0.00  0.00    +0.008 C 
ATOM     18  C   UNL     1      35.001 -17.066 -23.884  0.00  0.00    +0.018 C 
ATOM     19  C   UNL     1      34.717 -16.149 -22.896  0.00  0.00    +0.087 C 
ENDBRANCH  13  16
ENDBRANCH   9  12
ENDBRANCH   7   9
ENDBRANCH   3   7
BRANCH   2  20
ATOM     20  C   UNL     1      31.949 -24.278 -14.946  0.00  0.00    +0.152 C 
ATOM     21  C   UNL     1      32.462 -24.751 -13.606  0.00  0.00    +0.031 C 
BRANCH  20  25
ATOM     22  O   UNL     1      27.326 -23.317 -16.734  0.00  0.00    -0.350 OA
ATOM     23  O   UNL     1      31.426 -22.067 -14.267  0.00  0.00    -0.273 OA
ATOM     24  N   UNL     1      29.701 -23.296 -15.219  0.00  0.00    -0.273 N 
ATOM     25  C   UNL     1      31.009 -23.111 -14.776  0.00  0.00    +0.244 C 
ATOM     26  C   UNL     1      29.140 -24.559 -15.708  0.00  0.00    +0.126 C 
ATOM     27  C   UNL     1      28.726 -22.213 -15.095  0.00  0.00    +0.126 C 
ATOM     28  C   UNL     1      28.319 -24.317 -16.970  0.00  0.00    +0.164 C 
ATOM     29  C   UNL     1      27.928 -22.068 -16.384  0.00  0.00    +0.164 C 
ENDBRANCH  20  25
ENDBRANCH   2  20
TORSDOF 6
ENDMDL
MODEL 4
REMARK VINA RESULT:      -9.5      1.443      1.883
REMARK  Name = 9911502
REMARK  6 active torsions:
REMARK  status: ('A' for Active; 'I' for Inactive)
REMARK    1  A    between atoms: N_2  and  C_20
REMARK    2  A    between atoms: C_3  and  N_7
REMARK    3  A    between atoms: N_7  and  S_9
REMARK    4  A    between atoms: S_9  and  C_12
REMARK    5  A    between atoms: C_13  and  C_16
REMARK    6  A    between atoms: C_20  and  C_25
REMARK                            x       y       z     vdW  Elec       q    Type
REMARK                         _______ _______ _______ _____ _____    ______ ____
ROOT
ATOM      1  O   UNL     1      33.558 -22.859 -17.719  0.00  0.00    -0.273 OA
ATOM      2  N   UNL     1      35.262 -22.819 -16.099  0.00  0.00    -0.272 N 
ATOM      3  C   UNL     1      35.818 -22.147 -18.260  0.00  0.00    +0.153 C 
ATOM      4  C   UNL     1      36.863 -21.626 -17.280  0.00  0.00    +0.048 C 
ATOM      5  C   UNL     1      36.671 -22.503 -16.057  0.00  0.00    +0.096 C 
ATOM      6  C   UNL     1      34.707 -22.638 -17.366  0.00  0.00    +0.242 C 
ENDROOT
BRANCH   3   7
ATOM      7  N   UNL     1      35.313 -21.069 -19.117  0.00  0.00    -0.172 NA
ATOM      8  H   UNL     1      34.528 -21.446 -19.649  0.00  0.00    +0.149 HD
BRANCH   7   9
ATOM      9  S   UNL     1      36.399 -20.354 -20.247  0.00  0.00    +0.062 S 
ATOM     10  O   UNL     1      37.101 -21.421 -20.938  0.00  0.00    -0.153 OA
ATOM     11  O   UNL     1      37.157 -19.338 -19.537  0.00  0.00    -0.153 OA
BRANCH   9  12
ATOM     12  C   UNL     1      35.374 -19.546 -21.389  0.00  0.00    +0.141 C 
ATOM     13  C   UNL     1      35.954 -18.654 -22.202  0.00  0.00    +0.028 C 
BRANCH  13  16
ATOM     14 CL   UNL     1      33.334 -14.686 -24.889  0.00  0.00    -0.075 Cl
ATOM     15  S   UNL     1      34.802 -16.308 -22.881  0.00  0.00    -0.075 S 
ATOM     16  C   UNL     1      35.247 -17.918 -23.207  0.00  0.00    +0.032 C 
ATOM     17  C   UNL     1      34.864 -18.346 -24.445  0.00  0.00    +0.008 C 
ATOM     18  C   UNL     1      34.179 -17.320 -25.159  0.00  0.00    +0.018 C 
ATOM     19  C   UNL     1      34.075 -16.159 -24.425  0.00  0.00    +0.087 C 
ENDBRANCH  13  16
ENDBRANCH   9  12
ENDBRANCH   7   9
ENDBRANCH   3   7
BRANCH   2  20
ATOM     20  C   UNL     1      34.577 -23.380 -14.955  0.00  0.00    +0.152 C 
ATOM     21  C   UNL     1      33.142 -23.737 -15.264  0.00  0.00    +0.031 C 
BRANCH  20  25
ATOM     22  O   UNL     1      37.887 -24.397 -11.281  0.00  0.00    -0.350 OA
ATOM     23  O   UNL     1      35.428 -25.544 -15.416  0.00  0.00    -0.273 OA
ATOM     24  N   UNL     1      36.008 -24.615 -13.368  0.00  0.00    -0.273 N 
ATOM     25  C   UNL     1      35.373 -24.613 -14.608  0.00  0.00    +0.244 C 
ATOM     26  C   UNL     1      35.858 -23.586 -12.334  0.00  0.00    +0.126 C 
ATOM     27  C   UNL     1      36.803 -25.771 -12.956  0.00  0.00    +0.126 C 
ATOM     28  C   UNL     1      37.219 -23.224 -11.751  0.00  0.00    +0.164 C 
ATOM     29  C   UNL     1      38.124 -25.316 -12.351  0.00  0.00    +0.164 C 
ENDBRANCH  20  25
ENDBRANCH   2  20
TORSDOF 6
ENDMDL
MODEL 5
REMARK VINA RESULT:      -9.4      4.522     10.058
REMARK  Name = 9911502
REMARK  6 active torsions:
REMARK  status: ('A' for Active; 'I' for Inactive)
REMARK    1  A    between atoms: N_2  and  C_20
REMARK    2  A    between atoms: C_3  and  N_7
REMARK    3  A    between atoms: N_7  and  S_9
REMARK    4  A    between atoms: S_9  and  C_12
REMARK    5  A    between atoms: C_13  and  C_16
REMARK    6  A    between atoms: C_20  and  C_25
REMARK                            x       y       z     vdW  Elec       q    Type
REMARK                         _______ _______ _______ _____ _____    ______ ____
ROOT
ATOM      1  O   UNL     1      36.711 -20.675 -19.892  0.00  0.00    -0.273 OA
ATOM      2  N   UNL     1      35.078 -19.425 -21.032  0.00  0.00    -0.272 N 
ATOM      3  C   UNL     1      34.378 -21.351 -19.924  0.00  0.00    +0.153 C 
ATOM      4  C   UNL     1      33.177 -20.449 -20.189  0.00  0.00    +0.048 C 
ATOM      5  C   UNL     1      33.661 -19.527 -21.290  0.00  0.00    +0.096 C 
ATOM      6  C   UNL     1      35.559 -20.469 -20.243  0.00  0.00    +0.242 C 
ENDROOT
BRANCH   3   7
ATOM      7  N   UNL     1      34.436 -21.753 -18.515  0.00  0.00    -0.172 NA
ATOM      8  H   UNL     1      35.397 -22.037 -18.320  0.00  0.00    +0.149 HD
BRANCH   7   9
ATOM      9  S   UNL     1      33.410 -23.034 -17.992  0.00  0.00    +0.062 S 
ATOM     10  O   UNL     1      33.719 -24.213 -18.783  0.00  0.00    -0.153 OA
ATOM     11  O   UNL     1      32.051 -22.520 -17.971  0.00  0.00    -0.153 OA
BRANCH   9  12
ATOM     12  C   UNL     1      33.886 -23.337 -16.353  0.00  0.00    +0.141 C 
ATOM     13  C   UNL     1      35.174 -23.136 -16.047  0.00  0.00    +0.028 C 
BRANCH  13  16
ATOM     14 CL   UNL     1      35.737 -24.396 -10.763  0.00  0.00    -0.075 Cl
ATOM     15  S   UNL     1      34.715 -23.960 -13.517  0.00  0.00    -0.075 S 
ATOM     16  C   UNL     1      35.719 -23.327 -14.736  0.00  0.00    +0.032 C 
ATOM     17  C   UNL     1      36.987 -23.059 -14.309  0.00  0.00    +0.008 C 
ATOM     18  C   UNL     1      37.150 -23.383 -12.931  0.00  0.00    +0.018 C 
ATOM     19  C   UNL     1      35.992 -23.883 -12.377  0.00  0.00    +0.087 C 
ENDBRANCH  13  16
ENDBRANCH   9  12
ENDBRANCH   7   9
ENDBRANCH   3   7
BRANCH   2  20
ATOM     20  C   UNL     1      35.890 -18.400 -21.653  0.00  0.00    +0.152 C 
ATOM     21  C   UNL     1      36.085 -18.639 -23.132  0.00  0.00    +0.031 C 
BRANCH  20  25
ATOM     22  O   UNL     1      33.680 -15.101 -24.771  0.00  0.00    -0.350 OA
ATOM     23  O   UNL     1      35.144 -16.606 -20.293  0.00  0.00    -0.273 OA
ATOM     24  N   UNL     1      34.440 -16.594 -22.506  0.00  0.00    -0.273 N 
ATOM     25  C   UNL     1      35.127 -17.121 -21.415  0.00  0.00    +0.244 C 
ATOM     26  C   UNL     1      34.294 -17.243 -23.813  0.00  0.00    +0.126 C 
ATOM     27  C   UNL     1      33.679 -15.354 -22.362  0.00  0.00    +0.126 C 
ATOM     28  C   UNL     1      34.533 -16.236 -24.931  0.00  0.00    +0.164 C 
ATOM     29  C   UNL     1      33.949 -14.427 -23.540  0.00  0.00    +0.164 C 
ENDBRANCH  20  25
ENDBRANCH   2  20
TORSDOF 6
ENDMDL
MODEL 6
REMARK VINA RESULT:      -9.3      7.443     11.264
REMARK  Name = 9911502
REMARK  6 active torsions:
REMARK  status: ('A' for Active; 'I' for Inactive)
REMARK    1  A    between atoms: N_2  and  C_20
REMARK    2  A    between atoms: C_3  and  N_7
REMARK    3  A    between atoms: N_7  and  S_9
REMARK    4  A    between atoms: S_9  and  C_12
REMARK    5  A    between atoms: C_13  and  C_16
REMARK    6  A    between atoms: C_20  and  C_25
REMARK                            x       y       z     vdW  Elec       q    Type
REMARK                         _______ _______ _______ _____ _____    ______ ____
ROOT
ATOM      1  O   UNL     1      32.235 -15.359 -21.500  0.00  0.00    -0.273 OA
ATOM      2  N   UNL     1      33.231 -14.878 -23.575  0.00  0.00    -0.272 N 
ATOM      3  C   UNL     1      32.225 -13.115 -22.431  0.00  0.00    +0.153 C 
ATOM      4  C   UNL     1      33.191 -12.562 -23.473  0.00  0.00    +0.048 C 
ATOM      5  C   UNL     1      33.387 -13.723 -24.428  0.00  0.00    +0.096 C 
ATOM      6  C   UNL     1      32.550 -14.587 -22.393  0.00  0.00    +0.242 C 
ENDROOT
BRANCH   3   7
ATOM      7  N   UNL     1      32.476 -12.526 -21.112  0.00  0.00    -0.172 NA
ATOM      8  H   UNL     1      32.417 -13.280 -20.427  0.00  0.00    +0.149 HD
BRANCH   7   9
ATOM      9  S   UNL     1      31.432 -11.265 -20.573  0.00  0.00    +0.062 S 
ATOM     10  O   UNL     1      31.517 -11.195 -19.125  0.00  0.00    -0.153 OA
ATOM     11  O   UNL     1      30.142 -11.469 -21.208  0.00  0.00    -0.153 OA
BRANCH   9  12
ATOM     12  C   UNL     1      32.121  -9.816 -21.230  0.00  0.00    +0.141 C 
ATOM     13  C   UNL     1      31.849  -9.540 -22.511  0.00  0.00    +0.028 C 
BRANCH  13  16
ATOM     14 CL   UNL     1      32.080  -4.792 -25.202  0.00  0.00    -0.075 Cl
ATOM     15  S   UNL     1      31.199  -7.242 -23.773  0.00  0.00    -0.075 S 
ATOM     16  C   UNL     1      32.329  -8.375 -23.193  0.00  0.00    +0.032 C 
ATOM     17  C   UNL     1      33.624  -8.032 -23.455  0.00  0.00    +0.008 C 
ATOM     18  C   UNL     1      33.701  -6.794 -24.157  0.00  0.00    +0.018 C 
ATOM     19  C   UNL     1      32.455  -6.256 -24.395  0.00  0.00    +0.087 C 
ENDBRANCH  13  16
ENDBRANCH   9  12
ENDBRANCH   7   9
ENDBRANCH   3   7
BRANCH   2  20
ATOM     20  C   UNL     1      33.642 -16.198 -24.004  0.00  0.00    +0.152 C 
ATOM     21  C   UNL     1      33.865 -16.274 -25.496  0.00  0.00    +0.031 C 
BRANCH  20  25
ATOM     22  O   UNL     1      35.264 -20.064 -21.191  0.00  0.00    -0.350 OA
ATOM     23  O   UNL     1      35.727 -15.524 -23.098  0.00  0.00    -0.273 OA
ATOM     24  N   UNL     1      35.129 -17.746 -22.787  0.00  0.00    -0.273 N 
ATOM     25  C   UNL     1      34.928 -16.451 -23.258  0.00  0.00    +0.244 C 
ATOM     26  C   UNL     1      34.265 -18.897 -23.069  0.00  0.00    +0.126 C 
ATOM     27  C   UNL     1      36.348 -18.076 -22.050  0.00  0.00    +0.126 C 
ATOM     28  C   UNL     1      34.021 -19.697 -21.795  0.00  0.00    +0.164 C 
ATOM     29  C   UNL     1      36.014 -18.906 -20.818  0.00  0.00    +0.164 C 
ENDBRANCH  20  25
ENDBRANCH   2  20
TORSDOF 6
ENDMDL
MODEL 7
REMARK VINA RESULT:      -9.2      6.177     12.082
REMARK  Name = 9911502
REMARK  6 active torsions:
REMARK  status: ('A' for Active; 'I' for Inactive)
REMARK    1  A    between atoms: N_2  and  C_20
REMARK    2  A    between atoms: C_3  and  N_7
REMARK    3  A    between atoms: N_7  and  S_9
REMARK    4  A    between atoms: S_9  and  C_12
REMARK    5  A    between atoms: C_13  and  C_16
REMARK    6  A    between atoms: C_20  and  C_25
REMARK                            x       y       z     vdW  Elec       q    Type
REMARK                         _______ _______ _______ _____ _____    ______ ____
ROOT
ATOM      1  O   UNL     1      35.001 -14.541 -22.103  0.00  0.00    -0.273 OA
ATOM      2  N   UNL     1      34.013 -13.991 -24.165  0.00  0.00    -0.272 N 
ATOM      3  C   UNL     1      34.681 -16.201 -23.848  0.00  0.00    +0.153 C 
ATOM      4  C   UNL     1      33.675 -16.131 -24.992  0.00  0.00    +0.048 C 
ATOM      5  C   UNL     1      33.703 -14.671 -25.401  0.00  0.00    +0.096 C 
ATOM      6  C   UNL     1      34.597 -14.833 -23.218  0.00  0.00    +0.242 C 
ENDROOT
BRANCH   3   7
ATOM      7  N   UNL     1      34.293 -17.216 -22.863  0.00  0.00    -0.172 NA
ATOM      8  H   UNL     1      34.312 -16.771 -21.945  0.00  0.00    +0.149 HD
BRANCH   7   9
ATOM      9  S   UNL     1      35.242 -18.649 -22.757  0.00  0.00    +0.062 S 
ATOM     10  O   UNL     1      36.565 -18.282 -22.284  0.00  0.00    -0.153 OA
ATOM     11  O   UNL     1      35.101 -19.358 -24.017  0.00  0.00    -0.153 OA
BRANCH   9  12
ATOM     12  C   UNL     1      34.468 -19.597 -21.529  0.00  0.00    +0.141 C 
ATOM     13  C   UNL     1      35.253 -20.386 -20.784  0.00  0.00    +0.028 C 
BRANCH  13  16
ATOM     14 CL   UNL     1      34.967 -23.458 -16.277  0.00  0.00    -0.075 Cl
ATOM     15  S   UNL     1      35.860 -21.734 -18.525  0.00  0.00    -0.075 S 
ATOM     16  C   UNL     1      34.767 -21.216 -19.722  0.00  0.00    +0.032 C 
ATOM     17  C   UNL     1      33.495 -21.670 -19.528  0.00  0.00    +0.008 C 
ATOM     18  C   UNL     1      33.405 -22.474 -18.355  0.00  0.00    +0.018 C 
ATOM     19  C   UNL     1      34.618 -22.591 -17.713  0.00  0.00    +0.087 C 
ENDBRANCH  13  16
ENDBRANCH   9  12
ENDBRANCH   7   9
ENDBRANCH   3   7
BRANCH   2  20
ATOM     20  C   UNL     1      33.836 -12.562 -24.021  0.00  0.00    +0.152 C 
ATOM     21  C   UNL     1      33.587 -11.878 -25.344  0.00  0.00    +0.031 C 
BRANCH  20  25
ATOM     22  O   UNL     1      31.914  -8.652 -21.470  0.00  0.00    -0.350 OA
ATOM     23  O   UNL     1      32.059 -13.436 -22.716  0.00  0.00    -0.273 OA
ATOM     24  N   UNL     1      32.264 -11.124 -22.776  0.00  0.00    -0.273 N 
ATOM     25  C   UNL     1      32.639 -12.422 -23.113  0.00  0.00    +0.244 C 
ATOM     26  C   UNL     1      32.848  -9.898 -23.330  0.00  0.00    +0.126 C 
ATOM     27  C   UNL     1      31.117 -10.899 -21.897  0.00  0.00    +0.126 C 
ATOM     28  C   UNL     1      33.108  -8.890 -22.217  0.00  0.00    +0.164 C 
ATOM     29  C   UNL     1      31.453  -9.852 -20.844  0.00  0.00    +0.164 C 
ENDBRANCH  20  25
ENDBRANCH   2  20
TORSDOF 6
ENDMDL
MODEL 8
REMARK VINA RESULT:      -8.9      4.748      9.853
REMARK  Name = 9911502
REMARK  6 active torsions:
REMARK  status: ('A' for Active; 'I' for Inactive)
REMARK    1  A    between atoms: N_2  and  C_20
REMARK    2  A    between atoms: C_3  and  N_7
REMARK    3  A    between atoms: N_7  and  S_9
REMARK    4  A    between atoms: S_9  and  C_12
REMARK    5  A    between atoms: C_13  and  C_16
REMARK    6  A    between atoms: C_20  and  C_25
REMARK                            x       y       z     vdW  Elec       q    Type
REMARK                         _______ _______ _______ _____ _____    ______ ____
ROOT
ATOM      1  O   UNL     1      36.256 -20.243 -19.970  0.00  0.00    -0.273 OA
ATOM      2  N   UNL     1      34.933 -18.840 -21.316  0.00  0.00    -0.272 N 
ATOM      3  C   UNL     1      33.943 -20.779 -20.487  0.00  0.00    +0.153 C 
ATOM      4  C   UNL     1      32.859 -19.797 -20.916  0.00  0.00    +0.048 C 
ATOM      5  C   UNL     1      33.589 -18.845 -21.844  0.00  0.00    +0.096 C 
ATOM      6  C   UNL     1      35.204 -19.952 -20.519  0.00  0.00    +0.242 C 
ENDROOT
BRANCH   3   7
ATOM      7  N   UNL     1      33.711 -21.260 -19.121  0.00  0.00    -0.172 NA
ATOM      8  H   UNL     1      34.077 -20.552 -18.483  0.00  0.00    +0.149 HD
BRANCH   7   9
ATOM      9  S   UNL     1      34.404 -22.769 -18.661  0.00  0.00    +0.062 S 
ATOM     10  O   UNL     1      35.762 -22.523 -18.207  0.00  0.00    -0.153 OA
ATOM     11  O   UNL     1      34.169 -23.703 -19.748  0.00  0.00    -0.153 OA
BRANCH   9  12
ATOM     12  C   UNL     1      33.460 -23.289 -17.303  0.00  0.00    +0.141 C 
ATOM     13  C   UNL     1      32.196 -22.853 -17.238  0.00  0.00    +0.028 C 
BRANCH  13  16
ATOM     14 CL   UNL     1      30.121 -24.633 -12.510  0.00  0.00    -0.075 Cl
ATOM     15  S   UNL     1      31.912 -23.864 -14.750  0.00  0.00    -0.075 S 
ATOM     16  C   UNL     1      31.286 -23.206 -16.189  0.00  0.00    +0.032 C 
ATOM     17  C   UNL     1      29.927 -23.084 -16.183  0.00  0.00    +0.008 C 
ATOM     18  C   UNL     1      29.371 -23.544 -14.955  0.00  0.00    +0.018 C 
ATOM     19  C   UNL     1      30.339 -23.996 -14.085  0.00  0.00    +0.087 C 
ENDBRANCH  13  16
ENDBRANCH   9  12
ENDBRANCH   7   9
ENDBRANCH   3   7
BRANCH   2  20
ATOM     20  C   UNL     1      35.896 -17.832 -21.705  0.00  0.00    +0.152 C 
ATOM     21  C   UNL     1      37.154 -18.434 -22.284  0.00  0.00    +0.031 C 
BRANCH  20  25
ATOM     22  O   UNL     1      32.732 -13.914 -21.350  0.00  0.00    -0.350 OA
ATOM     23  O   UNL     1      35.150 -17.386 -23.911  0.00  0.00    -0.273 OA
ATOM     24  N   UNL     1      34.570 -15.833 -22.285  0.00  0.00    -0.273 N 
ATOM     25  C   UNL     1      35.175 -17.003 -22.738  0.00  0.00    +0.244 C 
ATOM     26  C   UNL     1      34.690 -15.284 -20.930  0.00  0.00    +0.126 C 
ATOM     27  C   UNL     1      33.847 -14.973 -23.221  0.00  0.00    +0.126 C 
ATOM     28  C   UNL     1      33.326 -14.828 -20.425  0.00  0.00    +0.164 C 
ATOM     29  C   UNL     1      32.519 -14.535 -22.620  0.00  0.00    +0.164 C 
ENDBRANCH  20  25
ENDBRANCH   2  20
TORSDOF 6
ENDMDL
MODEL 9
REMARK VINA RESULT:      -8.9      6.072     12.007
REMARK  Name = 9911502
REMARK  6 active torsions:
REMARK  status: ('A' for Active; 'I' for Inactive)
REMARK    1  A    between atoms: N_2  and  C_20
REMARK    2  A    between atoms: C_3  and  N_7
REMARK    3  A    between atoms: N_7  and  S_9
REMARK    4  A    between atoms: S_9  and  C_12
REMARK    5  A    between atoms: C_13  and  C_16
REMARK    6  A    between atoms: C_20  and  C_25
REMARK                            x       y       z     vdW  Elec       q    Type
REMARK                         _______ _______ _______ _____ _____    ______ ____
ROOT
ATOM      1  O   UNL     1      35.364 -15.976 -23.850  0.00  0.00    -0.273 OA
ATOM      2  N   UNL     1      33.684 -14.578 -22.981  0.00  0.00    -0.272 N 
ATOM      3  C   UNL     1      34.058 -16.609 -21.901  0.00  0.00    +0.153 C 
ATOM      4  C   UNL     1      33.308 -15.665 -20.967  0.00  0.00    +0.048 C 
ATOM      5  C   UNL     1      32.721 -14.629 -21.907  0.00  0.00    +0.096 C 
ATOM      6  C   UNL     1      34.492 -15.714 -23.035  0.00  0.00    +0.242 C 
ENDROOT
BRANCH   3   7
ATOM      7  N   UNL     1      35.243 -17.171 -21.244  0.00  0.00    -0.172 NA
ATOM      8  H   UNL     1      36.033 -16.567 -21.474  0.00  0.00    +0.149 HD
BRANCH   7   9
ATOM      9  S   UNL     1      35.701 -18.785 -21.637  0.00  0.00    +0.062 S 
ATOM     10  O   UNL     1      37.112 -18.942 -21.332  0.00  0.00    -0.153 OA
ATOM     11  O   UNL     1      35.222 -19.055 -22.982  0.00  0.00    -0.153 OA
BRANCH   9  12
ATOM     12  C   UNL     1      34.793 -19.777 -20.544  0.00  0.00    +0.141 C 
ATOM     13  C   UNL     1      35.451 -20.773 -19.937  0.00  0.00    +0.028 C 
BRANCH  13  16
ATOM     14 CL   UNL     1      34.591 -24.001 -15.616  0.00  0.00    -0.075 Cl
ATOM     15  S   UNL     1      35.741 -22.147 -17.631  0.00  0.00    -0.075 S 
ATOM     16  C   UNL     1      34.846 -21.669 -18.997  0.00  0.00    +0.032 C 
ATOM     17  C   UNL     1      33.597 -22.216 -19.045  0.00  0.00    +0.008 C 
ATOM     18  C   UNL     1      33.358 -23.062 -17.923  0.00  0.00    +0.018 C 
ATOM     19  C   UNL     1      34.442 -23.114 -17.075  0.00  0.00    +0.087 C 
ENDBRANCH  13  16
ENDBRANCH   9  12
ENDBRANCH   7   9
ENDBRANCH   3   7
BRANCH   2  20
ATOM     20  C   UNL     1      33.686 -13.501 -23.948  0.00  0.00    +0.152 C 
ATOM     21  C   UNL     1      33.089 -13.917 -25.272  0.00  0.00    +0.031 C 
BRANCH  20  25
ATOM     22  O   UNL     1      34.152  -8.477 -23.778  0.00  0.00    -0.350 OA
ATOM     23  O   UNL     1      31.976 -12.730 -22.497  0.00  0.00    -0.273 OA
ATOM     24  N   UNL     1      33.150 -11.108 -23.674  0.00  0.00    -0.273 N 
ATOM     25  C   UNL     1      32.856 -12.418 -23.304  0.00  0.00    +0.244 C 
ATOM     26  C   UNL     1      34.097 -10.712 -24.721  0.00  0.00    +0.126 C 
ATOM     27  C   UNL     1      32.395  -9.998 -23.094  0.00  0.00    +0.126 C 
ATOM     28  C   UNL     1      34.967  -9.559 -24.235  0.00  0.00    +0.164 C 
ATOM     29  C   UNL     1      33.339  -8.879 -22.673  0.00  0.00    +0.164 C 
ENDBRANCH  20  25
ENDBRANCH   2  20
TORSDOF 6
ENDMDL
