MODEL 1
REMARK VINA RESULT:      -5.6      0.000      0.000
REMARK  Name = 5288437
REMARK  3 active torsions:
REMARK  status: ('A' for Active; 'I' for Inactive)
REMARK    1  A    between atoms: C_2  and  O_8
REMARK    2  A    between atoms: C_4  and  O_10
REMARK    3  A    between atoms: C_6  and  O_12
REMARK                            x       y       z     vdW  Elec       q    Type
REMARK                         _______ _______ _______ _____ _____    ______ ____
ROOT
ATOM      1  O   UNL     1      37.750 -24.187 -13.057  0.00  0.00    -0.331 OA
ATOM      2  C   UNL     1      34.878 -24.240 -12.737  0.00  0.00    +0.145 C 
ATOM      3  C   UNL     1      35.561 -23.600 -13.943  0.00  0.00    +0.062 C 
ATOM      4  C   UNL     1      35.837 -24.265 -11.545  0.00  0.00    +0.194 C 
ATOM      5  C   UNL     1      36.915 -24.252 -14.220  0.00  0.00    +0.120 C 
ATOM      6  C   UNL     1      37.194 -24.864 -11.927  0.00  0.00    +0.262 C 
ATOM      7  C   UNL     1      37.644 -23.538 -15.350  0.00  0.00    +0.032 C 
ENDROOT
BRANCH   2   8
ATOM      8  O   UNL     1      33.724 -23.466 -12.418  0.00  0.00    -0.382 OA
ATOM      9  H   UNL     1      33.972 -22.532 -12.343  0.00  0.00    +0.210 HD
ENDBRANCH   2   8
BRANCH   4  10
ATOM     10  O   UNL     1      35.283 -25.015 -10.471  0.00  0.00    -0.378 OA
ATOM     11  H   UNL     1      35.602 -24.656  -9.628  0.00  0.00    +0.211 HD
ENDBRANCH   4  10
BRANCH   6  12
ATOM     12  O   UNL     1      37.133 -26.275 -12.125  0.00  0.00    -0.358 OA
ATOM     13  H   UNL     1      36.407 -26.644 -11.599  0.00  0.00    +0.213 HD
ENDBRANCH   6  12
TORSDOF 3
ENDMDL
MODEL 2
REMARK VINA RESULT:      -5.6      1.498      1.583
REMARK  Name = 5288437
REMARK  3 active torsions:
REMARK  status: ('A' for Active; 'I' for Inactive)
REMARK    1  A    between atoms: C_2  and  O_8
REMARK    2  A    between atoms: C_4  and  O_10
REMARK    3  A    between atoms: C_6  and  O_12
REMARK                            x       y       z     vdW  Elec       q    Type
REMARK                         _______ _______ _______ _____ _____    ______ ____
ROOT
ATOM      1  O   UNL     1      37.556 -22.618 -13.328  0.00  0.00    -0.331 OA
ATOM      2  C   UNL     1      35.850 -24.700 -12.274  0.00  0.00    +0.145 C 
ATOM      3  C   UNL     1      35.866 -24.316 -13.752  0.00  0.00    +0.062 C 
ATOM      4  C   UNL     1      36.329 -23.522 -11.423  0.00  0.00    +0.194 C 
ATOM      5  C   UNL     1      37.220 -23.738 -14.157  0.00  0.00    +0.120 C 
ATOM      6  C   UNL     1      37.654 -22.954 -11.942  0.00  0.00    +0.262 C 
ATOM      7  C   UNL     1      37.197 -23.251 -15.600  0.00  0.00    +0.032 C 
ENDROOT
BRANCH   2   8
ATOM      8  O   UNL     1      34.513 -25.047 -11.920  0.00  0.00    -0.382 OA
ATOM      9  H   UNL     1      34.129 -25.605 -12.614  0.00  0.00    +0.210 HD
ENDBRANCH   2   8
BRANCH   4  10
ATOM     10  O   UNL     1      36.490 -23.916 -10.066  0.00  0.00    -0.378 OA
ATOM     11  H   UNL     1      35.870 -24.633  -9.861  0.00  0.00    +0.211 HD
ENDBRANCH   4  10
BRANCH   6  12
ATOM     12  O   UNL     1      38.759 -23.816 -11.676  0.00  0.00    -0.358 OA
ATOM     13  H   UNL     1      38.551 -24.384 -10.918  0.00  0.00    +0.213 HD
ENDBRANCH   6  12
TORSDOF 3
ENDMDL
MODEL 3
REMARK VINA RESULT:      -5.6      1.680      2.266
REMARK  Name = 5288437
REMARK  3 active torsions:
REMARK  status: ('A' for Active; 'I' for Inactive)
REMARK    1  A    between atoms: C_2  and  O_8
REMARK    2  A    between atoms: C_4  and  O_10
REMARK    3  A    between atoms: C_6  and  O_12
REMARK                            x       y       z     vdW  Elec       q    Type
REMARK                         _______ _______ _______ _____ _____    ______ ____
ROOT
ATOM      1  O   UNL     1      38.250 -23.875 -14.904  0.00  0.00    -0.331 OA
ATOM      2  C   UNL     1      35.665 -24.828 -14.030  0.00  0.00    +0.145 C 
ATOM      3  C   UNL     1      35.866 -23.452 -14.660  0.00  0.00    +0.062 C 
ATOM      4  C   UNL     1      36.973 -25.311 -13.401  0.00  0.00    +0.194 C 
ATOM      5  C   UNL     1      37.071 -23.446 -15.598  0.00  0.00    +0.120 C 
ATOM      6  C   UNL     1      38.143 -25.202 -14.383  0.00  0.00    +0.262 C 
ATOM      7  C   UNL     1      37.339 -22.047 -16.136  0.00  0.00    +0.032 C 
ENDROOT
BRANCH   2   8
ATOM      8  O   UNL     1      34.655 -24.714 -13.029  0.00  0.00    -0.382 OA
ATOM      9  H   UNL     1      34.652 -23.811 -12.674  0.00  0.00    +0.210 HD
ENDBRANCH   2   8
BRANCH   4  10
ATOM     10  O   UNL     1      36.852 -26.661 -12.968  0.00  0.00    -0.378 OA
ATOM     11  H   UNL     1      37.041 -26.714 -12.018  0.00  0.00    +0.211 HD
ENDBRANCH   4  10
BRANCH   6  12
ATOM     12  O   UNL     1      38.081 -26.181 -15.419  0.00  0.00    -0.358 OA
ATOM     13  H   UNL     1      37.201 -26.587 -15.428  0.00  0.00    +0.213 HD
ENDBRANCH   6  12
TORSDOF 3
ENDMDL
MODEL 4
REMARK VINA RESULT:      -5.6      2.261      2.839
REMARK  Name = 5288437
REMARK  3 active torsions:
REMARK  status: ('A' for Active; 'I' for Inactive)
REMARK    1  A    between atoms: C_2  and  O_8
REMARK    2  A    between atoms: C_4  and  O_10
REMARK    3  A    between atoms: C_6  and  O_12
REMARK                            x       y       z     vdW  Elec       q    Type
REMARK                         _______ _______ _______ _____ _____    ______ ____
ROOT
ATOM      1  O   UNL     1      38.791 -24.265 -13.325  0.00  0.00    -0.331 OA
ATOM      2  C   UNL     1      36.842 -26.311 -13.929  0.00  0.00    +0.145 C 
ATOM      3  C   UNL     1      38.214 -26.258 -14.596  0.00  0.00    +0.062 C 
ATOM      4  C   UNL     1      36.443 -24.918 -13.440  0.00  0.00    +0.194 C 
ATOM      5  C   UNL     1      39.239 -25.576 -13.692  0.00  0.00    +0.120 C 
ATOM      6  C   UNL     1      37.555 -24.275 -12.606  0.00  0.00    +0.262 C 
ATOM      7  C   UNL     1      40.578 -25.422 -14.403  0.00  0.00    +0.032 C 
ENDROOT
BRANCH   2   8
ATOM      8  O   UNL     1      35.899 -26.779 -14.892  0.00  0.00    -0.382 OA
ATOM      9  H   UNL     1      35.484 -27.594 -14.569  0.00  0.00    +0.210 HD
ENDBRANCH   2   8
BRANCH   4  10
ATOM     10  O   UNL     1      35.254 -24.979 -12.662  0.00  0.00    -0.378 OA
ATOM     11  H   UNL     1      34.485 -25.037 -13.251  0.00  0.00    +0.211 HD
ENDBRANCH   4  10
BRANCH   6  12
ATOM     12  O   UNL     1      37.689 -24.874 -11.318  0.00  0.00    -0.358 OA
ATOM     13  H   UNL     1      38.623 -24.875 -11.057  0.00  0.00    +0.213 HD
ENDBRANCH   6  12
TORSDOF 3
ENDMDL
MODEL 5
REMARK VINA RESULT:      -5.5      2.457      3.271
REMARK  Name = 5288437
REMARK  3 active torsions:
REMARK  status: ('A' for Active; 'I' for Inactive)
REMARK    1  A    between atoms: C_2  and  O_8
REMARK    2  A    between atoms: C_4  and  O_10
REMARK    3  A    between atoms: C_6  and  O_12
REMARK                            x       y       z     vdW  Elec       q    Type
REMARK                         _______ _______ _______ _____ _____    ______ ____
ROOT
ATOM      1  O   UNL     1      38.346 -26.758 -14.618  0.00  0.00    -0.331 OA
ATOM      2  C   UNL     1      37.799 -24.664 -12.701  0.00  0.00    +0.145 C 
ATOM      3  C   UNL     1      39.217 -25.067 -13.100  0.00  0.00    +0.062 C 
ATOM      4  C   UNL     1      36.838 -25.830 -12.939  0.00  0.00    +0.194 C 
ATOM      5  C   UNL     1      39.248 -25.649 -14.512  0.00  0.00    +0.120 C 
ATOM      6  C   UNL     1      36.986 -26.403 -14.352  0.00  0.00    +0.262 C 
ATOM      7  C   UNL     1      40.641 -26.155 -14.864  0.00  0.00    +0.032 C 
ENDROOT
BRANCH   2   8
ATOM      8  O   UNL     1      37.810 -24.314 -11.319  0.00  0.00    -0.382 OA
ATOM      9  H   UNL     1      38.631 -23.842 -11.111  0.00  0.00    +0.210 HD
ENDBRANCH   2   8
BRANCH   4  10
ATOM     10  O   UNL     1      35.491 -25.418 -12.743  0.00  0.00    -0.378 OA
ATOM     11  H   UNL     1      34.922 -25.848 -13.400  0.00  0.00    +0.211 HD
ENDBRANCH   4  10
BRANCH   6  12
ATOM     12  O   UNL     1      36.453 -25.537 -15.352  0.00  0.00    -0.358 OA
ATOM     13  H   UNL     1      37.164 -25.252 -15.946  0.00  0.00    +0.213 HD
ENDBRANCH   6  12
TORSDOF 3
ENDMDL
MODEL 6
REMARK VINA RESULT:      -5.5      2.072      3.377
REMARK  Name = 5288437
REMARK  3 active torsions:
REMARK  status: ('A' for Active; 'I' for Inactive)
REMARK    1  A    between atoms: C_2  and  O_8
REMARK    2  A    between atoms: C_4  and  O_10
REMARK    3  A    between atoms: C_6  and  O_12
REMARK                            x       y       z     vdW  Elec       q    Type
REMARK                         _______ _______ _______ _____ _____    ______ ____
ROOT
ATOM      1  O   UNL     1      36.740 -26.054 -12.221  0.00  0.00    -0.331 OA
ATOM      2  C   UNL     1      36.326 -24.723 -14.753  0.00  0.00    +0.145 C 
ATOM      3  C   UNL     1      35.683 -24.242 -13.454  0.00  0.00    +0.062 C 
ATOM      4  C   UNL     1      36.653 -26.213 -14.654  0.00  0.00    +0.194 C 
ATOM      5  C   UNL     1      36.526 -24.637 -12.243  0.00  0.00    +0.120 C 
ATOM      6  C   UNL     1      37.433 -26.535 -13.376  0.00  0.00    +0.262 C 
ATOM      7  C   UNL     1      35.827 -24.258 -10.944  0.00  0.00    +0.032 C 
ENDROOT
BRANCH   2   8
ATOM      8  O   UNL     1      35.403 -24.495 -15.816  0.00  0.00    -0.382 OA
ATOM      9  H   UNL     1      35.714 -23.756 -16.362  0.00  0.00    +0.210 HD
ENDBRANCH   2   8
BRANCH   4  10
ATOM     10  O   UNL     1      37.411 -26.637 -15.781  0.00  0.00    -0.378 OA
ATOM     11  H   UNL     1      37.630 -27.578 -15.689  0.00  0.00    +0.211 HD
ENDBRANCH   4  10
BRANCH   6  12
ATOM     12  O   UNL     1      38.781 -26.069 -13.425  0.00  0.00    -0.358 OA
ATOM     13  H   UNL     1      39.058 -25.978 -14.350  0.00  0.00    +0.213 HD
ENDBRANCH   6  12
TORSDOF 3
ENDMDL
MODEL 7
REMARK VINA RESULT:      -5.4      1.700      2.852
REMARK  Name = 5288437
REMARK  3 active torsions:
REMARK  status: ('A' for Active; 'I' for Inactive)
REMARK    1  A    between atoms: C_2  and  O_8
REMARK    2  A    between atoms: C_4  and  O_10
REMARK    3  A    between atoms: C_6  and  O_12
REMARK                            x       y       z     vdW  Elec       q    Type
REMARK                         _______ _______ _______ _____ _____    ______ ____
ROOT
ATOM      1  O   UNL     1      35.946 -23.199 -14.041  0.00  0.00    -0.331 OA
ATOM      2  C   UNL     1      36.518 -24.226 -11.401  0.00  0.00    +0.145 C 
ATOM      3  C   UNL     1      35.142 -24.346 -12.052  0.00  0.00    +0.062 C 
ATOM      4  C   UNL     1      37.281 -23.046 -12.005  0.00  0.00    +0.194 C 
ATOM      5  C   UNL     1      35.253 -24.363 -13.575  0.00  0.00    +0.120 C 
ATOM      6  C   UNL     1      37.280 -23.099 -13.536  0.00  0.00    +0.262 C 
ATOM      7  C   UNL     1      33.874 -24.367 -14.223  0.00  0.00    +0.032 C 
ENDROOT
BRANCH   2   8
ATOM      8  O   UNL     1      36.331 -24.022 -10.002  0.00  0.00    -0.382 OA
ATOM      9  H   UNL     1      36.645 -23.136  -9.760  0.00  0.00    +0.210 HD
ENDBRANCH   2   8
BRANCH   4  10
ATOM     10  O   UNL     1      38.626 -23.028 -11.540  0.00  0.00    -0.378 OA
ATOM     11  H   UNL     1      39.057 -22.209 -11.831  0.00  0.00    +0.211 HD
ENDBRANCH   4  10
BRANCH   6  12
ATOM     12  O   UNL     1      38.126 -24.128 -14.048  0.00  0.00    -0.358 OA
ATOM     13  H   UNL     1      37.861 -24.981 -13.671  0.00  0.00    +0.213 HD
ENDBRANCH   6  12
TORSDOF 3
ENDMDL
MODEL 8
REMARK VINA RESULT:      -5.4      2.716      3.945
REMARK  Name = 5288437
REMARK  3 active torsions:
REMARK  status: ('A' for Active; 'I' for Inactive)
REMARK    1  A    between atoms: C_2  and  O_8
REMARK    2  A    between atoms: C_4  and  O_10
REMARK    3  A    between atoms: C_6  and  O_12
REMARK                            x       y       z     vdW  Elec       q    Type
REMARK                         _______ _______ _______ _____ _____    ______ ____
ROOT
ATOM      1  O   UNL     1      35.746 -26.029 -15.326  0.00  0.00    -0.331 OA
ATOM      2  C   UNL     1      38.196 -24.583 -14.814  0.00  0.00    +0.145 C 
ATOM      3  C   UNL     1      36.941 -23.910 -15.365  0.00  0.00    +0.062 C 
ATOM      4  C   UNL     1      38.179 -26.075 -15.150  0.00  0.00    +0.194 C 
ATOM      5  C   UNL     1      35.680 -24.653 -14.930  0.00  0.00    +0.120 C 
ATOM      6  C   UNL     1      36.852 -26.728 -14.750  0.00  0.00    +0.262 C 
ATOM      7  C   UNL     1      34.439 -24.048 -15.573  0.00  0.00    +0.032 C 
ENDROOT
BRANCH   2   8
ATOM      8  O   UNL     1      39.332 -23.961 -15.411  0.00  0.00    -0.382 OA
ATOM      9  H   UNL     1      39.824 -24.617 -15.930  0.00  0.00    +0.210 HD
ENDBRANCH   2   8
BRANCH   4  10
ATOM     10  O   UNL     1      39.246 -26.750 -14.494  0.00  0.00    -0.378 OA
ATOM     11  H   UNL     1      40.082 -26.296 -14.686  0.00  0.00    +0.211 HD
ENDBRANCH   4  10
BRANCH   6  12
ATOM     12  O   UNL     1      36.718 -26.871 -13.337  0.00  0.00    -0.358 OA
ATOM     13  H   UNL     1      37.541 -26.598 -12.904  0.00  0.00    +0.213 HD
ENDBRANCH   6  12
TORSDOF 3
ENDMDL
MODEL 9
REMARK VINA RESULT:      -5.4      2.498      3.790
REMARK  Name = 5288437
REMARK  3 active torsions:
REMARK  status: ('A' for Active; 'I' for Inactive)
REMARK    1  A    between atoms: C_2  and  O_8
REMARK    2  A    between atoms: C_4  and  O_10
REMARK    3  A    between atoms: C_6  and  O_12
REMARK                            x       y       z     vdW  Elec       q    Type
REMARK                         _______ _______ _______ _____ _____    ______ ____
ROOT
ATOM      1  O   UNL     1      36.197 -24.270 -15.747  0.00  0.00    -0.331 OA
ATOM      2  C   UNL     1      38.341 -25.656 -14.393  0.00  0.00    +0.145 C 
ATOM      3  C   UNL     1      38.571 -24.401 -15.231  0.00  0.00    +0.062 C 
ATOM      4  C   UNL     1      37.067 -26.366 -14.853  0.00  0.00    +0.194 C 
ATOM      5  C   UNL     1      37.322 -23.523 -15.265  0.00  0.00    +0.120 C 
ATOM      6  C   UNL     1      35.881 -25.400 -14.932  0.00  0.00    +0.262 C 
ATOM      7  C   UNL     1      37.515 -22.332 -16.193  0.00  0.00    +0.032 C 
ENDROOT
BRANCH   2   8
ATOM      8  O   UNL     1      39.467 -26.515 -14.561  0.00  0.00    -0.382 OA
ATOM      9  H   UNL     1      39.177 -27.439 -14.519  0.00  0.00    +0.210 HD
ENDBRANCH   2   8
BRANCH   4  10
ATOM     10  O   UNL     1      36.741 -27.434 -13.972  0.00  0.00    -0.378 OA
ATOM     11  H   UNL     1      37.556 -27.815 -13.609  0.00  0.00    +0.211 HD
ENDBRANCH   4  10
BRANCH   6  12
ATOM     12  O   UNL     1      35.403 -25.015 -13.644  0.00  0.00    -0.358 OA
ATOM     13  H   UNL     1      34.529 -24.605 -13.732  0.00  0.00    +0.213 HD
ENDBRANCH   6  12
TORSDOF 3
ENDMDL
