MODEL 1
REMARK VINA RESULT:     -11.0      0.000      0.000
REMARK  Name = 25166913
REMARK  4 active torsions:
REMARK  status: ('A' for Active; 'I' for Inactive)
REMARK    1  A    between atoms: C_2  and  C_11
REMARK    2  A    between atoms: C_3  and  N_21
REMARK    3  A    between atoms: N_22  and  C_26
REMARK    4  A    between atoms: C_31  and  C_33
REMARK                            x       y       z     vdW  Elec       q    Type
REMARK                         _______ _______ _______ _____ _____    ______ ____
ROOT
ATOM      1  N   UNL     1      34.385 -22.848 -17.951  0.00  0.00    +0.389 N 
ATOM      2  C   UNL     1      35.523 -22.079 -17.383  0.00  0.00    -0.019 C 
ATOM      3  C   UNL     1      36.283 -21.463 -19.758  0.00  0.00    +0.069 C 
ATOM      4  C   UNL     1      36.700 -21.989 -18.384  0.00  0.00    +0.002 C 
ATOM      5  C   UNL     1      35.076 -22.242 -20.270  0.00  0.00    -0.003 C 
ATOM      6  C   UNL     1      33.946 -22.285 -19.241  0.00  0.00    -0.076 C 
ATOM      7  C   UNL     1      33.236 -22.880 -17.037  0.00  0.00    -0.100 C 
ATOM      8  H   UNL     1      34.728 -23.798 -18.092  0.00  0.00    -0.080 HD
ENDROOT
BRANCH   2  11
ATOM      9  N   UNL     1      37.192 -23.420 -16.048  0.00  0.00    -0.320 N 
ATOM     10  N   UNL     1      35.525 -22.526 -14.881  0.00  0.00    -0.320 N 
ATOM     11  C   UNL     1      36.055 -22.663 -16.076  0.00  0.00    +0.124 C 
ATOM     12  C   UNL     1      37.412 -23.796 -14.747  0.00  0.00    +0.059 C 
ATOM     13  C   UNL     1      36.359 -23.226 -14.039  0.00  0.00    +0.059 C 
ATOM     14  C   UNL     1      38.412 -24.564 -14.149  0.00  0.00    +0.016 C 
ATOM     15  C   UNL     1      36.282 -23.422 -12.650  0.00  0.00    +0.016 C 
ATOM     16  C   UNL     1      38.320 -24.749 -12.765  0.00  0.00    +0.001 C 
ATOM     17  C   UNL     1      37.275 -24.189 -12.027  0.00  0.00    +0.001 C 
ATOM     18  H   UNL     1      37.754 -23.654 -16.822  0.00  0.00    +0.148 HD
ATOM     19  H   UNL     1      34.710 -22.030 -14.641  0.00  0.00    +0.148 HD
ENDBRANCH   2  11
BRANCH   3  21
ATOM     20  O   UNL     1      35.481 -19.812 -21.964  0.00  0.00    -0.252 OA
ATOM     21  N   UNL     1      36.018 -20.044 -19.727  0.00  0.00    -0.290 N 
ATOM     22  N   UNL     1      35.448 -17.966 -20.515  0.00  0.00    -0.268 N 
ATOM     23  C   UNL     1      35.630 -19.310 -20.853  0.00  0.00    +0.304 C 
ATOM     24  H   UNL     1      36.117 -19.569 -18.870  0.00  0.00    +0.151 HD
ATOM     25  H   UNL     1      35.610 -17.731 -19.574  0.00  0.00    +0.156 HD
BRANCH  22  26
ATOM     26  C   UNL     1      35.057 -16.903 -21.363  0.00  0.00    +0.052 C 
ATOM     27  C   UNL     1      35.280 -16.987 -22.737  0.00  0.00    +0.015 C 
ATOM     28  C   UNL     1      34.446 -15.771 -20.823  0.00  0.00    +0.015 C 
ATOM     29  C   UNL     1      34.894 -15.938 -23.572  0.00  0.00    +0.012 C 
ATOM     30  C   UNL     1      34.059 -14.722 -21.658  0.00  0.00    +0.012 C 
ATOM     31  C   UNL     1      34.284 -14.805 -23.032  0.00  0.00    +0.069 C 
BRANCH  31  33
ATOM     32  N   UNL     1      33.568 -12.860 -24.583  0.00  0.00    -0.191 NA
ATOM     33  C   UNL     1      33.888 -13.732 -23.888  0.00  0.00    +0.100 C 
ENDBRANCH  31  33
ENDBRANCH  22  26
ENDBRANCH   3  21
TORSDOF 4
ENDMDL
MODEL 2
REMARK VINA RESULT:      -9.4      6.820     11.219
REMARK  Name = 25166913
REMARK  4 active torsions:
REMARK  status: ('A' for Active; 'I' for Inactive)
REMARK    1  A    between atoms: C_2  and  C_11
REMARK    2  A    between atoms: C_3  and  N_21
REMARK    3  A    between atoms: N_22  and  C_26
REMARK    4  A    between atoms: C_31  and  C_33
REMARK                            x       y       z     vdW  Elec       q    Type
REMARK                         _______ _______ _______ _____ _____    ______ ____
ROOT
ATOM      1  N   UNL     1      33.587 -13.673 -25.748  0.00  0.00    +0.389 N 
ATOM      2  C   UNL     1      33.532 -13.532 -24.270  0.00  0.00    -0.019 C 
ATOM      3  C   UNL     1      34.475 -11.151 -24.470  0.00  0.00    +0.069 C 
ATOM      4  C   UNL     1      34.570 -12.503 -23.761  0.00  0.00    +0.002 C 
ATOM      5  C   UNL     1      34.474 -11.354 -25.981  0.00  0.00    -0.003 C 
ATOM      6  C   UNL     1      33.421 -12.372 -26.420  0.00  0.00    -0.076 C 
ATOM      7  C   UNL     1      32.558 -14.595 -26.249  0.00  0.00    -0.100 C 
ATOM      8  H   UNL     1      34.509 -14.053 -25.962  0.00  0.00    -0.080 HD
ENDROOT
BRANCH   2  11
ATOM      9  N   UNL     1      34.586 -15.812 -24.034  0.00  0.00    -0.320 N 
ATOM     10  N   UNL     1      33.235 -15.202 -22.377  0.00  0.00    -0.320 N 
ATOM     11  C   UNL     1      33.763 -14.846 -23.528  0.00  0.00    +0.124 C 
ATOM     12  C   UNL     1      34.590 -16.863 -23.152  0.00  0.00    +0.059 C 
ATOM     13  C   UNL     1      33.740 -16.458 -22.127  0.00  0.00    +0.059 C 
ATOM     14  C   UNL     1      35.245 -18.095 -23.162  0.00  0.00    +0.016 C 
ATOM     15  C   UNL     1      33.519 -17.319 -21.040  0.00  0.00    +0.016 C 
ATOM     16  C   UNL     1      35.013 -18.941 -22.073  0.00  0.00    +0.001 C 
ATOM     17  C   UNL     1      34.166 -18.561 -21.028  0.00  0.00    +0.001 C 
ATOM     18  H   UNL     1      35.086 -15.764 -24.881  0.00  0.00    +0.148 HD
ATOM     19  H   UNL     1      32.614 -14.683 -21.817  0.00  0.00    +0.148 HD
ENDBRANCH   2  11
BRANCH   3  21
ATOM     20  O   UNL     1      34.271  -8.303 -24.186  0.00  0.00    -0.252 OA
ATOM     21  N   UNL     1      33.317 -10.405 -24.039  0.00  0.00    -0.290 N 
ATOM     22  N   UNL     1      32.046  -8.576 -23.487  0.00  0.00    -0.268 N 
ATOM     23  C   UNL     1      33.300  -9.010 -23.926  0.00  0.00    +0.304 C 
ATOM     24  H   UNL     1      32.498 -10.902 -23.812  0.00  0.00    +0.151 HD
ATOM     25  H   UNL     1      31.377  -9.278 -23.325  0.00  0.00    +0.156 HD
BRANCH  22  26
ATOM     26  C   UNL     1      31.622  -7.247 -23.249  0.00  0.00    +0.052 C 
ATOM     27  C   UNL     1      31.477  -6.784 -21.942  0.00  0.00    +0.015 C 
ATOM     28  C   UNL     1      31.349  -6.400 -24.323  0.00  0.00    +0.015 C 
ATOM     29  C   UNL     1      31.058  -5.474 -21.707  0.00  0.00    +0.012 C 
ATOM     30  C   UNL     1      30.931  -5.090 -24.090  0.00  0.00    +0.012 C 
ATOM     31  C   UNL     1      30.785  -4.627 -22.782  0.00  0.00    +0.069 C 
BRANCH  31  33
ATOM     32  N   UNL     1      30.010  -2.195 -22.346  0.00  0.00    -0.191 NA
ATOM     33  C   UNL     1      30.357  -3.285 -22.542  0.00  0.00    +0.100 C 
ENDBRANCH  31  33
ENDBRANCH  22  26
ENDBRANCH   3  21
TORSDOF 4
ENDMDL
MODEL 3
REMARK VINA RESULT:      -9.1      2.219     10.192
REMARK  Name = 25166913
REMARK  4 active torsions:
REMARK  status: ('A' for Active; 'I' for Inactive)
REMARK    1  A    between atoms: C_2  and  C_11
REMARK    2  A    between atoms: C_3  and  N_21
REMARK    3  A    between atoms: N_22  and  C_26
REMARK    4  A    between atoms: C_31  and  C_33
REMARK                            x       y       z     vdW  Elec       q    Type
REMARK                         _______ _______ _______ _____ _____    ______ ____
ROOT
ATOM      1  N   UNL     1      34.746 -17.238 -23.296  0.00  0.00    +0.389 N 
ATOM      2  C   UNL     1      34.288 -17.094 -21.889  0.00  0.00    -0.019 C 
ATOM      3  C   UNL     1      33.874 -19.627 -21.773  0.00  0.00    +0.069 C 
ATOM      4  C   UNL     1      33.316 -18.231 -21.492  0.00  0.00    +0.002 C 
ATOM      5  C   UNL     1      34.386 -19.704 -23.208  0.00  0.00    -0.003 C 
ATOM      6  C   UNL     1      35.348 -18.561 -23.533  0.00  0.00    -0.076 C 
ATOM      7  C   UNL     1      35.723 -16.204 -23.662  0.00  0.00    -0.100 C 
ATOM      8  H   UNL     1      33.914 -17.132 -23.876  0.00  0.00    -0.080 HD
ENDROOT
BRANCH   2  11
ATOM      9  N   UNL     1      33.131 -14.977 -22.627  0.00  0.00    -0.320 N 
ATOM     10  N   UNL     1      33.377 -15.222 -20.432  0.00  0.00    -0.320 N 
ATOM     11  C   UNL     1      33.598 -15.761 -21.610  0.00  0.00    +0.124 C 
ATOM     12  C   UNL     1      32.569 -13.857 -22.068  0.00  0.00    +0.059 C 
ATOM     13  C   UNL     1      32.735 -14.034 -20.698  0.00  0.00    +0.059 C 
ATOM     14  C   UNL     1      31.948 -12.740 -22.627  0.00  0.00    +0.016 C 
ATOM     15  C   UNL     1      32.261 -13.047 -19.818  0.00  0.00    +0.016 C 
ATOM     16  C   UNL     1      31.483 -11.767 -21.737  0.00  0.00    +0.001 C 
ATOM     17  C   UNL     1      31.634 -11.916 -20.356  0.00  0.00    +0.001 C 
ATOM     18  H   UNL     1      33.187 -15.179 -23.589  0.00  0.00    +0.148 HD
ATOM     19  H   UNL     1      33.618 -15.588 -19.551  0.00  0.00    +0.148 HD
ENDBRANCH   2  11
BRANCH   3  21
ATOM     20  O   UNL     1      33.590 -21.339 -19.487  0.00  0.00    -0.252 OA
ATOM     21  N   UNL     1      34.904 -19.988 -20.828  0.00  0.00    -0.290 N 
ATOM     22  N   UNL     1      35.861 -20.996 -19.003  0.00  0.00    -0.268 N 
ATOM     23  C   UNL     1      34.682 -20.832 -19.735  0.00  0.00    +0.304 C 
ATOM     24  H   UNL     1      35.809 -19.621 -20.959  0.00  0.00    +0.151 HD
ATOM     25  H   UNL     1      36.652 -20.517 -19.341  0.00  0.00    +0.156 HD
BRANCH  22  26
ATOM     26  C   UNL     1      36.058 -21.769 -17.834  0.00  0.00    +0.052 C 
ATOM     27  C   UNL     1      37.276 -21.712 -17.156  0.00  0.00    +0.015 C 
ATOM     28  C   UNL     1      35.033 -22.587 -17.360  0.00  0.00    +0.015 C 
ATOM     29  C   UNL     1      37.469 -22.475 -16.003  0.00  0.00    +0.012 C 
ATOM     30  C   UNL     1      35.225 -23.349 -16.207  0.00  0.00    +0.012 C 
ATOM     31  C   UNL     1      36.444 -23.293 -15.529  0.00  0.00    +0.069 C 
BRANCH  31  33
ATOM     32  N   UNL     1      36.802 -24.707 -13.390  0.00  0.00    -0.191 NA
ATOM     33  C   UNL     1      36.641 -24.073 -14.349  0.00  0.00    +0.100 C 
ENDBRANCH  31  33
ENDBRANCH  22  26
ENDBRANCH   3  21
TORSDOF 4
ENDMDL
MODEL 4
REMARK VINA RESULT:      -8.9      4.679     11.959
REMARK  Name = 25166913
REMARK  4 active torsions:
REMARK  status: ('A' for Active; 'I' for Inactive)
REMARK    1  A    between atoms: C_2  and  C_11
REMARK    2  A    between atoms: C_3  and  N_21
REMARK    3  A    between atoms: N_22  and  C_26
REMARK    4  A    between atoms: C_31  and  C_33
REMARK                            x       y       z     vdW  Elec       q    Type
REMARK                         _______ _______ _______ _____ _____    ______ ____
ROOT
ATOM      1  N   UNL     1      34.263 -11.295 -25.984  0.00  0.00    +0.389 N 
ATOM      2  C   UNL     1      33.765 -12.038 -24.798  0.00  0.00    -0.019 C 
ATOM      3  C   UNL     1      32.918 -13.912 -26.337  0.00  0.00    +0.069 C 
ATOM      4  C   UNL     1      32.593 -12.978 -25.170  0.00  0.00    +0.002 C 
ATOM      5  C   UNL     1      33.481 -13.110 -27.505  0.00  0.00    -0.003 C 
ATOM      6  C   UNL     1      34.641 -12.211 -27.074  0.00  0.00    -0.076 C 
ATOM      7  C   UNL     1      35.421 -10.452 -25.656  0.00  0.00    -0.100 C 
ATOM      8  H   UNL     1      33.492 -10.700 -26.289  0.00  0.00    -0.080 HD
ENDROOT
BRANCH   2  11
ATOM      9  N   UNL     1      32.588 -11.618 -22.606  0.00  0.00    -0.320 N 
ATOM     10  N   UNL     1      33.509  -9.833 -23.560  0.00  0.00    -0.320 N 
ATOM     11  C   UNL     1      33.300 -11.127 -23.664  0.00  0.00    +0.124 C 
ATOM     12  C   UNL     1      32.319 -10.571 -21.762  0.00  0.00    +0.059 C 
ATOM     13  C   UNL     1      32.903  -9.469 -22.378  0.00  0.00    +0.059 C 
ATOM     14  C   UNL     1      31.634 -10.496 -20.548  0.00  0.00    +0.016 C 
ATOM     15  C   UNL     1      32.810  -8.210 -21.763  0.00  0.00    +0.016 C 
ATOM     16  C   UNL     1      31.550  -9.235 -19.949  0.00  0.00    +0.001 C 
ATOM     17  C   UNL     1      32.128  -8.110 -20.544  0.00  0.00    +0.001 C 
ATOM     18  H   UNL     1      32.316 -12.555 -22.473  0.00  0.00    +0.148 HD
ATOM     19  H   UNL     1      33.992  -9.252 -24.189  0.00  0.00    +0.148 HD
ENDBRANCH   2  11
BRANCH   3  21
ATOM     20  O   UNL     1      32.876 -15.375 -23.868  0.00  0.00    -0.252 OA
ATOM     21  N   UNL     1      33.820 -14.966 -25.939  0.00  0.00    -0.290 N 
ATOM     22  N   UNL     1      34.737 -16.597 -24.611  0.00  0.00    -0.268 N 
ATOM     23  C   UNL     1      33.732 -15.632 -24.712  0.00  0.00    +0.304 C 
ATOM     24  H   UNL     1      34.535 -15.230 -26.563  0.00  0.00    +0.151 HD
ATOM     25  H   UNL     1      35.343 -16.674 -25.383  0.00  0.00    +0.156 HD
BRANCH  22  26
ATOM     26  C   UNL     1      34.990 -17.480 -23.535  0.00  0.00    +0.052 C 
ATOM     27  C   UNL     1      35.392 -16.975 -22.298  0.00  0.00    +0.015 C 
ATOM     28  C   UNL     1      34.834 -18.854 -23.710  0.00  0.00    +0.015 C 
ATOM     29  C   UNL     1      35.641 -17.846 -21.236  0.00  0.00    +0.012 C 
ATOM     30  C   UNL     1      35.082 -19.725 -22.649  0.00  0.00    +0.012 C 
ATOM     31  C   UNL     1      35.486 -19.221 -21.412  0.00  0.00    +0.069 C 
BRANCH  31  33
ATOM     32  N   UNL     1      35.946 -20.837 -19.442  0.00  0.00    -0.191 NA
ATOM     33  C   UNL     1      35.740 -20.113 -20.325  0.00  0.00    +0.100 C 
ENDBRANCH  31  33
ENDBRANCH  22  26
ENDBRANCH   3  21
TORSDOF 4
ENDMDL
MODEL 5
REMARK VINA RESULT:      -8.9      9.140     16.693
REMARK  Name = 25166913
REMARK  4 active torsions:
REMARK  status: ('A' for Active; 'I' for Inactive)
REMARK    1  A    between atoms: C_2  and  C_11
REMARK    2  A    between atoms: C_3  and  N_21
REMARK    3  A    between atoms: N_22  and  C_26
REMARK    4  A    between atoms: C_31  and  C_33
REMARK                            x       y       z     vdW  Elec       q    Type
REMARK                         _______ _______ _______ _____ _____    ______ ____
ROOT
ATOM      1  N   UNL     1      32.160  -5.791 -22.725  0.00  0.00    +0.389 N 
ATOM      2  C   UNL     1      32.346  -6.266 -24.121  0.00  0.00    -0.019 C 
ATOM      3  C   UNL     1      34.130  -7.927 -23.308  0.00  0.00    +0.069 C 
ATOM      4  C   UNL     1      33.763  -6.853 -24.333  0.00  0.00    +0.002 C 
ATOM      5  C   UNL     1      33.863  -7.413 -21.898  0.00  0.00    -0.003 C 
ATOM      6  C   UNL     1      32.446  -6.857 -21.750  0.00  0.00    -0.076 C 
ATOM      7  C   UNL     1      30.796  -5.296 -22.493  0.00  0.00    -0.100 C 
ATOM      8  H   UNL     1      32.820  -5.024 -22.597  0.00  0.00    -0.080 HD
ENDROOT
BRANCH   2  11
ATOM      9  N   UNL     1      32.793  -5.187 -26.357  0.00  0.00    -0.320 N 
ATOM     10  N   UNL     1      31.307  -4.150 -25.069  0.00  0.00    -0.320 N 
ATOM     11  C   UNL     1      32.122  -5.177 -25.167  0.00  0.00    +0.124 C 
ATOM     12  C   UNL     1      32.385  -4.093 -27.077  0.00  0.00    +0.059 C 
ATOM     13  C   UNL     1      31.458  -3.462 -26.252  0.00  0.00    +0.059 C 
ATOM     14  C   UNL     1      32.736  -3.616 -28.340  0.00  0.00    +0.016 C 
ATOM     15  C   UNL     1      30.834  -2.285 -26.698  0.00  0.00    +0.016 C 
ATOM     16  C   UNL     1      32.106  -2.443 -28.768  0.00  0.00    +0.001 C 
ATOM     17  C   UNL     1      31.171  -1.788 -27.963  0.00  0.00    +0.001 C 
ATOM     18  H   UNL     1      33.453  -5.858 -26.646  0.00  0.00    +0.148 HD
ATOM     19  H   UNL     1      30.718  -3.922 -24.315  0.00  0.00    +0.148 HD
ENDBRANCH   2  11
BRANCH   3  21
ATOM     20  O   UNL     1      35.298 -10.479 -23.906  0.00  0.00    -0.252 OA
ATOM     21  N   UNL     1      33.428  -9.164 -23.558  0.00  0.00    -0.290 N 
ATOM     22  N   UNL     1      33.138 -11.388 -24.040  0.00  0.00    -0.268 N 
ATOM     23  C   UNL     1      34.075 -10.371 -23.844  0.00  0.00    +0.304 C 
ATOM     24  H   UNL     1      32.444  -9.157 -23.527  0.00  0.00    +0.151 HD
ATOM     25  H   UNL     1      32.193 -11.129 -23.953  0.00  0.00    +0.156 HD
BRANCH  22  26
ATOM     26  C   UNL     1      33.383 -12.747 -24.346  0.00  0.00    +0.052 C 
ATOM     27  C   UNL     1      33.165 -13.223 -25.639  0.00  0.00    +0.015 C 
ATOM     28  C   UNL     1      33.843 -13.613 -23.354  0.00  0.00    +0.015 C 
ATOM     29  C   UNL     1      33.406 -14.563 -25.940  0.00  0.00    +0.012 C 
ATOM     30  C   UNL     1      34.085 -14.953 -23.654  0.00  0.00    +0.012 C 
ATOM     31  C   UNL     1      33.866 -15.429 -24.947  0.00  0.00    +0.069 C 
BRANCH  31  33
ATOM     32  N   UNL     1      34.316 -17.916 -25.508  0.00  0.00    -0.191 NA
ATOM     33  C   UNL     1      34.114 -16.801 -25.256  0.00  0.00    +0.100 C 
ENDBRANCH  31  33
ENDBRANCH  22  26
ENDBRANCH   3  21
TORSDOF 4
ENDMDL
MODEL 6
REMARK VINA RESULT:      -8.7      2.951      4.433
REMARK  Name = 25166913
REMARK  4 active torsions:
REMARK  status: ('A' for Active; 'I' for Inactive)
REMARK    1  A    between atoms: C_2  and  C_11
REMARK    2  A    between atoms: C_3  and  N_21
REMARK    3  A    between atoms: N_22  and  C_26
REMARK    4  A    between atoms: C_31  and  C_33
REMARK                            x       y       z     vdW  Elec       q    Type
REMARK                         _______ _______ _______ _____ _____    ______ ____
ROOT
ATOM      1  N   UNL     1      32.065 -23.643 -13.778  0.00  0.00    +0.389 N 
ATOM      2  C   UNL     1      33.237 -23.561 -14.688  0.00  0.00    -0.019 C 
ATOM      3  C   UNL     1      31.723 -24.154 -16.677  0.00  0.00    +0.069 C 
ATOM      4  C   UNL     1      33.037 -24.438 -15.948  0.00  0.00    +0.002 C 
ATOM      5  C   UNL     1      30.561 -24.190 -15.690  0.00  0.00    -0.003 C 
ATOM      6  C   UNL     1      30.815 -23.296 -14.476  0.00  0.00    -0.076 C 
ATOM      7  C   UNL     1      32.214 -22.760 -12.613  0.00  0.00    -0.100 C 
ATOM      8  H   UNL     1      32.022 -24.611 -13.460  0.00  0.00    -0.080 HD
ENDROOT
BRANCH   2  11
ATOM      9  N   UNL     1      35.358 -23.054 -13.421  0.00  0.00    -0.320 N 
ATOM     10  N   UNL     1      35.044 -25.189 -13.954  0.00  0.00    -0.320 N 
ATOM     11  C   UNL     1      34.549 -23.974 -14.026  0.00  0.00    +0.124 C 
ATOM     12  C   UNL     1      36.450 -23.721 -12.924  0.00  0.00    +0.059 C 
ATOM     13  C   UNL     1      36.230 -25.051 -13.269  0.00  0.00    +0.059 C 
ATOM     14  C   UNL     1      37.576 -23.287 -12.223  0.00  0.00    +0.016 C 
ATOM     15  C   UNL     1      37.179 -26.019 -12.902  0.00  0.00    +0.016 C 
ATOM     16  C   UNL     1      38.511 -24.264 -11.866  0.00  0.00    +0.001 C 
ATOM     17  C   UNL     1      38.318 -25.607 -12.198  0.00  0.00    +0.001 C 
ATOM     18  H   UNL     1      35.189 -22.087 -13.353  0.00  0.00    +0.148 HD
ATOM     19  H   UNL     1      34.652 -26.018 -14.311  0.00  0.00    +0.148 HD
ENDBRANCH   2  11
BRANCH   3  21
ATOM     20  O   UNL     1      33.661 -23.356 -18.638  0.00  0.00    -0.252 OA
ATOM     21  N   UNL     1      31.770 -22.898 -17.388  0.00  0.00    -0.290 N 
ATOM     22  N   UNL     1      32.539 -21.305 -18.850  0.00  0.00    -0.268 N 
ATOM     23  C   UNL     1      32.754 -22.586 -18.333  0.00  0.00    +0.304 C 
ATOM     24  H   UNL     1      31.074 -22.227 -17.198  0.00  0.00    +0.151 HD
ATOM     25  H   UNL     1      31.760 -20.820 -18.495  0.00  0.00    +0.156 HD
BRANCH  22  26
ATOM     26  C   UNL     1      33.305 -20.622 -19.823  0.00  0.00    +0.052 C 
ATOM     27  C   UNL     1      34.685 -20.814 -19.887  0.00  0.00    +0.015 C 
ATOM     28  C   UNL     1      32.680 -19.757 -20.720  0.00  0.00    +0.015 C 
ATOM     29  C   UNL     1      35.441 -20.140 -20.847  0.00  0.00    +0.012 C 
ATOM     30  C   UNL     1      33.434 -19.083 -21.681  0.00  0.00    +0.012 C 
ATOM     31  C   UNL     1      34.815 -19.274 -21.744  0.00  0.00    +0.069 C 
BRANCH  31  33
ATOM     32  N   UNL     1      36.215 -18.023 -23.526  0.00  0.00    -0.191 NA
ATOM     33  C   UNL     1      35.588 -18.584 -22.727  0.00  0.00    +0.100 C 
ENDBRANCH  31  33
ENDBRANCH  22  26
ENDBRANCH   3  21
TORSDOF 4
ENDMDL
MODEL 7
REMARK VINA RESULT:      -8.6      4.789     13.271
REMARK  Name = 25166913
REMARK  4 active torsions:
REMARK  status: ('A' for Active; 'I' for Inactive)
REMARK    1  A    between atoms: C_2  and  C_11
REMARK    2  A    between atoms: C_3  and  N_21
REMARK    3  A    between atoms: N_22  and  C_26
REMARK    4  A    between atoms: C_31  and  C_33
REMARK                            x       y       z     vdW  Elec       q    Type
REMARK                         _______ _______ _______ _____ _____    ______ ____
ROOT
ATOM      1  N   UNL     1      34.318  -9.920 -24.924  0.00  0.00    +0.389 N 
ATOM      2  C   UNL     1      33.589 -10.219 -23.664  0.00  0.00    -0.019 C 
ATOM      3  C   UNL     1      33.089 -12.587 -24.526  0.00  0.00    +0.069 C 
ATOM      4  C   UNL     1      32.525 -11.323 -23.876  0.00  0.00    +0.002 C 
ATOM      5  C   UNL     1      33.879 -12.221 -25.778  0.00  0.00    -0.003 C 
ATOM      6  C   UNL     1      34.919 -11.135 -25.500  0.00  0.00    -0.076 C 
ATOM      7  C   UNL     1      35.379  -8.923 -24.719  0.00  0.00    -0.100 C 
ATOM      8  H   UNL     1      33.625  -9.542 -25.569  0.00  0.00    -0.080 HD
ENDROOT
BRANCH   2  11
ATOM      9  N   UNL     1      32.042  -8.232 -23.802  0.00  0.00    -0.320 N 
ATOM     10  N   UNL     1      33.017  -8.555 -21.831  0.00  0.00    -0.320 N 
ATOM     11  C   UNL     1      32.895  -9.000 -23.062  0.00  0.00    +0.124 C 
ATOM     12  C   UNL     1      31.582  -7.222 -22.995  0.00  0.00    +0.059 C 
ATOM     13  C   UNL     1      32.204  -7.445 -21.771  0.00  0.00    +0.059 C 
ATOM     14  C   UNL     1      30.700  -6.165 -23.225  0.00  0.00    +0.016 C 
ATOM     15  C   UNL     1      31.945  -6.573 -20.701  0.00  0.00    +0.016 C 
ATOM     16  C   UNL     1      30.454  -5.305 -22.149  0.00  0.00    +0.001 C 
ATOM     17  C   UNL     1      31.063  -5.505 -20.908  0.00  0.00    +0.001 C 
ATOM     18  H   UNL     1      31.800  -8.376 -24.746  0.00  0.00    +0.148 HD
ATOM     19  H   UNL     1      33.569  -8.932 -21.109  0.00  0.00    +0.148 HD
ENDBRANCH   2  11
BRANCH   3  21
ATOM     20  O   UNL     1      33.023 -15.427 -24.114  0.00  0.00    -0.252 OA
ATOM     21  N   UNL     1      33.896 -13.347 -23.600  0.00  0.00    -0.290 N 
ATOM     22  N   UNL     1      34.702 -15.187 -22.491  0.00  0.00    -0.268 N 
ATOM     23  C   UNL     1      33.801 -14.736 -23.460  0.00  0.00    +0.304 C 
ATOM     24  H   UNL     1      34.544 -12.863 -23.039  0.00  0.00    +0.151 HD
ATOM     25  H   UNL     1      35.255 -14.497 -22.060  0.00  0.00    +0.156 HD
BRANCH  22  26
ATOM     26  C   UNL     1      34.917 -16.516 -22.056  0.00  0.00    +0.052 C 
ATOM     27  C   UNL     1      36.048 -17.215 -22.478  0.00  0.00    +0.015 C 
ATOM     28  C   UNL     1      33.997 -17.127 -21.204  0.00  0.00    +0.015 C 
ATOM     29  C   UNL     1      36.259 -18.525 -22.048  0.00  0.00    +0.012 C 
ATOM     30  C   UNL     1      34.208 -18.437 -20.774  0.00  0.00    +0.012 C 
ATOM     31  C   UNL     1      35.339 -19.136 -21.197  0.00  0.00    +0.069 C 
BRANCH  31  33
ATOM     32  N   UNL     1      35.733 -21.568 -20.399  0.00  0.00    -0.191 NA
ATOM     33  C   UNL     1      35.556 -20.478 -20.756  0.00  0.00    +0.100 C 
ENDBRANCH  31  33
ENDBRANCH  22  26
ENDBRANCH   3  21
TORSDOF 4
ENDMDL
MODEL 8
REMARK VINA RESULT:      -8.5      1.575      2.250
REMARK  Name = 25166913
REMARK  4 active torsions:
REMARK  status: ('A' for Active; 'I' for Inactive)
REMARK    1  A    between atoms: C_2  and  C_11
REMARK    2  A    between atoms: C_3  and  N_21
REMARK    3  A    between atoms: N_22  and  C_26
REMARK    4  A    between atoms: C_31  and  C_33
REMARK                            x       y       z     vdW  Elec       q    Type
REMARK                         _______ _______ _______ _____ _____    ______ ____
ROOT
ATOM      1  N   UNL     1      34.233 -21.777 -19.466  0.00  0.00    +0.389 N 
ATOM      2  C   UNL     1      35.343 -21.155 -18.698  0.00  0.00    -0.019 C 
ATOM      3  C   UNL     1      36.139 -19.962 -20.829  0.00  0.00    +0.069 C 
ATOM      4  C   UNL     1      36.538 -20.803 -19.617  0.00  0.00    +0.002 C 
ATOM      5  C   UNL     1      34.959 -20.609 -21.547  0.00  0.00    -0.003 C 
ATOM      6  C   UNL     1      33.809 -20.921 -20.588  0.00  0.00    -0.076 C 
ATOM      7  C   UNL     1      33.066 -22.051 -18.617  0.00  0.00    -0.100 C 
ATOM      8  H   UNL     1      34.598 -22.658 -19.827  0.00  0.00    -0.080 HD
ENDROOT
BRANCH   2  11
ATOM      9  N   UNL     1      35.017 -22.836 -16.845  0.00  0.00    -0.320 N 
ATOM     10  N   UNL     1      37.104 -22.131 -17.147  0.00  0.00    -0.320 N 
ATOM     11  C   UNL     1      35.860 -22.034 -17.562  0.00  0.00    +0.124 C 
ATOM     12  C   UNL     1      35.767 -23.495 -15.904  0.00  0.00    +0.059 C 
ATOM     13  C   UNL     1      37.065 -23.039 -16.113  0.00  0.00    +0.059 C 
ATOM     14  C   UNL     1      35.430 -24.424 -14.918  0.00  0.00    +0.016 C 
ATOM     15  C   UNL     1      38.101 -23.527 -15.300  0.00  0.00    +0.016 C 
ATOM     16  C   UNL     1      36.474 -24.899 -14.118  0.00  0.00    +0.001 C 
ATOM     17  C   UNL     1      37.788 -24.460 -14.304  0.00  0.00    +0.001 C 
ATOM     18  H   UNL     1      34.046 -22.925 -16.979  0.00  0.00    +0.148 HD
ATOM     19  H   UNL     1      37.891 -21.658 -17.499  0.00  0.00    +0.148 HD
ENDBRANCH   2  11
BRANCH   3  21
ATOM     20  O   UNL     1      34.468 -18.112 -22.252  0.00  0.00    -0.252 OA
ATOM     21  N   UNL     1      35.844 -18.598 -20.457  0.00  0.00    -0.290 N 
ATOM     22  N   UNL     1      34.920 -16.503 -20.603  0.00  0.00    -0.268 N 
ATOM     23  C   UNL     1      35.016 -17.758 -21.210  0.00  0.00    +0.304 C 
ATOM     24  H   UNL     1      36.247 -18.241 -19.633  0.00  0.00    +0.151 HD
ATOM     25  H   UNL     1      35.425 -16.387 -19.766  0.00  0.00    +0.156 HD
BRANCH  22  26
ATOM     26  C   UNL     1      34.183 -15.379 -21.044  0.00  0.00    +0.052 C 
ATOM     27  C   UNL     1      34.539 -14.731 -22.227  0.00  0.00    +0.015 C 
ATOM     28  C   UNL     1      33.100 -14.919 -20.296  0.00  0.00    +0.015 C 
ATOM     29  C   UNL     1      33.812 -13.623 -22.662  0.00  0.00    +0.012 C 
ATOM     30  C   UNL     1      32.372 -13.811 -20.731  0.00  0.00    +0.012 C 
ATOM     31  C   UNL     1      32.729 -13.162 -21.913  0.00  0.00    +0.069 C 
BRANCH  31  33
ATOM     32  N   UNL     1      31.379 -11.106 -22.721  0.00  0.00    -0.191 NA
ATOM     33  C   UNL     1      31.984 -12.027 -22.359  0.00  0.00    +0.100 C 
ENDBRANCH  31  33
ENDBRANCH  22  26
ENDBRANCH   3  21
TORSDOF 4
ENDMDL
MODEL 9
REMARK VINA RESULT:      -8.2      9.579     16.483
REMARK  Name = 25166913
REMARK  4 active torsions:
REMARK  status: ('A' for Active; 'I' for Inactive)
REMARK    1  A    between atoms: C_2  and  C_11
REMARK    2  A    between atoms: C_3  and  N_21
REMARK    3  A    between atoms: N_22  and  C_26
REMARK    4  A    between atoms: C_31  and  C_33
REMARK                            x       y       z     vdW  Elec       q    Type
REMARK                         _______ _______ _______ _____ _____    ______ ____
ROOT
ATOM      1  N   UNL     1      31.887  -5.371 -23.799  0.00  0.00    +0.389 N 
ATOM      2  C   UNL     1      32.787  -6.270 -24.566  0.00  0.00    -0.019 C 
ATOM      3  C   UNL     1      33.407  -7.491 -22.393  0.00  0.00    +0.069 C 
ATOM      4  C   UNL     1      33.921  -6.831 -23.674  0.00  0.00    +0.002 C 
ATOM      5  C   UNL     1      32.442  -6.554 -21.675  0.00  0.00    -0.003 C 
ATOM      6  C   UNL     1      31.342  -6.044 -22.607  0.00  0.00    -0.076 C 
ATOM      7  C   UNL     1      30.767  -4.888 -24.619  0.00  0.00    -0.100 C 
ATOM      8  H   UNL     1      32.458  -4.577 -23.512  0.00  0.00    -0.080 HD
ENDROOT
BRANCH   2  11
ATOM      9  N   UNL     1      34.767  -5.701 -26.022  0.00  0.00    -0.320 N 
ATOM     10  N   UNL     1      32.816  -4.871 -26.688  0.00  0.00    -0.320 N 
ATOM     11  C   UNL     1      33.427  -5.596 -25.778  0.00  0.00    +0.124 C 
ATOM     12  C   UNL     1      35.040  -4.997 -27.168  0.00  0.00    +0.059 C 
ATOM     13  C   UNL     1      33.806  -4.489 -27.564  0.00  0.00    +0.059 C 
ATOM     14  C   UNL     1      36.224  -4.768 -27.870  0.00  0.00    +0.016 C 
ATOM     15  C   UNL     1      33.730  -3.704 -28.726  0.00  0.00    +0.016 C 
ATOM     16  C   UNL     1      36.130  -3.985 -29.025  0.00  0.00    +0.001 C 
ATOM     17  C   UNL     1      34.906  -3.461 -29.448  0.00  0.00    +0.001 C 
ATOM     18  H   UNL     1      35.421  -6.193 -25.475  0.00  0.00    +0.148 HD
ATOM     19  H   UNL     1      31.858  -4.650 -26.733  0.00  0.00    +0.148 HD
ENDBRANCH   2  11
BRANCH   3  21
ATOM     20  O   UNL     1      34.682  -9.810 -23.503  0.00  0.00    -0.252 OA
ATOM     21  N   UNL     1      32.796  -8.771 -22.662  0.00  0.00    -0.290 N 
ATOM     22  N   UNL     1      32.638 -10.953 -23.353  0.00  0.00    -0.268 N 
ATOM     23  C   UNL     1      33.490  -9.856 -23.207  0.00  0.00    +0.304 C 
ATOM     24  H   UNL     1      31.840  -8.886 -22.451  0.00  0.00    +0.151 HD
ATOM     25  H   UNL     1      31.706 -10.819 -23.064  0.00  0.00    +0.156 HD
BRANCH  22  26
ATOM     26  C   UNL     1      32.951 -12.235 -23.863  0.00  0.00    +0.052 C 
ATOM     27  C   UNL     1      32.763 -13.368 -23.071  0.00  0.00    +0.015 C 
ATOM     28  C   UNL     1      33.446 -12.366 -25.160  0.00  0.00    +0.015 C 
ATOM     29  C   UNL     1      33.072 -14.631 -23.574  0.00  0.00    +0.012 C 
ATOM     30  C   UNL     1      33.755 -13.630 -25.665  0.00  0.00    +0.012 C 
ATOM     31  C   UNL     1      33.568 -14.762 -24.872  0.00  0.00    +0.069 C 
BRANCH  31  33
ATOM     32  N   UNL     1      34.140 -17.108 -25.806  0.00  0.00    -0.191 NA
ATOM     33  C   UNL     1      33.884 -16.057 -25.388  0.00  0.00    +0.100 C 
ENDBRANCH  31  33
ENDBRANCH  22  26
ENDBRANCH   3  21
TORSDOF 4
ENDMDL
