MODEL 1
REMARK VINA RESULT:      -9.8      0.000      0.000
REMARK  Name = 445953
REMARK  8 active torsions:
REMARK  status: ('A' for Active; 'I' for Inactive)
REMARK    1  A    between atoms: N_1  and  C_22
REMARK    2  A    between atoms: N_2  and  C_13
REMARK    3  A    between atoms: C_19  and  O_25
REMARK    4  A    between atoms: O_25  and  C_26
REMARK    5  A    between atoms: C_26  and  C_27
REMARK    6  A    between atoms: C_27  and  O_28
REMARK    7  A    between atoms: C_27  and  C_30
REMARK    8  A    between atoms: C_30  and  N_31
REMARK                            x       y       z     vdW  Elec       q    Type
REMARK                         _______ _______ _______ _____ _____    ______ ____
ROOT
ATOM      1  N   UNL     1      31.756 -22.542 -17.612  0.00  0.00    -0.247 N 
ATOM      2  N   UNL     1      33.855 -24.675 -13.953  0.00  0.00    -0.287 N 
ATOM      3  N   UNL     1      32.817 -23.596 -15.805  0.00  0.00    -0.322 NA
ATOM      4  N   UNL     1      30.414 -23.498 -15.942  0.00  0.00    -0.170 NA
ATOM      5  C   UNL     1      31.657 -23.245 -16.396  0.00  0.00    +0.150 C 
ATOM      6  C   UNL     1      32.687 -24.268 -14.642  0.00  0.00    +0.198 C 
ATOM      7  C   UNL     1      31.470 -24.586 -14.073  0.00  0.00    +0.070 C 
ATOM      8  C   UNL     1      30.356 -24.172 -14.775  0.00  0.00    +0.116 C 
ATOM      9  H   UNL     1      30.884 -22.307 -18.005  0.00  0.00    +0.165 HD
ATOM     10  H   UNL     1      33.738 -25.499 -13.427  0.00  0.00    +0.155 HD
ENDROOT
BRANCH   2  13
ATOM     11 CL   UNL     1      35.169 -24.713 -11.208  0.00  0.00    -0.081 Cl
ATOM     12 CL   UNL     1      37.743 -22.442 -16.416  0.00  0.00    -0.082 Cl
ATOM     13  C   UNL     1      35.147 -24.131 -13.874  0.00  0.00    +0.062 C 
ATOM     14  C   UNL     1      35.854 -24.093 -12.668  0.00  0.00    +0.071 C 
ATOM     15  C   UNL     1      35.739 -23.618 -15.033  0.00  0.00    +0.027 C 
ATOM     16  C   UNL     1      37.022 -23.072 -14.986  0.00  0.00    +0.059 C 
ATOM     17  C   UNL     1      37.137 -23.546 -12.620  0.00  0.00    +0.014 C 
ATOM     18  C   UNL     1      37.720 -23.036 -13.779  0.00  0.00    +0.012 C 
ENDBRANCH   2  13
BRANCH   1  22
ATOM     19  C   UNL     1      35.032 -21.253 -19.887  0.00  0.00    +0.139 C 
ATOM     20  C   UNL     1      35.219 -22.200 -18.887  0.00  0.00    +0.038 C 
ATOM     21  C   UNL     1      33.768 -20.730 -20.141  0.00  0.00    +0.038 C 
ATOM     22  C   UNL     1      32.858 -22.109 -18.379  0.00  0.00    +0.058 C 
ATOM     23  C   UNL     1      34.128 -22.630 -18.129  0.00  0.00    +0.018 C 
ATOM     24  C   UNL     1      32.679 -21.159 -19.384  0.00  0.00    +0.018 C 
BRANCH  19  25
ATOM     25  O   UNL     1      36.102 -20.832 -20.631  0.00  0.00    -0.473 OA
BRANCH  25  26
ATOM     26  C   UNL     1      36.533 -19.490 -20.431  0.00  0.00    +0.232 C 
BRANCH  26  27
ATOM     27  C   UNL     1      35.701 -18.567 -21.317  0.00  0.00    +0.133 C 
BRANCH  27  28
ATOM     28  O   UNL     1      35.311 -17.423 -20.550  0.00  0.00    -0.383 OA
ATOM     29  H   UNL     1      34.648 -17.685 -19.892  0.00  0.00    +0.210 HD
ENDBRANCH  27  28
BRANCH  27  30
ATOM     30  C   UNL     1      36.454 -18.076 -22.557  0.00  0.00    -0.044 C 
BRANCH  30  31
ATOM     31  N   UNL     1      35.635 -18.150 -23.759  0.00  0.00    +0.386 N 
ATOM     32  C   UNL     1      34.925 -16.888 -23.979  0.00  0.00    -0.101 C 
ATOM     33  C   UNL     1      34.681 -19.258 -23.666  0.00  0.00    -0.101 C 
ATOM     34  H   UNL     1      36.252 -18.319 -24.553  0.00  0.00    -0.080 HD
ENDBRANCH  30  31
ENDBRANCH  27  30
ENDBRANCH  26  27
ENDBRANCH  25  26
ENDBRANCH  19  25
ENDBRANCH   1  22
TORSDOF 8
ENDMDL
MODEL 2
REMARK VINA RESULT:      -9.0      1.062      1.620
REMARK  Name = 445953
REMARK  8 active torsions:
REMARK  status: ('A' for Active; 'I' for Inactive)
REMARK    1  A    between atoms: N_1  and  C_22
REMARK    2  A    between atoms: N_2  and  C_13
REMARK    3  A    between atoms: C_19  and  O_25
REMARK    4  A    between atoms: O_25  and  C_26
REMARK    5  A    between atoms: C_26  and  C_27
REMARK    6  A    between atoms: C_27  and  O_28
REMARK    7  A    between atoms: C_27  and  C_30
REMARK    8  A    between atoms: C_30  and  N_31
REMARK                            x       y       z     vdW  Elec       q    Type
REMARK                         _______ _______ _______ _____ _____    ______ ____
ROOT
ATOM      1  N   UNL     1      31.659 -22.529 -17.346  0.00  0.00    -0.247 N 
ATOM      2  N   UNL     1      33.601 -24.980 -13.800  0.00  0.00    -0.287 N 
ATOM      3  N   UNL     1      32.643 -23.742 -15.595  0.00  0.00    -0.322 NA
ATOM      4  N   UNL     1      30.259 -23.400 -15.677  0.00  0.00    -0.170 NA
ATOM      5  C   UNL     1      31.513 -23.258 -16.150  0.00  0.00    +0.150 C 
ATOM      6  C   UNL     1      32.467 -24.436 -14.451  0.00  0.00    +0.198 C 
ATOM      7  C   UNL     1      31.235 -24.650 -13.866  0.00  0.00    +0.070 C 
ATOM      8  C   UNL     1      30.156 -24.104 -14.531  0.00  0.00    +0.116 C 
ATOM      9  H   UNL     1      30.809 -22.196 -17.712  0.00  0.00    +0.165 HD
ATOM     10  H   UNL     1      33.411 -25.805 -13.298  0.00  0.00    +0.155 HD
ENDROOT
BRANCH   2  13
ATOM     11 CL   UNL     1      35.379 -25.800 -16.129  0.00  0.00    -0.081 Cl
ATOM     12 CL   UNL     1      37.216 -22.493 -11.170  0.00  0.00    -0.082 Cl
ATOM     13  C   UNL     1      34.942 -24.570 -13.733  0.00  0.00    +0.062 C 
ATOM     14  C   UNL     1      35.857 -24.886 -14.743  0.00  0.00    +0.071 C 
ATOM     15  C   UNL     1      35.370 -23.828 -12.627  0.00  0.00    +0.027 C 
ATOM     16  C   UNL     1      36.697 -23.406 -12.533  0.00  0.00    +0.059 C 
ATOM     17  C   UNL     1      37.184 -24.465 -14.649  0.00  0.00    +0.014 C 
ATOM     18  C   UNL     1      37.603 -23.726 -13.544  0.00  0.00    +0.012 C 
ENDBRANCH   2  13
BRANCH   1  22
ATOM     19  C   UNL     1      35.006 -21.498 -19.650  0.00  0.00    +0.139 C 
ATOM     20  C   UNL     1      35.155 -22.351 -18.562  0.00  0.00    +0.038 C 
ATOM     21  C   UNL     1      33.756 -20.986 -19.982  0.00  0.00    +0.038 C 
ATOM     22  C   UNL     1      32.785 -22.183 -18.122  0.00  0.00    +0.058 C 
ATOM     23  C   UNL     1      34.041 -22.694 -17.795  0.00  0.00    +0.018 C 
ATOM     24  C   UNL     1      32.643 -21.328 -19.215  0.00  0.00    +0.018 C 
BRANCH  19  25
ATOM     25  O   UNL     1      36.098 -21.162 -20.403  0.00  0.00    -0.473 OA
BRANCH  25  26
ATOM     26  C   UNL     1      36.607 -19.841 -20.242  0.00  0.00    +0.232 C 
BRANCH  26  27
ATOM     27  C   UNL     1      35.838 -18.900 -21.166  0.00  0.00    +0.133 C 
BRANCH  27  28
ATOM     28  O   UNL     1      35.444 -17.745 -20.419  0.00  0.00    -0.383 OA
ATOM     29  H   UNL     1      36.068 -17.602 -19.690  0.00  0.00    +0.210 HD
ENDBRANCH  27  28
BRANCH  27  30
ATOM     30  C   UNL     1      36.656 -18.433 -22.372  0.00  0.00    -0.044 C 
BRANCH  30  31
ATOM     31  N   UNL     1      35.831 -18.266 -23.561  0.00  0.00    +0.386 N 
ATOM     32  C   UNL     1      35.218 -16.936 -23.581  0.00  0.00    -0.101 C 
ATOM     33  C   UNL     1      34.797 -19.302 -23.622  0.00  0.00    -0.101 C 
ATOM     34  H   UNL     1      36.432 -18.359 -24.379  0.00  0.00    -0.080 HD
ENDBRANCH  30  31
ENDBRANCH  27  30
ENDBRANCH  26  27
ENDBRANCH  25  26
ENDBRANCH  19  25
ENDBRANCH   1  22
TORSDOF 8
ENDMDL
MODEL 3
REMARK VINA RESULT:      -8.8     11.223     15.171
REMARK  Name = 445953
REMARK  8 active torsions:
REMARK  status: ('A' for Active; 'I' for Inactive)
REMARK    1  A    between atoms: N_1  and  C_22
REMARK    2  A    between atoms: N_2  and  C_13
REMARK    3  A    between atoms: C_19  and  O_25
REMARK    4  A    between atoms: O_25  and  C_26
REMARK    5  A    between atoms: C_26  and  C_27
REMARK    6  A    between atoms: C_27  and  O_28
REMARK    7  A    between atoms: C_27  and  C_30
REMARK    8  A    between atoms: C_30  and  N_31
REMARK                            x       y       z     vdW  Elec       q    Type
REMARK                         _______ _______ _______ _____ _____    ______ ____
ROOT
ATOM      1  N   UNL     1      32.552  -7.641 -20.957  0.00  0.00    -0.247 N 
ATOM      2  N   UNL     1      31.690 -12.255 -21.520  0.00  0.00    -0.287 N 
ATOM      3  N   UNL     1      32.132  -9.929 -21.257  0.00  0.00    -0.322 NA
ATOM      4  N   UNL     1      31.685  -8.856 -19.147  0.00  0.00    -0.170 NA
ATOM      5  C   UNL     1      32.102  -8.866 -20.429  0.00  0.00    +0.150 C 
ATOM      6  C   UNL     1      31.693 -11.087 -20.720  0.00  0.00    +0.198 C 
ATOM      7  C   UNL     1      31.242 -11.206 -19.421  0.00  0.00    +0.070 C 
ATOM      8  C   UNL     1      31.260 -10.046 -18.674  0.00  0.00    +0.116 C 
ATOM      9  H   UNL     1      32.513  -6.896 -20.315  0.00  0.00    +0.165 HD
ATOM     10  H   UNL     1      30.982 -12.896 -21.284  0.00  0.00    +0.155 HD
ENDROOT
BRANCH   2  13
ATOM     11 CL   UNL     1      32.366 -15.221 -21.612  0.00  0.00    -0.081 Cl
ATOM     12 CL   UNL     1      34.283 -10.948 -25.733  0.00  0.00    -0.082 Cl
ATOM     13  C   UNL     1      32.503 -12.675 -22.587  0.00  0.00    +0.062 C 
ATOM     14  C   UNL     1      32.881 -14.014 -22.737  0.00  0.00    +0.071 C 
ATOM     15  C   UNL     1      32.941 -11.729 -23.519  0.00  0.00    +0.027 C 
ATOM     16  C   UNL     1      33.748 -12.118 -24.589  0.00  0.00    +0.059 C 
ATOM     17  C   UNL     1      33.688 -14.402 -23.806  0.00  0.00    +0.014 C 
ATOM     18  C   UNL     1      34.122 -13.453 -24.732  0.00  0.00    +0.012 C 
ENDBRANCH   2  13
BRANCH   1  22
ATOM     19  C   UNL     1      34.029  -6.546 -24.724  0.00  0.00    +0.139 C 
ATOM     20  C   UNL     1      32.790  -6.073 -24.306  0.00  0.00    +0.038 C 
ATOM     21  C   UNL     1      34.783  -7.379 -23.904  0.00  0.00    +0.038 C 
ATOM     22  C   UNL     1      33.050  -7.272 -22.225  0.00  0.00    +0.058 C 
ATOM     23  C   UNL     1      32.298  -6.437 -23.052  0.00  0.00    +0.018 C 
ATOM     24  C   UNL     1      34.292  -7.743 -22.651  0.00  0.00    +0.018 C 
BRANCH  19  25
ATOM     25  O   UNL     1      34.512  -6.188 -25.954  0.00  0.00    -0.473 OA
BRANCH  25  26
ATOM     26  C   UNL     1      33.742  -5.247 -26.696  0.00  0.00    +0.232 C 
BRANCH  26  27
ATOM     27  C   UNL     1      34.688  -4.258 -27.371  0.00  0.00    +0.133 C 
BRANCH  27  28
ATOM     28  O   UNL     1      35.920  -4.926 -27.662  0.00  0.00    -0.383 OA
ATOM     29  H   UNL     1      36.456  -4.374 -28.252  0.00  0.00    +0.210 HD
ENDBRANCH  27  28
BRANCH  27  30
ATOM     30  C   UNL     1      34.135  -3.685 -28.679  0.00  0.00    -0.044 C 
BRANCH  30  31
ATOM     31  N   UNL     1      32.680  -3.726 -28.721  0.00  0.00    +0.386 N 
ATOM     32  C   UNL     1      32.216  -4.271 -29.999  0.00  0.00    -0.101 C 
ATOM     33  C   UNL     1      32.118  -2.390 -28.507  0.00  0.00    -0.101 C 
ATOM     34  H   UNL     1      32.358  -4.338 -27.971  0.00  0.00    -0.080 HD
ENDBRANCH  30  31
ENDBRANCH  27  30
ENDBRANCH  26  27
ENDBRANCH  25  26
ENDBRANCH  19  25
ENDBRANCH   1  22
TORSDOF 8
ENDMDL
MODEL 4
REMARK VINA RESULT:      -8.8      5.029     11.127
REMARK  Name = 445953
REMARK  8 active torsions:
REMARK  status: ('A' for Active; 'I' for Inactive)
REMARK    1  A    between atoms: N_1  and  C_22
REMARK    2  A    between atoms: N_2  and  C_13
REMARK    3  A    between atoms: C_19  and  O_25
REMARK    4  A    between atoms: O_25  and  C_26
REMARK    5  A    between atoms: C_26  and  C_27
REMARK    6  A    between atoms: C_27  and  O_28
REMARK    7  A    between atoms: C_27  and  C_30
REMARK    8  A    between atoms: C_30  and  N_31
REMARK                            x       y       z     vdW  Elec       q    Type
REMARK                         _______ _______ _______ _____ _____    ______ ____
ROOT
ATOM      1  N   UNL     1      34.504 -16.458 -25.400  0.00  0.00    -0.247 N 
ATOM      2  N   UNL     1      31.882 -12.759 -24.061  0.00  0.00    -0.287 N 
ATOM      3  N   UNL     1      33.201 -14.631 -24.716  0.00  0.00    -0.322 NA
ATOM      4  N   UNL     1      34.092 -14.746 -26.951  0.00  0.00    -0.170 NA
ATOM      5  C   UNL     1      33.905 -15.221 -25.703  0.00  0.00    +0.150 C 
ATOM      6  C   UNL     1      32.639 -13.448 -25.040  0.00  0.00    +0.198 C 
ATOM      7  C   UNL     1      32.759 -12.858 -26.282  0.00  0.00    +0.070 C 
ATOM      8  C   UNL     1      33.505 -13.560 -27.207  0.00  0.00    +0.116 C 
ATOM      9  H   UNL     1      35.007 -16.848 -26.151  0.00  0.00    +0.165 HD
ATOM     10  H   UNL     1      31.158 -12.208 -24.436  0.00  0.00    +0.155 HD
ENDROOT
BRANCH   2  13
ATOM     11 CL   UNL     1      31.346 -10.055 -22.773  0.00  0.00    -0.081 Cl
ATOM     12 CL   UNL     1      32.760 -15.300 -19.708  0.00  0.00    -0.082 Cl
ATOM     13  C   UNL     1      31.966 -12.710 -22.660  0.00  0.00    +0.062 C 
ATOM     14  C   UNL     1      31.739 -11.524 -21.953  0.00  0.00    +0.071 C 
ATOM     15  C   UNL     1      32.281 -13.878 -21.958  0.00  0.00    +0.027 C 
ATOM     16  C   UNL     1      32.370 -13.859 -20.565  0.00  0.00    +0.059 C 
ATOM     17  C   UNL     1      31.828 -11.506 -20.561  0.00  0.00    +0.014 C 
ATOM     18  C   UNL     1      32.144 -12.674 -19.868  0.00  0.00    +0.012 C 
ENDBRANCH   2  13
BRANCH   1  22
ATOM     19  C   UNL     1      34.568 -18.806 -21.928  0.00  0.00    +0.139 C 
ATOM     20  C   UNL     1      34.529 -19.421 -23.175  0.00  0.00    +0.038 C 
ATOM     21  C   UNL     1      34.587 -17.420 -21.823  0.00  0.00    +0.038 C 
ATOM     22  C   UNL     1      34.526 -17.248 -24.231  0.00  0.00    +0.058 C 
ATOM     23  C   UNL     1      34.508 -18.640 -24.331  0.00  0.00    +0.018 C 
ATOM     24  C   UNL     1      34.566 -16.638 -22.978  0.00  0.00    +0.018 C 
BRANCH  19  25
ATOM     25  O   UNL     1      34.590 -19.573 -20.794  0.00  0.00    -0.473 OA
BRANCH  25  26
ATOM     26  C   UNL     1      33.442 -20.379 -20.543  0.00  0.00    +0.232 C 
BRANCH  26  27
ATOM     27  C   UNL     1      33.721 -21.272 -19.337  0.00  0.00    +0.133 C 
BRANCH  27  28
ATOM     28  O   UNL     1      32.692 -22.263 -19.252  0.00  0.00    -0.383 OA
ATOM     29  H   UNL     1      32.368 -22.316 -18.339  0.00  0.00    +0.210 HD
ENDBRANCH  27  28
BRANCH  27  30
ATOM     30  C   UNL     1      35.070 -21.991 -19.414  0.00  0.00    -0.044 C 
BRANCH  30  31
ATOM     31  N   UNL     1      36.155 -21.179 -18.879  0.00  0.00    +0.386 N 
ATOM     32  C   UNL     1      37.188 -20.964 -19.894  0.00  0.00    -0.101 C 
ATOM     33  C   UNL     1      36.735 -21.810 -17.691  0.00  0.00    -0.101 C 
ATOM     34  H   UNL     1      35.769 -20.274 -18.610  0.00  0.00    -0.080 HD
ENDBRANCH  30  31
ENDBRANCH  27  30
ENDBRANCH  26  27
ENDBRANCH  25  26
ENDBRANCH  19  25
ENDBRANCH   1  22
TORSDOF 8
ENDMDL
MODEL 5
REMARK VINA RESULT:      -8.7      2.163      4.136
REMARK  Name = 445953
REMARK  8 active torsions:
REMARK  status: ('A' for Active; 'I' for Inactive)
REMARK    1  A    between atoms: N_1  and  C_22
REMARK    2  A    between atoms: N_2  and  C_13
REMARK    3  A    between atoms: C_19  and  O_25
REMARK    4  A    between atoms: O_25  and  C_26
REMARK    5  A    between atoms: C_26  and  C_27
REMARK    6  A    between atoms: C_27  and  O_28
REMARK    7  A    between atoms: C_27  and  C_30
REMARK    8  A    between atoms: C_30  and  N_31
REMARK                            x       y       z     vdW  Elec       q    Type
REMARK                         _______ _______ _______ _____ _____    ______ ____
ROOT
ATOM      1  N   UNL     1      37.241 -22.476 -16.881  0.00  0.00    -0.247 N 
ATOM      2  N   UNL     1      33.784 -23.488 -13.820  0.00  0.00    -0.287 N 
ATOM      3  N   UNL     1      35.511 -22.970 -15.377  0.00  0.00    -0.322 NA
ATOM      4  N   UNL     1      37.806 -23.447 -14.822  0.00  0.00    -0.170 NA
ATOM      5  C   UNL     1      36.834 -22.989 -15.635  0.00  0.00    +0.150 C 
ATOM      6  C   UNL     1      35.155 -23.469 -14.174  0.00  0.00    +0.198 C 
ATOM      7  C   UNL     1      36.055 -23.968 -13.255  0.00  0.00    +0.070 C 
ATOM      8  C   UNL     1      37.381 -23.931 -13.637  0.00  0.00    +0.116 C 
ATOM      9  H   UNL     1      38.214 -22.511 -17.024  0.00  0.00    +0.165 HD
ATOM     10  H   UNL     1      33.623 -23.406 -12.853  0.00  0.00    +0.155 HD
ENDROOT
BRANCH   2  13
ATOM     11 CL   UNL     1      31.654 -25.375 -12.741  0.00  0.00    -0.081 Cl
ATOM     12 CL   UNL     1      31.201 -22.037 -17.991  0.00  0.00    -0.082 Cl
ATOM     13  C   UNL     1      32.610 -23.602 -14.583  0.00  0.00    +0.062 C 
ATOM     14  C   UNL     1      31.559 -24.437 -14.190  0.00  0.00    +0.071 C 
ATOM     15  C   UNL     1      32.493 -22.860 -15.763  0.00  0.00    +0.027 C 
ATOM     16  C   UNL     1      31.338 -22.953 -16.540  0.00  0.00    +0.059 C 
ATOM     17  C   UNL     1      30.404 -24.530 -14.967  0.00  0.00    +0.014 C 
ATOM     18  C   UNL     1      30.295 -23.788 -16.143  0.00  0.00    +0.012 C 
ENDBRANCH   2  13
BRANCH   1  22
ATOM     19  C   UNL     1      35.123 -20.833 -20.104  0.00  0.00    +0.139 C 
ATOM     20  C   UNL     1      34.494 -21.738 -19.256  0.00  0.00    +0.038 C 
ATOM     21  C   UNL     1      36.448 -20.467 -19.892  0.00  0.00    +0.038 C 
ATOM     22  C   UNL     1      36.528 -21.922 -17.966  0.00  0.00    +0.058 C 
ATOM     23  C   UNL     1      35.199 -22.285 -18.183  0.00  0.00    +0.018 C 
ATOM     24  C   UNL     1      37.153 -21.014 -18.820  0.00  0.00    +0.018 C 
BRANCH  19  25
ATOM     25  O   UNL     1      34.431 -20.295 -21.156  0.00  0.00    -0.473 OA
BRANCH  25  26
ATOM     26  C   UNL     1      33.756 -19.064 -20.917  0.00  0.00    +0.232 C 
BRANCH  26  27
ATOM     27  C   UNL     1      34.513 -17.941 -21.622  0.00  0.00    +0.133 C 
BRANCH  27  28
ATOM     28  O   UNL     1      35.341 -17.275 -20.663  0.00  0.00    -0.383 OA
ATOM     29  H   UNL     1      34.836 -17.122 -19.850  0.00  0.00    +0.210 HD
ENDBRANCH  27  28
BRANCH  27  30
ATOM     30  C   UNL     1      35.406 -18.435 -22.763  0.00  0.00    -0.044 C 
BRANCH  30  31
ATOM     31  N   UNL     1      35.279 -17.607 -23.954  0.00  0.00    +0.386 N 
ATOM     32  C   UNL     1      34.709 -16.301 -23.617  0.00  0.00    -0.101 C 
ATOM     33  C   UNL     1      34.452 -18.276 -24.962  0.00  0.00    -0.101 C 
ATOM     34  H   UNL     1      36.212 -17.465 -24.342  0.00  0.00    -0.080 HD
ENDBRANCH  30  31
ENDBRANCH  27  30
ENDBRANCH  26  27
ENDBRANCH  25  26
ENDBRANCH  19  25
ENDBRANCH   1  22
TORSDOF 8
ENDMDL
MODEL 6
REMARK VINA RESULT:      -8.7     10.192     14.495
REMARK  Name = 445953
REMARK  8 active torsions:
REMARK  status: ('A' for Active; 'I' for Inactive)
REMARK    1  A    between atoms: N_1  and  C_22
REMARK    2  A    between atoms: N_2  and  C_13
REMARK    3  A    between atoms: C_19  and  O_25
REMARK    4  A    between atoms: O_25  and  C_26
REMARK    5  A    between atoms: C_26  and  C_27
REMARK    6  A    between atoms: C_27  and  O_28
REMARK    7  A    between atoms: C_27  and  C_30
REMARK    8  A    between atoms: C_30  and  N_31
REMARK                            x       y       z     vdW  Elec       q    Type
REMARK                         _______ _______ _______ _____ _____    ______ ____
ROOT
ATOM      1  N   UNL     1      31.937 -11.266 -20.388  0.00  0.00    -0.247 N 
ATOM      2  N   UNL     1      32.791 -14.336 -23.879  0.00  0.00    -0.287 N 
ATOM      3  N   UNL     1      32.360 -12.773 -22.135  0.00  0.00    -0.322 NA
ATOM      4  N   UNL     1      32.276 -13.523 -19.847  0.00  0.00    -0.170 NA
ATOM      5  C   UNL     1      32.204 -12.582 -20.810  0.00  0.00    +0.150 C 
ATOM      6  C   UNL     1      32.613 -14.046 -22.505  0.00  0.00    +0.198 C 
ATOM      7  C   UNL     1      32.712 -15.096 -21.615  0.00  0.00    +0.070 C 
ATOM      8  C   UNL     1      32.533 -14.773 -20.286  0.00  0.00    +0.116 C 
ATOM      9  H   UNL     1      31.832 -11.176 -19.414  0.00  0.00    +0.165 HD
ATOM     10  H   UNL     1      32.512 -15.246 -24.132  0.00  0.00    +0.155 HD
ENDROOT
BRANCH   2  13
ATOM     11 CL   UNL     1      32.444 -15.536 -26.655  0.00  0.00    -0.081 Cl
ATOM     12 CL   UNL     1      35.152 -10.059 -25.397  0.00  0.00    -0.082 Cl
ATOM     13  C   UNL     1      33.289 -13.578 -24.952  0.00  0.00    +0.062 C 
ATOM     14  C   UNL     1      33.189 -14.023 -26.274  0.00  0.00    +0.071 C 
ATOM     15  C   UNL     1      33.899 -12.347 -24.686  0.00  0.00    +0.027 C 
ATOM     16  C   UNL     1      34.403 -11.572 -25.732  0.00  0.00    +0.059 C 
ATOM     17  C   UNL     1      33.692 -13.248 -27.319  0.00  0.00    +0.014 C 
ATOM     18  C   UNL     1      34.299 -12.023 -27.047  0.00  0.00    +0.012 C 
ENDBRANCH   2  13
BRANCH   1  22
ATOM     19  C   UNL     1      31.507  -7.652 -22.469  0.00  0.00    +0.139 C 
ATOM     20  C   UNL     1      31.205  -8.852 -23.103  0.00  0.00    +0.038 C 
ATOM     21  C   UNL     1      31.949  -7.640 -21.150  0.00  0.00    +0.038 C 
ATOM     22  C   UNL     1      31.792 -10.049 -21.088  0.00  0.00    +0.058 C 
ATOM     23  C   UNL     1      31.348 -10.055 -22.411  0.00  0.00    +0.018 C 
ATOM     24  C   UNL     1      32.093  -8.842 -20.458  0.00  0.00    +0.018 C 
BRANCH  19  25
ATOM     25  O   UNL     1      31.366  -6.472 -23.148  0.00  0.00    -0.473 OA
BRANCH  25  26
ATOM     26  C   UNL     1      31.756  -5.287 -22.462  0.00  0.00    +0.232 C 
BRANCH  26  27
ATOM     27  C   UNL     1      31.050  -4.092 -23.099  0.00  0.00    +0.133 C 
BRANCH  27  28
ATOM     28  O   UNL     1      31.771  -2.902 -22.765  0.00  0.00    -0.383 OA
ATOM     29  H   UNL     1      32.615  -2.890 -23.242  0.00  0.00    +0.210 HD
ENDBRANCH  27  28
BRANCH  27  30
ATOM     30  C   UNL     1      30.961  -4.184 -24.624  0.00  0.00    -0.044 C 
BRANCH  30  31
ATOM     31  N   UNL     1      32.194  -3.755 -25.271  0.00  0.00    +0.386 N 
ATOM     32  C   UNL     1      31.934  -2.649 -26.195  0.00  0.00    -0.101 C 
ATOM     33  C   UNL     1      32.821  -4.873 -25.981  0.00  0.00    -0.101 C 
ATOM     34  H   UNL     1      32.834  -3.430 -24.547  0.00  0.00    -0.080 HD
ENDBRANCH  30  31
ENDBRANCH  27  30
ENDBRANCH  26  27
ENDBRANCH  25  26
ENDBRANCH  19  25
ENDBRANCH   1  22
TORSDOF 8
ENDMDL
MODEL 7
REMARK VINA RESULT:      -8.5      6.741     12.317
REMARK  Name = 445953
REMARK  8 active torsions:
REMARK  status: ('A' for Active; 'I' for Inactive)
REMARK    1  A    between atoms: N_1  and  C_22
REMARK    2  A    between atoms: N_2  and  C_13
REMARK    3  A    between atoms: C_19  and  O_25
REMARK    4  A    between atoms: O_25  and  C_26
REMARK    5  A    between atoms: C_26  and  C_27
REMARK    6  A    between atoms: C_27  and  O_28
REMARK    7  A    between atoms: C_27  and  C_30
REMARK    8  A    between atoms: C_30  and  N_31
REMARK                            x       y       z     vdW  Elec       q    Type
REMARK                         _______ _______ _______ _____ _____    ______ ____
ROOT
ATOM      1  N   UNL     1      32.046 -13.637 -20.646  0.00  0.00    -0.247 N 
ATOM      2  N   UNL     1      33.160  -9.569 -22.780  0.00  0.00    -0.287 N 
ATOM      3  N   UNL     1      32.615 -11.629 -21.716  0.00  0.00    -0.322 NA
ATOM      4  N   UNL     1      30.793 -11.719 -20.142  0.00  0.00    -0.170 NA
ATOM      5  C   UNL     1      31.806 -12.264 -20.844  0.00  0.00    +0.150 C 
ATOM      6  C   UNL     1      32.358 -10.314 -21.882  0.00  0.00    +0.198 C 
ATOM      7  C   UNL     1      31.350  -9.642 -21.222  0.00  0.00    +0.070 C 
ATOM      8  C   UNL     1      30.592 -10.402 -20.356  0.00  0.00    +0.116 C 
ATOM      9  H   UNL     1      31.430 -14.057 -20.002  0.00  0.00    +0.165 HD
ATOM     10  H   UNL     1      33.256  -8.621 -22.533  0.00  0.00    +0.155 HD
ENDROOT
BRANCH   2  13
ATOM     11 CL   UNL     1      35.295  -7.621 -23.733  0.00  0.00    -0.081 Cl
ATOM     12 CL   UNL     1      33.757 -12.964 -26.561  0.00  0.00    -0.082 Cl
ATOM     13  C   UNL     1      33.843  -9.921 -23.956  0.00  0.00    +0.062 C 
ATOM     14  C   UNL     1      34.846  -9.107 -24.493  0.00  0.00    +0.071 C 
ATOM     15  C   UNL     1      33.510 -11.116 -24.602  0.00  0.00    +0.027 C 
ATOM     16  C   UNL     1      34.172 -11.492 -25.772  0.00  0.00    +0.059 C 
ATOM     17  C   UNL     1      35.508  -9.482 -25.662  0.00  0.00    +0.014 C 
ATOM     18  C   UNL     1      35.170 -10.675 -26.301  0.00  0.00    +0.012 C 
ENDBRANCH   2  13
BRANCH   1  22
ATOM     19  C   UNL     1      34.862 -16.289 -22.260  0.00  0.00    +0.139 C 
ATOM     20  C   UNL     1      34.829 -16.071 -20.887  0.00  0.00    +0.038 C 
ATOM     21  C   UNL     1      33.969 -15.636 -23.103  0.00  0.00    +0.038 C 
ATOM     22  C   UNL     1      32.993 -14.530 -21.190  0.00  0.00    +0.058 C 
ATOM     23  C   UNL     1      33.892 -15.189 -20.350  0.00  0.00    +0.018 C 
ATOM     24  C   UNL     1      33.032 -14.753 -22.566  0.00  0.00    +0.018 C 
BRANCH  19  25
ATOM     25  O   UNL     1      35.782 -17.155 -22.788  0.00  0.00    -0.473 OA
BRANCH  25  26
ATOM     26  C   UNL     1      36.112 -18.296 -22.002  0.00  0.00    +0.232 C 
BRANCH  26  27
ATOM     27  C   UNL     1      34.936 -19.269 -22.026  0.00  0.00    +0.133 C 
BRANCH  27  28
ATOM     28  O   UNL     1      34.817 -19.812 -23.345  0.00  0.00    -0.383 OA
ATOM     29  H   UNL     1      34.272 -20.614 -23.317  0.00  0.00    +0.210 HD
ENDBRANCH  27  28
BRANCH  27  30
ATOM     30  C   UNL     1      35.091 -20.433 -21.044  0.00  0.00    -0.044 C 
BRANCH  30  31
ATOM     31  N   UNL     1      34.040 -20.441 -20.035  0.00  0.00    +0.386 N 
ATOM     32  C   UNL     1      33.873 -21.784 -19.474  0.00  0.00    -0.101 C 
ATOM     33  C   UNL     1      32.775 -19.969 -20.604  0.00  0.00    -0.101 C 
ATOM     34  H   UNL     1      34.315 -19.807 -19.285  0.00  0.00    -0.080 HD
ENDBRANCH  30  31
ENDBRANCH  27  30
ENDBRANCH  26  27
ENDBRANCH  25  26
ENDBRANCH  19  25
ENDBRANCH   1  22
TORSDOF 8
ENDMDL
MODEL 8
REMARK VINA RESULT:      -8.4      2.284      4.325
REMARK  Name = 445953
REMARK  8 active torsions:
REMARK  status: ('A' for Active; 'I' for Inactive)
REMARK    1  A    between atoms: N_1  and  C_22
REMARK    2  A    between atoms: N_2  and  C_13
REMARK    3  A    between atoms: C_19  and  O_25
REMARK    4  A    between atoms: O_25  and  C_26
REMARK    5  A    between atoms: C_26  and  C_27
REMARK    6  A    between atoms: C_27  and  O_28
REMARK    7  A    between atoms: C_27  and  C_30
REMARK    8  A    between atoms: C_30  and  N_31
REMARK                            x       y       z     vdW  Elec       q    Type
REMARK                         _______ _______ _______ _____ _____    ______ ____
ROOT
ATOM      1  N   UNL     1      37.440 -23.179 -15.047  0.00  0.00    -0.247 N 
ATOM      2  N   UNL     1      33.154 -23.679 -13.117  0.00  0.00    -0.287 N 
ATOM      3  N   UNL     1      35.305 -23.415 -14.106  0.00  0.00    -0.322 NA
ATOM      4  N   UNL     1      37.237 -24.392 -13.049  0.00  0.00    -0.170 NA
ATOM      5  C   UNL     1      36.623 -23.686 -14.019  0.00  0.00    +0.150 C 
ATOM      6  C   UNL     1      34.550 -23.915 -13.105  0.00  0.00    +0.198 C 
ATOM      7  C   UNL     1      35.060 -24.654 -12.057  0.00  0.00    +0.070 C 
ATOM      8  C   UNL     1      36.424 -24.863 -12.081  0.00  0.00    +0.116 C 
ATOM      9  H   UNL     1      38.393 -23.403 -14.941  0.00  0.00    +0.165 HD
ATOM     10  H   UNL     1      32.751 -23.636 -12.220  0.00  0.00    +0.155 HD
ENDROOT
BRANCH   2  13
ATOM     11 CL   UNL     1      30.227 -24.159 -12.435  0.00  0.00    -0.081 Cl
ATOM     12 CL   UNL     1      32.400 -22.443 -18.024  0.00  0.00    -0.082 Cl
ATOM     13  C   UNL     1      32.233 -23.494 -14.161  0.00  0.00    +0.062 C 
ATOM     14  C   UNL     1      30.860 -23.684 -13.971  0.00  0.00    +0.071 C 
ATOM     15  C   UNL     1      32.704 -23.109 -15.421  0.00  0.00    +0.027 C 
ATOM     16  C   UNL     1      31.813 -22.917 -16.477  0.00  0.00    +0.059 C 
ATOM     17  C   UNL     1      29.969 -23.492 -15.027  0.00  0.00    +0.014 C 
ATOM     18  C   UNL     1      30.446 -23.109 -16.280  0.00  0.00    +0.012 C 
ENDBRANCH   2  13
BRANCH   1  22
ATOM     19  C   UNL     1      36.616 -20.907 -18.471  0.00  0.00    +0.139 C 
ATOM     20  C   UNL     1      35.866 -22.047 -18.205  0.00  0.00    +0.038 C 
ATOM     21  C   UNL     1      37.636 -20.512 -17.612  0.00  0.00    +0.038 C 
ATOM     22  C   UNL     1      37.163 -22.413 -16.199  0.00  0.00    +0.058 C 
ATOM     23  C   UNL     1      36.140 -22.803 -17.064  0.00  0.00    +0.018 C 
ATOM     24  C   UNL     1      37.911 -21.269 -16.473  0.00  0.00    +0.018 C 
BRANCH  19  25
ATOM     25  O   UNL     1      36.347 -20.164 -19.590  0.00  0.00    -0.473 OA
BRANCH  25  26
ATOM     26  C   UNL     1      35.482 -20.752 -20.557  0.00  0.00    +0.232 C 
BRANCH  26  27
ATOM     27  C   UNL     1      34.837 -19.641 -21.382  0.00  0.00    +0.133 C 
BRANCH  27  28
ATOM     28  O   UNL     1      33.598 -19.275 -20.768  0.00  0.00    -0.383 OA
ATOM     29  H   UNL     1      33.212 -20.049 -20.329  0.00  0.00    +0.210 HD
ENDBRANCH  27  28
BRANCH  27  30
ATOM     30  C   UNL     1      35.705 -18.385 -21.492  0.00  0.00    -0.044 C 
BRANCH  30  31
ATOM     31  N   UNL     1      35.820 -17.918 -22.867  0.00  0.00    +0.386 N 
ATOM     32  C   UNL     1      35.262 -16.570 -23.002  0.00  0.00    -0.101 C 
ATOM     33  C   UNL     1      35.145 -18.840 -23.784  0.00  0.00    -0.101 C 
ATOM     34  H   UNL     1      36.810 -17.886 -23.109  0.00  0.00    -0.080 HD
ENDBRANCH  30  31
ENDBRANCH  27  30
ENDBRANCH  26  27
ENDBRANCH  25  26
ENDBRANCH  19  25
ENDBRANCH   1  22
TORSDOF 8
ENDMDL
MODEL 9
REMARK VINA RESULT:      -8.0      7.714     13.359
REMARK  Name = 445953
REMARK  8 active torsions:
REMARK  status: ('A' for Active; 'I' for Inactive)
REMARK    1  A    between atoms: N_1  and  C_22
REMARK    2  A    between atoms: N_2  and  C_13
REMARK    3  A    between atoms: C_19  and  O_25
REMARK    4  A    between atoms: O_25  and  C_26
REMARK    5  A    between atoms: C_26  and  C_27
REMARK    6  A    between atoms: C_27  and  O_28
REMARK    7  A    between atoms: C_27  and  C_30
REMARK    8  A    between atoms: C_30  and  N_31
REMARK                            x       y       z     vdW  Elec       q    Type
REMARK                         _______ _______ _______ _____ _____    ______ ____
ROOT
ATOM      1  N   UNL     1      34.590 -10.344 -25.597  0.00  0.00    -0.247 N 
ATOM      2  N   UNL     1      32.282  -8.405 -21.955  0.00  0.00    -0.287 N 
ATOM      3  N   UNL     1      33.436  -9.401 -23.784  0.00  0.00    -0.322 NA
ATOM      4  N   UNL     1      34.827  -8.043 -25.207  0.00  0.00    -0.170 NA
ATOM      5  C   UNL     1      34.270  -9.209 -24.827  0.00  0.00    +0.150 C 
ATOM      6  C   UNL     1      33.150  -8.294 -23.068  0.00  0.00    +0.198 C 
ATOM      7  C   UNL     1      33.658  -7.043 -23.356  0.00  0.00    +0.070 C 
ATOM      8  C   UNL     1      34.499  -6.977 -24.448  0.00  0.00    +0.116 C 
ATOM      9  H   UNL     1      35.201 -10.155 -26.345  0.00  0.00    +0.165 HD
ATOM     10  H   UNL     1      31.761  -7.590 -21.776  0.00  0.00    +0.155 HD
ENDROOT
BRANCH   2  13
ATOM     11 CL   UNL     1      31.755  -7.604 -19.067  0.00  0.00    -0.081 Cl
ATOM     12 CL   UNL     1      31.765 -13.446 -21.253  0.00  0.00    -0.082 Cl
ATOM     13  C   UNL     1      32.023  -9.453 -21.056  0.00  0.00    +0.062 C 
ATOM     14  C   UNL     1      31.765  -9.211 -19.703  0.00  0.00    +0.071 C 
ATOM     15  C   UNL     1      32.021 -10.768 -21.531  0.00  0.00    +0.027 C 
ATOM     16  C   UNL     1      31.765 -11.830 -20.661  0.00  0.00    +0.059 C 
ATOM     17  C   UNL     1      31.510 -10.272 -18.833  0.00  0.00    +0.014 C 
ATOM     18  C   UNL     1      31.511 -11.581 -19.314  0.00  0.00    +0.012 C 
ENDBRANCH   2  13
BRANCH   1  22
ATOM     19  C   UNL     1      33.456 -14.371 -25.326  0.00  0.00    +0.139 C 
ATOM     20  C   UNL     1      33.812 -13.677 -24.175  0.00  0.00    +0.038 C 
ATOM     21  C   UNL     1      33.471 -13.741 -26.567  0.00  0.00    +0.038 C 
ATOM     22  C   UNL     1      34.207 -11.699 -25.506  0.00  0.00    +0.058 C 
ATOM     23  C   UNL     1      34.189 -12.336 -24.265  0.00  0.00    +0.018 C 
ATOM     24  C   UNL     1      33.849 -12.401 -26.656  0.00  0.00    +0.018 C 
BRANCH  19  25
ATOM     25  O   UNL     1      33.085 -15.686 -25.238  0.00  0.00    -0.473 OA
BRANCH  25  26
ATOM     26  C   UNL     1      34.100 -16.656 -25.478  0.00  0.00    +0.232 C 
BRANCH  26  27
ATOM     27  C   UNL     1      34.219 -17.559 -24.253  0.00  0.00    +0.133 C 
BRANCH  27  28
ATOM     28  O   UNL     1      34.633 -18.860 -24.681  0.00  0.00    -0.383 OA
ATOM     29  H   UNL     1      35.137 -18.784 -25.507  0.00  0.00    +0.210 HD
ENDBRANCH  27  28
BRANCH  27  30
ATOM     30  C   UNL     1      35.230 -17.051 -23.222  0.00  0.00    -0.044 C 
BRANCH  30  31
ATOM     31  N   UNL     1      34.808 -17.336 -21.857  0.00  0.00    +0.386 N 
ATOM     32  C   UNL     1      34.711 -16.099 -21.078  0.00  0.00    -0.101 C 
ATOM     33  C   UNL     1      35.737 -18.268 -21.213  0.00  0.00    -0.101 C 
ATOM     34  H   UNL     1      33.886 -17.770 -21.894  0.00  0.00    -0.080 HD
ENDBRANCH  30  31
ENDBRANCH  27  30
ENDBRANCH  26  27
ENDBRANCH  25  26
ENDBRANCH  19  25
ENDBRANCH   1  22
TORSDOF 8
ENDMDL
