MODEL 1
REMARK VINA RESULT:     -10.4      0.000      0.000
REMARK  Name = 25190761
REMARK  7 active torsions:
REMARK  status: ('A' for Active; 'I' for Inactive)
REMARK    1  A    between atoms: N_2  and  CA_17
REMARK    2  A    between atoms: N_6  and  C_23
REMARK    3  A    between atoms: C_7  and  C_14
REMARK    4  A    between atoms: CA_17  and  C_18
REMARK    5  A    between atoms: CA_17  and  C_20
REMARK    6  A    between atoms: C_20  and  O_21
REMARK    7  A    between atoms: C_23  and  C_24
REMARK                            x       y       z     vdW  Elec       q    Type
REMARK                         _______ _______ _______ _____ _____    ______ ____
ROOT
ATOM      1  N   UNL     1      33.261 -23.096 -16.843  0.00  0.00    -0.124 N 
ATOM      2  N   UNL     1      36.630 -24.207 -14.988  0.00  0.00    -0.258 N 
ATOM      3  N   UNL     1      34.311 -24.137 -15.014  0.00  0.00    -0.315 NA
ATOM      4  N   UNL     1      32.069 -22.771 -17.375  0.00  0.00    -0.171 NA
ATOM      5  N   UNL     1      35.549 -23.166 -16.811  0.00  0.00    -0.295 NA
ATOM      6  N   UNL     1      34.451 -22.125 -18.637  0.00  0.00    -0.290 N 
ATOM      7  C   UNL     1      31.836 -23.871 -15.384  0.00  0.00    +0.113 C 
ATOM      8  C   UNL     1      33.181 -23.756 -15.651  0.00  0.00    +0.205 C 
ATOM      9  C   UNL     1      35.453 -23.840 -15.595  0.00  0.00    +0.203 C 
ATOM     10  C   UNL     1      34.473 -22.791 -17.441  0.00  0.00    +0.276 C 
ATOM     11  C   UNL     1      31.201 -23.249 -16.477  0.00  0.00    +0.100 C 
ATOM     12  H   UNL     1      37.483 -23.982 -15.428  0.00  0.00    +0.160 HD
ATOM     13  H   UNL     1      33.582 -21.886 -19.031  0.00  0.00    +0.151 HD
ENDROOT
BRANCH   7  14
ATOM     14  C   UNL     1      31.200 -24.505 -14.218  0.00  0.00    +0.014 C 
ATOM     15  C   UNL     1      29.951 -25.342 -14.586  0.00  0.00    +0.001 C 
ATOM     16  C   UNL     1      30.820 -23.495 -13.107  0.00  0.00    +0.001 C 
ENDBRANCH   7  14
BRANCH   2  17
ATOM     17  CA  UNL     1      36.658 -24.902 -13.741  0.00  0.00    +0.109 C 
BRANCH  17  18
ATOM     18  C   UNL     1      37.657 -24.228 -12.793  0.00  0.00    +0.023 C 
ATOM     19  C   UNL     1      37.014 -23.153 -11.928  0.00  0.00    +0.002 C 
ENDBRANCH  17  18
BRANCH  17  20
ATOM     20  C   UNL     1      37.048 -26.357 -13.999  0.00  0.00    +0.157 C 
BRANCH  20  21
ATOM     21  O   UNL     1      36.096 -26.953 -14.873  0.00  0.00    -0.380 OA
ATOM     22  H   UNL     1      36.272 -27.904 -14.944  0.00  0.00    +0.211 HD
ENDBRANCH  20  21
ENDBRANCH  17  20
ENDBRANCH   2  17
BRANCH   6  23
ATOM     23  C   UNL     1      35.648 -21.765 -19.334  0.00  0.00    +0.117 C 
BRANCH  23  24
ATOM     24  C   UNL     1      35.421 -20.537 -20.171  0.00  0.00    -0.003 C 
ATOM     25  C   UNL     1      34.124 -20.165 -20.526  0.00  0.00    -0.003 C 
ATOM     26  C   UNL     1      36.507 -19.769 -20.592  0.00  0.00    -0.003 C 
ATOM     27  C   UNL     1      33.913 -19.025 -21.302  0.00  0.00    -0.000 C 
ATOM     28  C   UNL     1      36.296 -18.630 -21.369  0.00  0.00    -0.000 C 
ATOM     29  C   UNL     1      34.999 -18.258 -21.723  0.00  0.00    -0.000 C 
ENDBRANCH  23  24
ENDBRANCH   6  23
TORSDOF 7
ENDMDL
MODEL 2
REMARK VINA RESULT:     -10.2      1.521      4.526
REMARK  Name = 25190761
REMARK  7 active torsions:
REMARK  status: ('A' for Active; 'I' for Inactive)
REMARK    1  A    between atoms: N_2  and  CA_17
REMARK    2  A    between atoms: N_6  and  C_23
REMARK    3  A    between atoms: C_7  and  C_14
REMARK    4  A    between atoms: CA_17  and  C_18
REMARK    5  A    between atoms: CA_17  and  C_20
REMARK    6  A    between atoms: C_20  and  O_21
REMARK    7  A    between atoms: C_23  and  C_24
REMARK                            x       y       z     vdW  Elec       q    Type
REMARK                         _______ _______ _______ _____ _____    ______ ____
ROOT
ATOM      1  N   UNL     1      35.631 -23.032 -16.278  0.00  0.00    -0.124 N 
ATOM      2  N   UNL     1      31.791 -23.913 -15.568  0.00  0.00    -0.258 N 
ATOM      3  N   UNL     1      33.991 -23.895 -14.830  0.00  0.00    -0.315 NA
ATOM      4  N   UNL     1      36.946 -22.779 -16.408  0.00  0.00    -0.171 NA
ATOM      5  N   UNL     1      33.459 -23.053 -17.001  0.00  0.00    -0.295 NA
ATOM      6  N   UNL     1      35.143 -22.191 -18.430  0.00  0.00    -0.290 N 
ATOM      7  C   UNL     1      36.460 -23.716 -14.379  0.00  0.00    +0.113 C 
ATOM      8  C   UNL     1      35.284 -23.593 -15.084  0.00  0.00    +0.205 C 
ATOM      9  C   UNL     1      33.119 -23.625 -15.777  0.00  0.00    +0.203 C 
ATOM     10  C   UNL     1      34.698 -22.753 -17.265  0.00  0.00    +0.276 C 
ATOM     11  C   UNL     1      37.448 -23.200 -15.243  0.00  0.00    +0.100 C 
ATOM     12  H   UNL     1      31.142 -23.708 -16.280  0.00  0.00    +0.160 HD
ATOM     13  H   UNL     1      36.104 -22.004 -18.531  0.00  0.00    +0.151 HD
ENDROOT
BRANCH   7  14
ATOM     14  C   UNL     1      36.648 -24.263 -13.026  0.00  0.00    +0.014 C 
ATOM     15  C   UNL     1      36.881 -23.169 -11.955  0.00  0.00    +0.001 C 
ATOM     16  C   UNL     1      37.792 -25.302 -12.942  0.00  0.00    +0.001 C 
ENDBRANCH   7  14
BRANCH   2  17
ATOM     17  CA  UNL     1      31.323 -24.499 -14.353  0.00  0.00    +0.109 C 
BRANCH  17  18
ATOM     18  C   UNL     1      30.119 -25.404 -14.643  0.00  0.00    +0.023 C 
ATOM     19  C   UNL     1      28.981 -24.665 -15.335  0.00  0.00    +0.002 C 
ENDBRANCH  17  18
BRANCH  17  20
ATOM     20  C   UNL     1      30.942 -23.381 -13.383  0.00  0.00    +0.157 C 
BRANCH  20  21
ATOM     21  O   UNL     1      32.098 -22.966 -12.664  0.00  0.00    -0.380 OA
ATOM     22  H   UNL     1      31.948 -22.083 -12.290  0.00  0.00    +0.211 HD
ENDBRANCH  20  21
ENDBRANCH  17  20
ENDBRANCH   2  17
BRANCH   6  23
ATOM     23  C   UNL     1      34.260 -21.867 -19.509  0.00  0.00    +0.117 C 
BRANCH  23  24
ATOM     24  C   UNL     1      34.719 -20.617 -20.207  0.00  0.00    -0.003 C 
ATOM     25  C   UNL     1      33.784 -19.747 -20.767  0.00  0.00    -0.003 C 
ATOM     26  C   UNL     1      36.081 -20.328 -20.296  0.00  0.00    -0.003 C 
ATOM     27  C   UNL     1      34.210 -18.587 -21.415  0.00  0.00    -0.000 C 
ATOM     28  C   UNL     1      36.507 -19.169 -20.944  0.00  0.00    -0.000 C 
ATOM     29  C   UNL     1      35.572 -18.298 -21.503  0.00  0.00    -0.000 C 
ENDBRANCH  23  24
ENDBRANCH   6  23
TORSDOF 7
ENDMDL
MODEL 3
REMARK VINA RESULT:      -9.6      2.431      4.879
REMARK  Name = 25190761
REMARK  7 active torsions:
REMARK  status: ('A' for Active; 'I' for Inactive)
REMARK    1  A    between atoms: N_2  and  CA_17
REMARK    2  A    between atoms: N_6  and  C_23
REMARK    3  A    between atoms: C_7  and  C_14
REMARK    4  A    between atoms: CA_17  and  C_18
REMARK    5  A    between atoms: CA_17  and  C_20
REMARK    6  A    between atoms: C_20  and  O_21
REMARK    7  A    between atoms: C_23  and  C_24
REMARK                            x       y       z     vdW  Elec       q    Type
REMARK                         _______ _______ _______ _____ _____    ______ ____
ROOT
ATOM      1  N   UNL     1      34.178 -22.937 -16.724  0.00  0.00    -0.124 N 
ATOM      2  N   UNL     1      30.179 -22.792 -16.846  0.00  0.00    -0.258 N 
ATOM      3  N   UNL     1      32.111 -23.248 -15.645  0.00  0.00    -0.315 NA
ATOM      4  N   UNL     1      35.511 -23.024 -16.570  0.00  0.00    -0.171 NA
ATOM      5  N   UNL     1      32.268 -22.489 -17.904  0.00  0.00    -0.295 NA
ATOM      6  N   UNL     1      34.372 -22.188 -18.954  0.00  0.00    -0.290 N 
ATOM      7  C   UNL     1      34.398 -23.640 -14.670  0.00  0.00    +0.113 C 
ATOM      8  C   UNL     1      33.462 -23.293 -15.618  0.00  0.00    +0.205 C 
ATOM      9  C   UNL     1      31.550 -22.855 -16.767  0.00  0.00    +0.203 C 
ATOM     10  C   UNL     1      33.569 -22.524 -17.898  0.00  0.00    +0.276 C 
ATOM     11  C   UNL     1      35.639 -23.455 -15.311  0.00  0.00    +0.100 C 
ATOM     12  H   UNL     1      29.764 -22.496 -17.688  0.00  0.00    +0.160 HD
ATOM     13  H   UNL     1      35.348 -22.249 -18.847  0.00  0.00    +0.151 HD
ENDROOT
BRANCH   7  14
ATOM     14  C   UNL     1      34.158 -24.099 -13.293  0.00  0.00    +0.014 C 
ATOM     15  C   UNL     1      35.391 -24.787 -12.658  0.00  0.00    +0.001 C 
ATOM     16  C   UNL     1      32.935 -25.041 -13.168  0.00  0.00    +0.001 C 
ENDBRANCH   7  14
BRANCH   2  17
ATOM     17  CA  UNL     1      29.338 -23.141 -15.746  0.00  0.00    +0.109 C 
BRANCH  17  18
ATOM     18  C   UNL     1      28.962 -24.625 -15.830  0.00  0.00    +0.023 C 
ATOM     19  C   UNL     1      29.507 -25.437 -14.661  0.00  0.00    +0.002 C 
ENDBRANCH  17  18
BRANCH  17  20
ATOM     20  C   UNL     1      28.089 -22.260 -15.783  0.00  0.00    +0.157 C 
BRANCH  20  21
ATOM     21  O   UNL     1      27.905 -21.758 -17.102  0.00  0.00    -0.380 OA
ATOM     22  H   UNL     1      27.487 -22.438 -17.653  0.00  0.00    +0.211 HD
ENDBRANCH  20  21
ENDBRANCH  17  20
ENDBRANCH   2  17
BRANCH   6  23
ATOM     23  C   UNL     1      33.841 -21.750 -20.210  0.00  0.00    +0.117 C 
BRANCH  23  24
ATOM     24  C   UNL     1      34.429 -20.422 -20.596  0.00  0.00    -0.003 C 
ATOM     25  C   UNL     1      35.812 -20.242 -20.589  0.00  0.00    -0.003 C 
ATOM     26  C   UNL     1      33.590 -19.367 -20.960  0.00  0.00    -0.003 C 
ATOM     27  C   UNL     1      36.358 -19.009 -20.948  0.00  0.00    -0.000 C 
ATOM     28  C   UNL     1      34.136 -18.134 -21.318  0.00  0.00    -0.000 C 
ATOM     29  C   UNL     1      35.519 -17.956 -21.312  0.00  0.00    -0.000 C 
ENDBRANCH  23  24
ENDBRANCH   6  23
TORSDOF 7
ENDMDL
MODEL 4
REMARK VINA RESULT:      -9.1      1.991      4.639
REMARK  Name = 25190761
REMARK  7 active torsions:
REMARK  status: ('A' for Active; 'I' for Inactive)
REMARK    1  A    between atoms: N_2  and  CA_17
REMARK    2  A    between atoms: N_6  and  C_23
REMARK    3  A    between atoms: C_7  and  C_14
REMARK    4  A    between atoms: CA_17  and  C_18
REMARK    5  A    between atoms: CA_17  and  C_20
REMARK    6  A    between atoms: C_20  and  O_21
REMARK    7  A    between atoms: C_23  and  C_24
REMARK                            x       y       z     vdW  Elec       q    Type
REMARK                         _______ _______ _______ _____ _____    ______ ____
ROOT
ATOM      1  N   UNL     1      35.243 -22.100 -17.859  0.00  0.00    -0.124 N 
ATOM      2  N   UNL     1      31.469 -23.112 -16.986  0.00  0.00    -0.258 N 
ATOM      3  N   UNL     1      33.720 -23.176 -16.426  0.00  0.00    -0.315 NA
ATOM      4  N   UNL     1      36.543 -21.818 -18.053  0.00  0.00    -0.171 NA
ATOM      5  N   UNL     1      33.021 -22.040 -18.407  0.00  0.00    -0.295 NA
ATOM      6  N   UNL     1      34.589 -20.967 -19.825  0.00  0.00    -0.290 N 
ATOM      7  C   UNL     1      36.217 -23.038 -16.147  0.00  0.00    +0.113 C 
ATOM      8  C   UNL     1      34.990 -22.828 -16.733  0.00  0.00    +0.205 C 
ATOM      9  C   UNL     1      32.777 -22.784 -17.253  0.00  0.00    +0.203 C 
ATOM     10  C   UNL     1      34.236 -21.694 -18.720  0.00  0.00    +0.276 C 
ATOM     11  C   UNL     1      37.134 -22.394 -17.001  0.00  0.00    +0.100 C 
ATOM     12  H   UNL     1      30.767 -22.815 -17.609  0.00  0.00    +0.160 HD
ATOM     13  H   UNL     1      35.539 -20.757 -19.971  0.00  0.00    +0.151 HD
ENDROOT
BRANCH   7  14
ATOM     14  C   UNL     1      36.509 -23.769 -14.904  0.00  0.00    +0.014 C 
ATOM     15  C   UNL     1      36.271 -25.294 -15.025  0.00  0.00    +0.001 C 
ATOM     16  C   UNL     1      35.725 -23.232 -13.682  0.00  0.00    +0.001 C 
ENDBRANCH   7  14
BRANCH   2  17
ATOM     17  CA  UNL     1      31.096 -23.869 -15.834  0.00  0.00    +0.109 C 
BRANCH  17  18
ATOM     18  C   UNL     1      29.842 -24.697 -16.140  0.00  0.00    +0.023 C 
ATOM     19  C   UNL     1      29.031 -25.019 -14.891  0.00  0.00    +0.002 C 
ENDBRANCH  17  18
BRANCH  17  20
ATOM     20  C   UNL     1      30.845 -22.907 -14.673  0.00  0.00    +0.157 C 
BRANCH  20  21
ATOM     21  O   UNL     1      32.026 -22.796 -13.888  0.00  0.00    -0.380 OA
ATOM     22  H   UNL     1      32.232 -21.859 -13.744  0.00  0.00    +0.211 HD
ENDBRANCH  20  21
ENDBRANCH  17  20
ENDBRANCH   2  17
BRANCH   6  23
ATOM     23  C   UNL     1      33.624 -20.501 -20.775  0.00  0.00    +0.117 C 
BRANCH  23  24
ATOM     24  C   UNL     1      34.168 -19.333 -21.547  0.00  0.00    -0.003 C 
ATOM     25  C   UNL     1      34.832 -19.543 -22.756  0.00  0.00    -0.003 C 
ATOM     26  C   UNL     1      34.009 -18.037 -21.055  0.00  0.00    -0.003 C 
ATOM     27  C   UNL     1      35.336 -18.458 -23.473  0.00  0.00    -0.000 C 
ATOM     28  C   UNL     1      34.514 -16.952 -21.772  0.00  0.00    -0.000 C 
ATOM     29  C   UNL     1      35.176 -17.162 -22.981  0.00  0.00    -0.000 C 
ENDBRANCH  23  24
ENDBRANCH   6  23
TORSDOF 7
ENDMDL
MODEL 5
REMARK VINA RESULT:      -8.7      7.512     12.352
REMARK  Name = 25190761
REMARK  7 active torsions:
REMARK  status: ('A' for Active; 'I' for Inactive)
REMARK    1  A    between atoms: N_2  and  CA_17
REMARK    2  A    between atoms: N_6  and  C_23
REMARK    3  A    between atoms: C_7  and  C_14
REMARK    4  A    between atoms: CA_17  and  C_18
REMARK    5  A    between atoms: CA_17  and  C_20
REMARK    6  A    between atoms: C_20  and  O_21
REMARK    7  A    between atoms: C_23  and  C_24
REMARK                            x       y       z     vdW  Elec       q    Type
REMARK                         _______ _______ _______ _____ _____    ______ ____
ROOT
ATOM      1  N   UNL     1      33.171 -14.238 -21.326  0.00  0.00    -0.124 N 
ATOM      2  N   UNL     1      34.176 -13.240 -25.070  0.00  0.00    -0.258 N 
ATOM      3  N   UNL     1      33.029 -12.724 -23.120  0.00  0.00    -0.315 NA
ATOM      4  N   UNL     1      32.770 -14.473 -20.064  0.00  0.00    -0.171 NA
ATOM      5  N   UNL     1      34.300 -14.743 -23.253  0.00  0.00    -0.295 NA
ATOM      6  N   UNL     1      34.417 -16.242 -21.420  0.00  0.00    -0.290 N 
ATOM      7  C   UNL     1      31.929 -12.504 -20.868  0.00  0.00    +0.113 C 
ATOM      8  C   UNL     1      32.697 -13.074 -21.857  0.00  0.00    +0.205 C 
ATOM      9  C   UNL     1      33.810 -13.550 -23.782  0.00  0.00    +0.203 C 
ATOM     10  C   UNL     1      33.994 -15.097 -22.038  0.00  0.00    +0.276 C 
ATOM     11  C   UNL     1      32.010 -13.408 -19.789  0.00  0.00    +0.100 C 
ATOM     12  H   UNL     1      34.761 -13.862 -25.561  0.00  0.00    +0.160 HD
ATOM     13  H   UNL     1      34.127 -16.418 -20.496  0.00  0.00    +0.151 HD
ENDROOT
BRANCH   7  14
ATOM     14  C   UNL     1      31.188 -11.234 -20.921  0.00  0.00    +0.014 C 
ATOM     15  C   UNL     1      31.843 -10.186 -21.853  0.00  0.00    +0.001 C 
ATOM     16  C   UNL     1      30.965 -10.600 -19.527  0.00  0.00    +0.001 C 
ENDBRANCH   7  14
BRANCH   2  17
ATOM     17  CA  UNL     1      33.737 -12.047 -25.719  0.00  0.00    +0.109 C 
BRANCH  17  18
ATOM     18  C   UNL     1      33.372 -12.351 -27.177  0.00  0.00    +0.023 C 
ATOM     19  C   UNL     1      33.106 -13.831 -27.420  0.00  0.00    +0.002 C 
ENDBRANCH  17  18
BRANCH  17  20
ATOM     20  C   UNL     1      34.854 -11.006 -25.642  0.00  0.00    +0.157 C 
BRANCH  20  21
ATOM     21  O   UNL     1      34.886 -10.443 -24.336  0.00  0.00    -0.380 OA
ATOM     22  H   UNL     1      34.456 -11.048 -23.712  0.00  0.00    +0.211 HD
ENDBRANCH  20  21
ENDBRANCH  17  20
ENDBRANCH   2  17
BRANCH   6  23
ATOM     23  C   UNL     1      35.268 -17.193 -22.070  0.00  0.00    +0.117 C 
BRANCH  23  24
ATOM     24  C   UNL     1      35.236 -18.509 -21.346  0.00  0.00    -0.003 C 
ATOM     25  C   UNL     1      34.016 -19.134 -21.087  0.00  0.00    -0.003 C 
ATOM     26  C   UNL     1      36.427 -19.106 -20.931  0.00  0.00    -0.003 C 
ATOM     27  C   UNL     1      33.987 -20.357 -20.415  0.00  0.00    -0.000 C 
ATOM     28  C   UNL     1      36.398 -20.328 -20.258  0.00  0.00    -0.000 C 
ATOM     29  C   UNL     1      35.178 -20.953 -20.001  0.00  0.00    -0.000 C 
ENDBRANCH  23  24
ENDBRANCH   6  23
TORSDOF 7
ENDMDL
MODEL 6
REMARK VINA RESULT:      -8.6      2.498      6.138
REMARK  Name = 25190761
REMARK  7 active torsions:
REMARK  status: ('A' for Active; 'I' for Inactive)
REMARK    1  A    between atoms: N_2  and  CA_17
REMARK    2  A    between atoms: N_6  and  C_23
REMARK    3  A    between atoms: C_7  and  C_14
REMARK    4  A    between atoms: CA_17  and  C_18
REMARK    5  A    between atoms: CA_17  and  C_20
REMARK    6  A    between atoms: C_20  and  O_21
REMARK    7  A    between atoms: C_23  and  C_24
REMARK                            x       y       z     vdW  Elec       q    Type
REMARK                         _______ _______ _______ _____ _____    ______ ____
ROOT
ATOM      1  N   UNL     1      33.010 -22.678 -17.593  0.00  0.00    -0.124 N 
ATOM      2  N   UNL     1      34.459 -24.236 -14.202  0.00  0.00    -0.258 N 
ATOM      3  N   UNL     1      34.860 -23.187 -16.232  0.00  0.00    -0.315 NA
ATOM      4  N   UNL     1      32.636 -22.130 -18.763  0.00  0.00    -0.171 NA
ATOM      5  N   UNL     1      32.621 -23.715 -15.589  0.00  0.00    -0.295 NA
ATOM      6  N   UNL     1      30.784 -23.185 -16.991  0.00  0.00    -0.290 N 
ATOM      7  C   UNL     1      34.905 -22.062 -18.482  0.00  0.00    +0.113 C 
ATOM      8  C   UNL     1      34.357 -22.665 -17.373  0.00  0.00    +0.205 C 
ATOM      9  C   UNL     1      33.998 -23.693 -15.377  0.00  0.00    +0.203 C 
ATOM     10  C   UNL     1      32.116 -23.216 -16.681  0.00  0.00    +0.276 C 
ATOM     11  C   UNL     1      33.801 -21.755 -19.302  0.00  0.00    +0.100 C 
ATOM     12  H   UNL     1      33.809 -24.614 -13.565  0.00  0.00    +0.160 HD
ATOM     13  H   UNL     1      30.505 -22.784 -17.845  0.00  0.00    +0.151 HD
ENDROOT
BRANCH   7  14
ATOM     14  C   UNL     1      36.326 -21.795 -18.754  0.00  0.00    +0.014 C 
ATOM     15  C   UNL     1      37.090 -21.254 -17.521  0.00  0.00    +0.001 C 
ATOM     16  C   UNL     1      36.549 -20.834 -19.947  0.00  0.00    +0.001 C 
ENDBRANCH   7  14
BRANCH   2  17
ATOM     17  CA  UNL     1      35.848 -24.271 -13.874  0.00  0.00    +0.109 C 
BRANCH  17  18
ATOM     18  C   UNL     1      36.397 -25.687 -14.085  0.00  0.00    +0.023 C 
ATOM     19  C   UNL     1      37.722 -25.697 -14.837  0.00  0.00    +0.002 C 
ENDBRANCH  17  18
BRANCH  17  20
ATOM     20  C   UNL     1      36.021 -23.831 -12.420  0.00  0.00    +0.157 C 
BRANCH  20  21
ATOM     21  O   UNL     1      34.742 -23.583 -11.846  0.00  0.00    -0.380 OA
ATOM     22  H   UNL     1      34.065 -23.614 -12.540  0.00  0.00    +0.211 HD
ENDBRANCH  20  21
ENDBRANCH  17  20
ENDBRANCH   2  17
BRANCH   6  23
ATOM     23  C   UNL     1      29.782 -23.714 -16.116  0.00  0.00    +0.117 C 
BRANCH  23  24
ATOM     24  C   UNL     1      28.469 -23.016 -16.335  0.00  0.00    -0.003 C 
ATOM     25  C   UNL     1      27.980 -22.839 -17.630  0.00  0.00    -0.003 C 
ATOM     26  C   UNL     1      27.740 -22.543 -15.243  0.00  0.00    -0.003 C 
ATOM     27  C   UNL     1      26.761 -22.190 -17.833  0.00  0.00    -0.000 C 
ATOM     28  C   UNL     1      26.522 -21.894 -15.447  0.00  0.00    -0.000 C 
ATOM     29  C   UNL     1      26.033 -21.719 -16.741  0.00  0.00    -0.000 C 
ENDBRANCH  23  24
ENDBRANCH   6  23
TORSDOF 7
ENDMDL
MODEL 7
REMARK VINA RESULT:      -8.6      9.196     13.344
REMARK  Name = 25190761
REMARK  7 active torsions:
REMARK  status: ('A' for Active; 'I' for Inactive)
REMARK    1  A    between atoms: N_2  and  CA_17
REMARK    2  A    between atoms: N_6  and  C_23
REMARK    3  A    between atoms: C_7  and  C_14
REMARK    4  A    between atoms: CA_17  and  C_18
REMARK    5  A    between atoms: CA_17  and  C_20
REMARK    6  A    between atoms: C_20  and  O_21
REMARK    7  A    between atoms: C_23  and  C_24
REMARK                            x       y       z     vdW  Elec       q    Type
REMARK                         _______ _______ _______ _____ _____    ______ ____
ROOT
ATOM      1  N   UNL     1      32.887 -14.019 -21.836  0.00  0.00    -0.124 N 
ATOM      2  N   UNL     1      33.451 -12.121 -25.316  0.00  0.00    -0.258 N 
ATOM      3  N   UNL     1      33.968 -13.903 -23.921  0.00  0.00    -0.315 NA
ATOM      4  N   UNL     1      32.777 -14.737 -20.704  0.00  0.00    -0.171 NA
ATOM      5  N   UNL     1      32.381 -12.263 -23.215  0.00  0.00    -0.295 NA
ATOM      6  N   UNL     1      31.313 -12.418 -21.104  0.00  0.00    -0.290 N 
ATOM      7  C   UNL     1      34.273 -15.672 -22.159  0.00  0.00    +0.113 C 
ATOM      8  C   UNL     1      33.768 -14.533 -22.742  0.00  0.00    +0.205 C 
ATOM      9  C   UNL     1      33.284 -12.800 -24.132  0.00  0.00    +0.203 C 
ATOM     10  C   UNL     1      32.173 -12.855 -22.075  0.00  0.00    +0.276 C 
ATOM     11  C   UNL     1      33.628 -15.748 -20.908  0.00  0.00    +0.100 C 
ATOM     12  H   UNL     1      32.936 -11.296 -25.468  0.00  0.00    +0.160 HD
ATOM     13  H   UNL     1      31.229 -12.939 -20.274  0.00  0.00    +0.151 HD
ENDROOT
BRANCH   7  14
ATOM     14  C   UNL     1      35.264 -16.607 -22.715  0.00  0.00    +0.014 C 
ATOM     15  C   UNL     1      34.862 -17.165 -24.102  0.00  0.00    +0.001 C 
ATOM     16  C   UNL     1      35.585 -17.789 -21.769  0.00  0.00    +0.001 C 
ENDBRANCH   7  14
BRANCH   2  17
ATOM     17  CA  UNL     1      34.347 -12.574 -26.331  0.00  0.00    +0.109 C 
BRANCH  17  18
ATOM     18  C   UNL     1      35.055 -11.375 -26.972  0.00  0.00    +0.023 C 
ATOM     19  C   UNL     1      35.515 -10.346 -25.947  0.00  0.00    +0.002 C 
ENDBRANCH  17  18
BRANCH  17  20
ATOM     20  C   UNL     1      33.552 -13.359 -27.374  0.00  0.00    +0.157 C 
BRANCH  20  21
ATOM     21  O   UNL     1      33.600 -14.746 -27.059  0.00  0.00    -0.380 OA
ATOM     22  H   UNL     1      33.435 -14.869 -26.111  0.00  0.00    +0.211 HD
ENDBRANCH  20  21
ENDBRANCH  17  20
ENDBRANCH   2  17
BRANCH   6  23
ATOM     23  C   UNL     1      30.531 -11.227 -21.254  0.00  0.00    +0.117 C 
BRANCH  23  24
ATOM     24  C   UNL     1      31.378 -10.009 -21.019  0.00  0.00    -0.003 C 
ATOM     25  C   UNL     1      31.806  -9.237 -22.099  0.00  0.00    -0.003 C 
ATOM     26  C   UNL     1      31.737  -9.649 -19.719  0.00  0.00    -0.003 C 
ATOM     27  C   UNL     1      32.592  -8.104 -21.880  0.00  0.00    -0.000 C 
ATOM     28  C   UNL     1      32.524  -8.518 -19.500  0.00  0.00    -0.000 C 
ATOM     29  C   UNL     1      32.950  -7.746 -20.580  0.00  0.00    -0.000 C 
ENDBRANCH  23  24
ENDBRANCH   6  23
TORSDOF 7
ENDMDL
MODEL 8
REMARK VINA RESULT:      -8.3     11.955     15.591
REMARK  Name = 25190761
REMARK  7 active torsions:
REMARK  status: ('A' for Active; 'I' for Inactive)
REMARK    1  A    between atoms: N_2  and  CA_17
REMARK    2  A    between atoms: N_6  and  C_23
REMARK    3  A    between atoms: C_7  and  C_14
REMARK    4  A    between atoms: CA_17  and  C_18
REMARK    5  A    between atoms: CA_17  and  C_20
REMARK    6  A    between atoms: C_20  and  O_21
REMARK    7  A    between atoms: C_23  and  C_24
REMARK                            x       y       z     vdW  Elec       q    Type
REMARK                         _______ _______ _______ _____ _____    ______ ____
ROOT
ATOM      1  N   UNL     1      32.899  -8.819 -22.329  0.00  0.00    -0.124 N 
ATOM      2  N   UNL     1      33.629 -11.743 -24.965  0.00  0.00    -0.258 N 
ATOM      3  N   UNL     1      32.708 -11.082 -22.940  0.00  0.00    -0.315 NA
ATOM      4  N   UNL     1      32.600  -7.919 -21.376  0.00  0.00    -0.171 NA
ATOM      5  N   UNL     1      33.806  -9.476 -24.326  0.00  0.00    -0.295 NA
ATOM      6  N   UNL     1      33.976  -7.204 -23.673  0.00  0.00    -0.290 N 
ATOM      7  C   UNL     1      31.841 -10.008 -20.836  0.00  0.00    +0.113 C 
ATOM      8  C   UNL     1      32.469 -10.085 -22.058  0.00  0.00    +0.205 C 
ATOM      9  C   UNL     1      33.360 -10.765 -24.037  0.00  0.00    +0.203 C 
ATOM     10  C   UNL     1      33.585  -8.502 -23.491  0.00  0.00    +0.276 C 
ATOM     11  C   UNL     1      31.952  -8.653 -20.465  0.00  0.00    +0.100 C 
ATOM     12  H   UNL     1      34.117 -11.499 -25.785  0.00  0.00    +0.160 HD
ATOM     13  H   UNL     1      33.760  -6.541 -22.978  0.00  0.00    +0.151 HD
ENDROOT
BRANCH   7  14
ATOM     14  C   UNL     1      31.196 -11.095 -20.083  0.00  0.00    +0.014 C 
ATOM     15  C   UNL     1      31.166 -10.843 -18.556  0.00  0.00    +0.001 C 
ATOM     16  C   UNL     1      31.828 -12.482 -20.353  0.00  0.00    +0.001 C 
ENDBRANCH   7  14
BRANCH   2  17
ATOM     17  CA  UNL     1      33.222 -13.098 -24.779  0.00  0.00    +0.109 C 
BRANCH  17  18
ATOM     18  C   UNL     1      34.089 -13.759 -23.701  0.00  0.00    +0.023 C 
ATOM     19  C   UNL     1      33.349 -14.849 -22.937  0.00  0.00    +0.002 C 
ENDBRANCH  17  18
BRANCH  17  20
ATOM     20  C   UNL     1      33.352 -13.837 -26.111  0.00  0.00    +0.157 C 
BRANCH  20  21
ATOM     21  O   UNL     1      32.191 -14.631 -26.327  0.00  0.00    -0.380 OA
ATOM     22  H   UNL     1      32.123 -15.301 -25.629  0.00  0.00    +0.211 HD
ENDBRANCH  20  21
ENDBRANCH  17  20
ENDBRANCH   2  17
BRANCH   6  23
ATOM     23  C   UNL     1      34.690  -6.776 -24.837  0.00  0.00    +0.117 C 
BRANCH  23  24
ATOM     24  C   UNL     1      33.897  -5.747 -25.593  0.00  0.00    -0.003 C 
ATOM     25  C   UNL     1      32.652  -5.338 -25.116  0.00  0.00    -0.003 C 
ATOM     26  C   UNL     1      34.405  -5.203 -26.773  0.00  0.00    -0.003 C 
ATOM     27  C   UNL     1      31.915  -4.383 -25.817  0.00  0.00    -0.000 C 
ATOM     28  C   UNL     1      33.668  -4.249 -27.475  0.00  0.00    -0.000 C 
ATOM     29  C   UNL     1      32.424  -3.838 -26.997  0.00  0.00    -0.000 C 
ENDBRANCH  23  24
ENDBRANCH   6  23
TORSDOF 7
ENDMDL
MODEL 9
REMARK VINA RESULT:      -8.3      6.716     11.768
REMARK  Name = 25190761
REMARK  7 active torsions:
REMARK  status: ('A' for Active; 'I' for Inactive)
REMARK    1  A    between atoms: N_2  and  CA_17
REMARK    2  A    between atoms: N_6  and  C_23
REMARK    3  A    between atoms: C_7  and  C_14
REMARK    4  A    between atoms: CA_17  and  C_18
REMARK    5  A    between atoms: CA_17  and  C_20
REMARK    6  A    between atoms: C_20  and  O_21
REMARK    7  A    between atoms: C_23  and  C_24
REMARK                            x       y       z     vdW  Elec       q    Type
REMARK                         _______ _______ _______ _____ _____    ______ ____
ROOT
ATOM      1  N   UNL     1      33.359 -15.048 -21.534  0.00  0.00    -0.124 N 
ATOM      2  N   UNL     1      34.022 -15.106 -25.482  0.00  0.00    -0.258 N 
ATOM      3  N   UNL     1      33.077 -14.049 -23.645  0.00  0.00    -0.315 NA
ATOM      4  N   UNL     1      33.076 -14.927 -20.225  0.00  0.00    -0.171 NA
ATOM      5  N   UNL     1      34.288 -16.087 -23.350  0.00  0.00    -0.295 NA
ATOM      6  N   UNL     1      34.549 -17.060 -21.205  0.00  0.00    -0.290 N 
ATOM      7  C   UNL     1      32.201 -13.200 -21.444  0.00  0.00    +0.113 C 
ATOM      8  C   UNL     1      32.860 -14.042 -22.310  0.00  0.00    +0.205 C 
ATOM      9  C   UNL     1      33.773 -15.053 -24.131  0.00  0.00    +0.203 C 
ATOM     10  C   UNL     1      34.092 -16.098 -22.063  0.00  0.00    +0.276 C 
ATOM     11  C   UNL     1      32.367 -13.794 -20.176  0.00  0.00    +0.100 C 
ATOM     12  H   UNL     1      34.544 -15.860 -25.841  0.00  0.00    +0.160 HD
ATOM     13  H   UNL     1      34.345 -16.977 -20.246  0.00  0.00    +0.151 HD
ENDROOT
BRANCH   7  14
ATOM     14  C   UNL     1      31.484 -11.956 -21.765  0.00  0.00    +0.014 C 
ATOM     15  C   UNL     1      32.330 -10.965 -22.601  0.00  0.00    +0.001 C 
ATOM     16  C   UNL     1      30.941 -11.225 -20.513  0.00  0.00    +0.001 C 
ENDBRANCH   7  14
BRANCH   2  17
ATOM     17  CA  UNL     1      33.547 -14.104 -26.381  0.00  0.00    +0.109 C 
BRANCH  17  18
ATOM     18  C   UNL     1      33.390 -12.771 -25.640  0.00  0.00    +0.023 C 
ATOM     19  C   UNL     1      34.352 -11.702 -26.142  0.00  0.00    +0.002 C 
ENDBRANCH  17  18
BRANCH  17  20
ATOM     20  C   UNL     1      32.211 -14.562 -26.966  0.00  0.00    +0.157 C 
BRANCH  20  21
ATOM     21  O   UNL     1      32.129 -15.982 -26.903  0.00  0.00    -0.380 OA
ATOM     22  H   UNL     1      31.275 -16.273 -27.258  0.00  0.00    +0.211 HD
ENDBRANCH  20  21
ENDBRANCH  17  20
ENDBRANCH   2  17
BRANCH   6  23
ATOM     23  C   UNL     1      35.314 -18.185 -21.652  0.00  0.00    +0.117 C 
BRANCH  23  24
ATOM     24  C   UNL     1      34.918 -19.424 -20.900  0.00  0.00    -0.003 C 
ATOM     25  C   UNL     1      35.898 -20.277 -20.393  0.00  0.00    -0.003 C 
ATOM     26  C   UNL     1      33.568 -19.722 -20.708  0.00  0.00    -0.003 C 
ATOM     27  C   UNL     1      35.530 -21.427 -19.694  0.00  0.00    -0.000 C 
ATOM     28  C   UNL     1      33.200 -20.872 -20.010  0.00  0.00    -0.000 C 
ATOM     29  C   UNL     1      34.181 -21.724 -19.503  0.00  0.00    -0.000 C 
ENDBRANCH  23  24
ENDBRANCH   6  23
TORSDOF 7
ENDMDL
