MODEL 1
REMARK VINA RESULT:     -11.2      0.000      0.000
REMARK  Name = 24180717
REMARK  5 active torsions:
REMARK  status: ('A' for Active; 'I' for Inactive)
REMARK    1  A    between atoms: C_14  and  C_18
REMARK    2  A    between atoms: C_15  and  C_30
REMARK    3  A    between atoms: C_21  and  C_22
REMARK    4  A    between atoms: C_23  and  C_24
REMARK    5  A    between atoms: C_30  and  N_31
REMARK                            x       y       z     vdW  Elec       q    Type
REMARK                         _______ _______ _______ _____ _____    ______ ____
ROOT
ATOM      1  O   UNL     1      37.254 -18.820 -21.686  0.00  0.00    -0.475 OA
ATOM      2  O   UNL     1      32.530 -16.342 -26.411  0.00  0.00    -0.267 OA
ATOM      3  N   UNL     1      34.354 -16.406 -24.985  0.00  0.00    -0.274 N 
ATOM      4  C   UNL     1      35.231 -18.305 -22.949  0.00  0.00    +0.065 C 
ATOM      5  C   UNL     1      34.793 -16.867 -22.593  0.00  0.00    +0.029 C 
ATOM      6  C   UNL     1      34.564 -18.749 -24.262  0.00  0.00    +0.029 C 
ATOM      7  C   UNL     1      36.772 -18.448 -23.000  0.00  0.00    +0.209 C 
ATOM      8  C   UNL     1      34.983 -19.224 -21.795  0.00  0.00    +0.014 C 
ATOM      9  C   UNL     1      34.971 -15.886 -23.756  0.00  0.00    +0.094 C 
ATOM     10  C   UNL     1      34.806 -17.741 -25.382  0.00  0.00    +0.094 C 
ATOM     11  C   UNL     1      36.175 -19.447 -21.117  0.00  0.00    +0.135 C 
ATOM     12  C   UNL     1      33.802 -19.785 -21.335  0.00  0.00    -0.008 C 
ATOM     13  C   UNL     1      36.238 -20.213 -19.968  0.00  0.00    +0.036 C 
ATOM     14  C   UNL     1      33.384 -15.740 -25.758  0.00  0.00    +0.284 C 
ATOM     15  C   UNL     1      33.844 -20.574 -20.182  0.00  0.00    -0.044 C 
ATOM     16  C   UNL     1      35.053 -20.785 -19.503  0.00  0.00    -0.003 C 
ENDROOT
BRANCH  14  18
ATOM     17  O   UNL     1      33.117 -13.635 -24.604  0.00  0.00    -0.441 OA
ATOM     18  C   UNL     1      33.414 -14.281 -25.762  0.00  0.00    +0.199 C 
ATOM     19  C   UNL     1      33.698 -13.378 -26.759  0.00  0.00    +0.046 C 
ATOM     20  C   UNL     1      33.568 -12.094 -26.177  0.00  0.00    +0.049 C 
ATOM     21  C   UNL     1      33.214 -12.304 -24.866  0.00  0.00    +0.187 C 
BRANCH  21  22
ATOM     22  C   UNL     1      32.948 -11.414 -23.801  0.00  0.00    -0.023 C 
ATOM     23  C   UNL     1      32.722 -10.657 -22.897  0.00  0.00    -0.057 C 
BRANCH  23  24
ATOM     24  C   UNL     1      32.453  -9.754 -21.820  0.00  0.00    +0.042 C 
ATOM     25  C   UNL     1      31.854 -10.222 -20.651  0.00  0.00    +0.008 C 
ATOM     26  C   UNL     1      32.790  -8.406 -21.939  0.00  0.00    +0.008 C 
ATOM     27  C   UNL     1      31.591  -9.343 -19.600  0.00  0.00    +0.001 C 
ATOM     28  C   UNL     1      32.529  -7.526 -20.889  0.00  0.00    +0.001 C 
ATOM     29  C   UNL     1      31.929  -7.994 -19.720  0.00  0.00    +0.000 C 
ENDBRANCH  23  24
ENDBRANCH  21  22
ENDBRANCH  14  18
BRANCH  15  30
ATOM     30  C   UNL     1      32.588 -21.192 -19.664  0.00  0.00    -0.059 C 
BRANCH  30  31
ATOM     31  N   UNL     1      32.852 -22.302 -18.746  0.00  0.00    +0.383 N 
ATOM     32  H   UNL     1      33.175 -21.933 -17.851  0.00  0.00    -0.089 HD
ATOM     33  H   UNL     1      33.569 -22.908 -19.143  0.00  0.00    -0.089 HD
ATOM     34  H   UNL     1      31.995 -22.836 -18.605  0.00  0.00    -0.089 HD
ENDBRANCH  30  31
ENDBRANCH  15  30
TORSDOF 5
ENDMDL
MODEL 2
REMARK VINA RESULT:     -10.3      3.874     10.987
REMARK  Name = 24180717
REMARK  5 active torsions:
REMARK  status: ('A' for Active; 'I' for Inactive)
REMARK    1  A    between atoms: C_14  and  C_18
REMARK    2  A    between atoms: C_15  and  C_30
REMARK    3  A    between atoms: C_21  and  C_22
REMARK    4  A    between atoms: C_23  and  C_24
REMARK    5  A    between atoms: C_30  and  N_31
REMARK                            x       y       z     vdW  Elec       q    Type
REMARK                         _______ _______ _______ _____ _____    ______ ____
ROOT
ATOM      1  O   UNL     1      33.631 -17.499 -25.855  0.00  0.00    -0.475 OA
ATOM      2  O   UNL     1      37.054 -19.231 -19.849  0.00  0.00    -0.267 OA
ATOM      3  N   UNL     1      35.615 -19.387 -21.657  0.00  0.00    -0.274 N 
ATOM      4  C   UNL     1      34.730 -17.473 -23.677  0.00  0.00    +0.065 C 
ATOM      5  C   UNL     1      33.759 -18.077 -22.639  0.00  0.00    +0.029 C 
ATOM      6  C   UNL     1      36.166 -17.491 -23.126  0.00  0.00    +0.029 C 
ATOM      7  C   UNL     1      34.625 -18.180 -25.052  0.00  0.00    +0.209 C 
ATOM      8  C   UNL     1      34.257 -16.122 -24.110  0.00  0.00    +0.014 C 
ATOM      9  C   UNL     1      34.219 -19.441 -22.115  0.00  0.00    +0.094 C 
ATOM     10  C   UNL     1      36.568 -18.884 -22.649  0.00  0.00    +0.094 C 
ATOM     11  C   UNL     1      33.624 -16.227 -25.342  0.00  0.00    +0.135 C 
ATOM     12  C   UNL     1      34.323 -14.901 -23.459  0.00  0.00    -0.008 C 
ATOM     13  C   UNL     1      33.031 -15.142 -25.961  0.00  0.00    +0.036 C 
ATOM     14  C   UNL     1      36.070 -19.752 -20.376  0.00  0.00    +0.284 C 
ATOM     15  C   UNL     1      33.742 -13.787 -24.072  0.00  0.00    -0.044 C 
ATOM     16  C   UNL     1      33.099 -13.908 -25.314  0.00  0.00    -0.003 C 
ENDROOT
BRANCH  14  18
ATOM     17  O   UNL     1      35.864 -21.294 -18.529  0.00  0.00    -0.441 OA
ATOM     18  C   UNL     1      35.325 -20.789 -19.669  0.00  0.00    +0.199 C 
ATOM     19  C   UNL     1      34.119 -21.391 -19.940  0.00  0.00    +0.046 C 
ATOM     20  C   UNL     1      33.903 -22.326 -18.900  0.00  0.00    +0.049 C 
ATOM     21  C   UNL     1      34.992 -22.229 -18.067  0.00  0.00    +0.187 C 
BRANCH  21  22
ATOM     22  C   UNL     1      35.335 -22.903 -16.874  0.00  0.00    -0.023 C 
ATOM     23  C   UNL     1      35.629 -23.476 -15.860  0.00  0.00    -0.057 C 
BRANCH  23  24
ATOM     24  C   UNL     1      35.979 -24.159 -14.653  0.00  0.00    +0.042 C 
ATOM     25  C   UNL     1      36.784 -25.296 -14.704  0.00  0.00    +0.008 C 
ATOM     26  C   UNL     1      35.516 -23.687 -13.424  0.00  0.00    +0.008 C 
ATOM     27  C   UNL     1      37.127 -25.963 -13.527  0.00  0.00    +0.001 C 
ATOM     28  C   UNL     1      35.858 -24.352 -12.247  0.00  0.00    +0.001 C 
ATOM     29  C   UNL     1      36.663 -25.490 -12.299  0.00  0.00    +0.000 C 
ENDBRANCH  23  24
ENDBRANCH  21  22
ENDBRANCH  14  18
BRANCH  15  30
ATOM     30  C   UNL     1      33.798 -12.458 -23.396  0.00  0.00    -0.059 C 
BRANCH  30  31
ATOM     31  N   UNL     1      34.348 -11.415 -24.265  0.00  0.00    +0.383 N 
ATOM     32  H   UNL     1      35.290 -11.677 -24.557  0.00  0.00    -0.089 HD
ATOM     33  H   UNL     1      34.384 -10.533 -23.755  0.00  0.00    -0.089 HD
ATOM     34  H   UNL     1      33.754 -11.310 -25.087  0.00  0.00    -0.089 HD
ENDBRANCH  30  31
ENDBRANCH  15  30
TORSDOF 5
ENDMDL
MODEL 3
REMARK VINA RESULT:     -10.0      4.408      6.565
REMARK  Name = 24180717
REMARK  5 active torsions:
REMARK  status: ('A' for Active; 'I' for Inactive)
REMARK    1  A    between atoms: C_14  and  C_18
REMARK    2  A    between atoms: C_15  and  C_30
REMARK    3  A    between atoms: C_21  and  C_22
REMARK    4  A    between atoms: C_23  and  C_24
REMARK    5  A    between atoms: C_30  and  N_31
REMARK                            x       y       z     vdW  Elec       q    Type
REMARK                         _______ _______ _______ _____ _____    ______ ____
ROOT
ATOM      1  O   UNL     1      33.467 -15.391 -25.860  0.00  0.00    -0.475 OA
ATOM      2  O   UNL     1      32.194  -9.811 -21.615  0.00  0.00    -0.267 OA
ATOM      3  N   UNL     1      32.783 -11.024 -23.498  0.00  0.00    -0.274 N 
ATOM      4  C   UNL     1      33.288 -13.861 -23.969  0.00  0.00    +0.065 C 
ATOM      5  C   UNL     1      34.401 -12.797 -24.103  0.00  0.00    +0.029 C 
ATOM      6  C   UNL     1      32.197 -13.363 -23.005  0.00  0.00    +0.029 C 
ATOM      7  C   UNL     1      32.707 -14.271 -25.345  0.00  0.00    +0.209 C 
ATOM      8  C   UNL     1      33.876 -15.185 -23.598  0.00  0.00    +0.014 C 
ATOM      9  C   UNL     1      33.855 -11.403 -24.429  0.00  0.00    +0.094 C 
ATOM     10  C   UNL     1      31.681 -11.984 -23.406  0.00  0.00    +0.094 C 
ATOM     11  C   UNL     1      33.965 -15.985 -24.729  0.00  0.00    +0.135 C 
ATOM     12  C   UNL     1      34.349 -15.643 -22.379  0.00  0.00    -0.008 C 
ATOM     13  C   UNL     1      34.529 -17.247 -24.698  0.00  0.00    +0.036 C 
ATOM     14  C   UNL     1      32.759  -9.859 -22.708  0.00  0.00    +0.284 C 
ATOM     15  C   UNL     1      34.910 -16.922 -22.319  0.00  0.00    -0.044 C 
ATOM     16  C   UNL     1      35.001 -17.717 -23.472  0.00  0.00    -0.003 C 
ENDROOT
BRANCH  14  18
ATOM     17  O   UNL     1      32.722  -7.810 -23.985  0.00  0.00    -0.441 OA
ATOM     18  C   UNL     1      33.442  -8.680 -23.230  0.00  0.00    +0.199 C 
ATOM     19  C   UNL     1      34.741  -8.248 -23.104  0.00  0.00    +0.046 C 
ATOM     20  C   UNL     1      34.826  -7.035 -23.828  0.00  0.00    +0.049 C 
ATOM     21  C   UNL     1      33.572  -6.811 -24.345  0.00  0.00    +0.187 C 
BRANCH  21  22
ATOM     22  C   UNL     1      33.048  -5.771 -25.145  0.00  0.00    -0.023 C 
ATOM     23  C   UNL     1      32.602  -4.887 -25.825  0.00  0.00    -0.057 C 
BRANCH  23  24
ATOM     24  C   UNL     1      32.071  -3.835 -26.636  0.00  0.00    +0.042 C 
ATOM     25  C   UNL     1      32.334  -3.810 -28.006  0.00  0.00    +0.008 C 
ATOM     26  C   UNL     1      31.288  -2.836 -26.058  0.00  0.00    +0.008 C 
ATOM     27  C   UNL     1      31.816  -2.785 -28.797  0.00  0.00    +0.001 C 
ATOM     28  C   UNL     1      30.769  -1.811 -26.849  0.00  0.00    +0.001 C 
ATOM     29  C   UNL     1      31.033  -1.786 -28.219  0.00  0.00    +0.000 C 
ENDBRANCH  23  24
ENDBRANCH  21  22
ENDBRANCH  14  18
BRANCH  15  30
ATOM     30  C   UNL     1      35.425 -17.443 -21.020  0.00  0.00    -0.059 C 
BRANCH  30  31
ATOM     31  N   UNL     1      35.449 -18.907 -20.978  0.00  0.00    +0.383 N 
ATOM     32  H   UNL     1      36.049 -19.259 -21.725  0.00  0.00    -0.089 HD
ATOM     33  H   UNL     1      34.503 -19.266 -21.104  0.00  0.00    -0.089 HD
ATOM     34  H   UNL     1      35.812 -19.215 -20.076  0.00  0.00    -0.089 HD
ENDBRANCH  30  31
ENDBRANCH  15  30
TORSDOF 5
ENDMDL
MODEL 4
REMARK VINA RESULT:      -9.5      3.311     10.135
REMARK  Name = 24180717
REMARK  5 active torsions:
REMARK  status: ('A' for Active; 'I' for Inactive)
REMARK    1  A    between atoms: C_14  and  C_18
REMARK    2  A    between atoms: C_15  and  C_30
REMARK    3  A    between atoms: C_21  and  C_22
REMARK    4  A    between atoms: C_23  and  C_24
REMARK    5  A    between atoms: C_30  and  N_31
REMARK                            x       y       z     vdW  Elec       q    Type
REMARK                         _______ _______ _______ _____ _____    ______ ____
ROOT
ATOM      1  O   UNL     1      34.034 -16.993 -25.867  0.00  0.00    -0.475 OA
ATOM      2  O   UNL     1      36.758 -19.403 -19.740  0.00  0.00    -0.267 OA
ATOM      3  N   UNL     1      35.665 -19.394 -21.782  0.00  0.00    -0.274 N 
ATOM      4  C   UNL     1      34.764 -17.257 -23.555  0.00  0.00    +0.065 C 
ATOM      5  C   UNL     1      33.772 -18.201 -22.840  0.00  0.00    +0.029 C 
ATOM      6  C   UNL     1      36.078 -17.173 -22.759  0.00  0.00    +0.029 C 
ATOM      7  C   UNL     1      35.001 -17.669 -25.029  0.00  0.00    +0.209 C 
ATOM      8  C   UNL     1      34.122 -15.932 -23.819  0.00  0.00    +0.014 C 
ATOM      9  C   UNL     1      34.390 -19.560 -22.493  0.00  0.00    +0.094 C 
ATOM     10  C   UNL     1      36.650 -18.559 -22.473  0.00  0.00    +0.094 C 
ATOM     11  C   UNL     1      33.715 -15.871 -25.146  0.00  0.00    +0.135 C 
ATOM     12  C   UNL     1      33.863 -14.876 -22.960  0.00  0.00    -0.008 C 
ATOM     13  C   UNL     1      33.035 -14.783 -25.659  0.00  0.00    +0.036 C 
ATOM     14  C   UNL     1      35.979 -19.945 -20.524  0.00  0.00    +0.284 C 
ATOM     15  C   UNL     1      33.188 -13.760 -23.460  0.00  0.00    -0.044 C 
ATOM     16  C   UNL     1      32.776 -13.715 -24.801  0.00  0.00    -0.003 C 
ENDROOT
BRANCH  14  18
ATOM     17  O   UNL     1      34.533 -21.221 -19.070  0.00  0.00    -0.441 OA
ATOM     18  C   UNL     1      35.338 -21.205 -20.165  0.00  0.00    +0.199 C 
ATOM     19  C   UNL     1      35.387 -22.451 -20.745  0.00  0.00    +0.046 C 
ATOM     20  C   UNL     1      34.560 -23.286 -19.956  0.00  0.00    +0.049 C 
ATOM     21  C   UNL     1      34.064 -22.491 -18.950  0.00  0.00    +0.187 C 
BRANCH  21  22
ATOM     22  C   UNL     1      33.193 -22.760 -17.871  0.00  0.00    -0.023 C 
ATOM     23  C   UNL     1      32.453 -22.990 -16.953  0.00  0.00    -0.057 C 
BRANCH  23  24
ATOM     24  C   UNL     1      31.571 -23.265 -15.861  0.00  0.00    +0.042 C 
ATOM     25  C   UNL     1      30.237 -23.590 -16.106  0.00  0.00    +0.008 C 
ATOM     26  C   UNL     1      32.046 -23.211 -14.550  0.00  0.00    +0.008 C 
ATOM     27  C   UNL     1      29.377 -23.858 -15.042  0.00  0.00    +0.001 C 
ATOM     28  C   UNL     1      31.186 -23.480 -13.485  0.00  0.00    +0.001 C 
ATOM     29  C   UNL     1      29.852 -23.803 -13.731  0.00  0.00    +0.000 C 
ENDBRANCH  23  24
ENDBRANCH  21  22
ENDBRANCH  14  18
BRANCH  15  30
ATOM     30  C   UNL     1      32.896 -12.607 -22.559  0.00  0.00    -0.059 C 
BRANCH  30  31
ATOM     31  N   UNL     1      31.532 -12.648 -22.027  0.00  0.00    +0.383 N 
ATOM     32  H   UNL     1      31.085 -13.522 -22.306  0.00  0.00    -0.089 HD
ATOM     33  H   UNL     1      31.000 -11.861 -22.395  0.00  0.00    -0.089 HD
ATOM     34  H   UNL     1      31.563 -12.592 -21.009  0.00  0.00    -0.089 HD
ENDBRANCH  30  31
ENDBRANCH  15  30
TORSDOF 5
ENDMDL
MODEL 5
REMARK VINA RESULT:      -9.5      3.921      6.616
REMARK  Name = 24180717
REMARK  5 active torsions:
REMARK  status: ('A' for Active; 'I' for Inactive)
REMARK    1  A    between atoms: C_14  and  C_18
REMARK    2  A    between atoms: C_15  and  C_30
REMARK    3  A    between atoms: C_21  and  C_22
REMARK    4  A    between atoms: C_23  and  C_24
REMARK    5  A    between atoms: C_30  and  N_31
REMARK                            x       y       z     vdW  Elec       q    Type
REMARK                         _______ _______ _______ _____ _____    ______ ____
ROOT
ATOM      1  O   UNL     1      33.235 -14.571 -25.664  0.00  0.00    -0.475 OA
ATOM      2  O   UNL     1      31.356 -10.543 -20.094  0.00  0.00    -0.267 OA
ATOM      3  N   UNL     1      32.022 -11.123 -22.235  0.00  0.00    -0.274 N 
ATOM      4  C   UNL     1      32.926 -13.625 -23.437  0.00  0.00    +0.065 C 
ATOM      5  C   UNL     1      33.856 -12.400 -23.300  0.00  0.00    +0.029 C 
ATOM      6  C   UNL     1      31.824 -13.572 -22.365  0.00  0.00    +0.029 C 
ATOM      7  C   UNL     1      32.343 -13.757 -24.865  0.00  0.00    +0.209 C 
ATOM      8  C   UNL     1      33.726 -14.889 -23.431  0.00  0.00    +0.014 C 
ATOM      9  C   UNL     1      33.090 -11.074 -23.245  0.00  0.00    +0.094 C 
ATOM     10  C   UNL     1      31.085 -12.237 -22.385  0.00  0.00    +0.094 C 
ATOM     11  C   UNL     1      33.876 -15.348 -24.733  0.00  0.00    +0.135 C 
ATOM     12  C   UNL     1      34.325 -15.563 -22.379  0.00  0.00    -0.008 C 
ATOM     13  C   UNL     1      34.624 -16.469 -25.038  0.00  0.00    +0.036 C 
ATOM     14  C   UNL     1      31.864 -10.218 -21.168  0.00  0.00    +0.284 C 
ATOM     15  C   UNL     1      35.076 -16.708 -22.662  0.00  0.00    -0.044 C 
ATOM     16  C   UNL     1      35.225 -17.156 -23.983  0.00  0.00    -0.003 C 
ENDROOT
BRANCH  14  18
ATOM     17  O   UNL     1      32.182  -8.304 -22.606  0.00  0.00    -0.441 OA
ATOM     18  C   UNL     1      32.333  -8.851 -21.372  0.00  0.00    +0.199 C 
ATOM     19  C   UNL     1      32.929  -7.955 -20.516  0.00  0.00    +0.046 C 
ATOM     20  C   UNL     1      33.161  -6.782 -21.274  0.00  0.00    +0.049 C 
ATOM     21  C   UNL     1      32.689  -7.044 -22.538  0.00  0.00    +0.187 C 
BRANCH  21  22
ATOM     22  C   UNL     1      32.645  -6.263 -23.714  0.00  0.00    -0.023 C 
ATOM     23  C   UNL     1      32.608  -5.599 -24.714  0.00  0.00    -0.057 C 
BRANCH  23  24
ATOM     24  C   UNL     1      32.564  -4.807 -25.905  0.00  0.00    +0.042 C 
ATOM     25  C   UNL     1      31.711  -3.706 -25.978  0.00  0.00    +0.008 C 
ATOM     26  C   UNL     1      33.375  -5.134 -26.992  0.00  0.00    +0.008 C 
ATOM     27  C   UNL     1      31.668  -2.932 -27.138  0.00  0.00    +0.001 C 
ATOM     28  C   UNL     1      33.332  -4.361 -28.152  0.00  0.00    +0.001 C 
ATOM     29  C   UNL     1      32.479  -3.260 -28.225  0.00  0.00    +0.000 C 
ENDBRANCH  23  24
ENDBRANCH  21  22
ENDBRANCH  14  18
BRANCH  15  30
ATOM     30  C   UNL     1      35.731 -17.455 -21.550  0.00  0.00    -0.059 C 
BRANCH  30  31
ATOM     31  N   UNL     1      34.831 -18.428 -20.927  0.00  0.00    +0.383 N 
ATOM     32  H   UNL     1      35.368 -19.240 -20.619  0.00  0.00    -0.089 HD
ATOM     33  H   UNL     1      34.128 -18.722 -21.604  0.00  0.00    -0.089 HD
ATOM     34  H   UNL     1      34.372 -18.000 -20.123  0.00  0.00    -0.089 HD
ENDBRANCH  30  31
ENDBRANCH  15  30
TORSDOF 5
ENDMDL
MODEL 6
REMARK VINA RESULT:      -9.1      2.443      9.895
REMARK  Name = 24180717
REMARK  5 active torsions:
REMARK  status: ('A' for Active; 'I' for Inactive)
REMARK    1  A    between atoms: C_14  and  C_18
REMARK    2  A    between atoms: C_15  and  C_30
REMARK    3  A    between atoms: C_21  and  C_22
REMARK    4  A    between atoms: C_23  and  C_24
REMARK    5  A    between atoms: C_30  and  N_31
REMARK                            x       y       z     vdW  Elec       q    Type
REMARK                         _______ _______ _______ _____ _____    ______ ____
ROOT
ATOM      1  O   UNL     1      31.949 -12.279 -21.914  0.00  0.00    -0.475 OA
ATOM      2  O   UNL     1      35.358 -17.804 -24.851  0.00  0.00    -0.267 OA
ATOM      3  N   UNL     1      34.331 -16.480 -23.251  0.00  0.00    -0.274 N 
ATOM      4  C   UNL     1      33.407 -13.711 -23.246  0.00  0.00    +0.065 C 
ATOM      5  C   UNL     1      34.567 -14.189 -22.346  0.00  0.00    +0.029 C 
ATOM      6  C   UNL     1      33.290 -14.620 -24.482  0.00  0.00    +0.029 C 
ATOM      7  C   UNL     1      32.071 -13.611 -22.469  0.00  0.00    +0.209 C 
ATOM      8  C   UNL     1      33.561 -12.258 -23.567  0.00  0.00    +0.014 C 
ATOM      9  C   UNL     1      34.495 -15.685 -22.026  0.00  0.00    +0.094 C 
ATOM     10  C   UNL     1      33.195 -16.092 -24.088  0.00  0.00    +0.094 C 
ATOM     11  C   UNL     1      32.718 -11.513 -22.753  0.00  0.00    +0.135 C 
ATOM     12  C   UNL     1      34.408 -11.625 -24.462  0.00  0.00    -0.008 C 
ATOM     13  C   UNL     1      32.692 -10.131 -22.786  0.00  0.00    +0.036 C 
ATOM     14  C   UNL     1      35.174 -17.530 -23.664  0.00  0.00    +0.284 C 
ATOM     15  C   UNL     1      34.390 -10.229 -24.524  0.00  0.00    -0.044 C 
ATOM     16  C   UNL     1      33.538  -9.488 -23.689  0.00  0.00    -0.003 C 
ENDROOT
BRANCH  14  18
ATOM     17  O   UNL     1      35.074 -19.067 -21.803  0.00  0.00    -0.441 OA
ATOM     18  C   UNL     1      35.843 -18.303 -22.622  0.00  0.00    +0.199 C 
ATOM     19  C   UNL     1      37.170 -18.420 -22.285  0.00  0.00    +0.046 C 
ATOM     20  C   UNL     1      37.221 -19.313 -21.188  0.00  0.00    +0.049 C 
ATOM     21  C   UNL     1      35.920 -19.678 -20.933  0.00  0.00    +0.187 C 
BRANCH  21  22
ATOM     22  C   UNL     1      35.349 -20.538 -19.969  0.00  0.00    -0.023 C 
ATOM     23  C   UNL     1      34.862 -21.269 -19.149  0.00  0.00    -0.057 C 
BRANCH  23  24
ATOM     24  C   UNL     1      34.282 -22.138 -18.172  0.00  0.00    +0.042 C 
ATOM     25  C   UNL     1      35.085 -22.717 -17.190  0.00  0.00    +0.008 C 
ATOM     26  C   UNL     1      32.913 -22.406 -18.201  0.00  0.00    +0.008 C 
ATOM     27  C   UNL     1      34.520 -23.565 -16.237  0.00  0.00    +0.001 C 
ATOM     28  C   UNL     1      32.347 -23.253 -17.249  0.00  0.00    +0.001 C 
ATOM     29  C   UNL     1      33.151 -23.832 -16.266  0.00  0.00    +0.000 C 
ENDBRANCH  23  24
ENDBRANCH  21  22
ENDBRANCH  14  18
BRANCH  15  30
ATOM     30  C   UNL     1      35.290  -9.519 -25.479  0.00  0.00    -0.059 C 
BRANCH  30  31
ATOM     31  N   UNL     1      35.736 -10.386 -26.571  0.00  0.00    +0.383 N 
ATOM     32  H   UNL     1      35.369 -10.035 -27.456  0.00  0.00    -0.089 HD
ATOM     33  H   UNL     1      35.394 -11.334 -26.414  0.00  0.00    -0.089 HD
ATOM     34  H   UNL     1      36.755 -10.393 -26.605  0.00  0.00    -0.089 HD
ENDBRANCH  30  31
ENDBRANCH  15  30
TORSDOF 5
ENDMDL
MODEL 7
REMARK VINA RESULT:      -8.5      2.594      9.841
REMARK  Name = 24180717
REMARK  5 active torsions:
REMARK  status: ('A' for Active; 'I' for Inactive)
REMARK    1  A    between atoms: C_14  and  C_18
REMARK    2  A    between atoms: C_15  and  C_30
REMARK    3  A    between atoms: C_21  and  C_22
REMARK    4  A    between atoms: C_23  and  C_24
REMARK    5  A    between atoms: C_30  and  N_31
REMARK                            x       y       z     vdW  Elec       q    Type
REMARK                         _______ _______ _______ _____ _____    ______ ____
ROOT
ATOM      1  O   UNL     1      31.445 -11.877 -21.728  0.00  0.00    -0.475 OA
ATOM      2  O   UNL     1      35.156 -16.841 -25.244  0.00  0.00    -0.267 OA
ATOM      3  N   UNL     1      34.009 -15.788 -23.529  0.00  0.00    -0.274 N 
ATOM      4  C   UNL     1      33.011 -13.068 -23.170  0.00  0.00    +0.065 C 
ATOM      5  C   UNL     1      34.134 -13.652 -22.284  0.00  0.00    +0.029 C 
ATOM      6  C   UNL     1      32.987 -13.785 -24.530  0.00  0.00    +0.029 C 
ATOM      7  C   UNL     1      31.633 -13.109 -22.465  0.00  0.00    +0.209 C 
ATOM      8  C   UNL     1      33.144 -11.581 -23.264  0.00  0.00    +0.014 C 
ATOM      9  C   UNL     1      34.085 -15.181 -22.193  0.00  0.00    +0.094 C 
ATOM     10  C   UNL     1      32.910 -15.301 -24.364  0.00  0.00    +0.094 C 
ATOM     11  C   UNL     1      32.238 -10.981 -22.399  0.00  0.00    +0.135 C 
ATOM     12  C   UNL     1      34.021 -10.806 -24.006  0.00  0.00    -0.008 C 
ATOM     13  C   UNL     1      32.177  -9.610 -22.230  0.00  0.00    +0.036 C 
ATOM     14  C   UNL     1      34.901 -16.749 -24.043  0.00  0.00    +0.284 C 
ATOM     15  C   UNL     1      33.968  -9.417 -23.862  0.00  0.00    -0.044 C 
ATOM     16  C   UNL     1      33.053  -8.824 -22.978  0.00  0.00    -0.003 C 
ENDROOT
BRANCH  14  18
ATOM     17  O   UNL     1      34.726 -18.406 -22.295  0.00  0.00    -0.441 OA
ATOM     18  C   UNL     1      35.533 -17.656 -23.089  0.00  0.00    +0.199 C 
ATOM     19  C   UNL     1      36.855 -17.917 -22.819  0.00  0.00    +0.046 C 
ATOM     20  C   UNL     1      36.862 -18.891 -21.792  0.00  0.00    +0.049 C 
ATOM     21  C   UNL     1      35.544 -19.156 -21.508  0.00  0.00    +0.187 C 
BRANCH  21  22
ATOM     22  C   UNL     1      34.930 -20.031 -20.584  0.00  0.00    -0.023 C 
ATOM     23  C   UNL     1      34.409 -20.774 -19.798  0.00  0.00    -0.057 C 
BRANCH  23  24
ATOM     24  C   UNL     1      33.788 -21.660 -18.861  0.00  0.00    +0.042 C 
ATOM     25  C   UNL     1      32.412 -21.594 -18.646  0.00  0.00    +0.008 C 
ATOM     26  C   UNL     1      34.560 -22.590 -18.164  0.00  0.00    +0.008 C 
ATOM     27  C   UNL     1      31.806 -22.458 -17.733  0.00  0.00    +0.001 C 
ATOM     28  C   UNL     1      33.955 -23.454 -17.251  0.00  0.00    +0.001 C 
ATOM     29  C   UNL     1      32.578 -23.388 -17.036  0.00  0.00    +0.000 C 
ENDBRANCH  23  24
ENDBRANCH  21  22
ENDBRANCH  14  18
BRANCH  15  30
ATOM     30  C   UNL     1      34.899  -8.557 -24.648  0.00  0.00    -0.059 C 
BRANCH  30  31
ATOM     31  N   UNL     1      34.773  -7.139 -24.303  0.00  0.00    +0.383 N 
ATOM     32  H   UNL     1      34.100  -6.696 -24.929  0.00  0.00    -0.089 HD
ATOM     33  H   UNL     1      35.680  -6.684 -24.401  0.00  0.00    -0.089 HD
ATOM     34  H   UNL     1      34.451  -7.052 -23.340  0.00  0.00    -0.089 HD
ENDBRANCH  30  31
ENDBRANCH  15  30
TORSDOF 5
ENDMDL
MODEL 8
REMARK VINA RESULT:      -8.2      3.709     10.616
REMARK  Name = 24180717
REMARK  5 active torsions:
REMARK  status: ('A' for Active; 'I' for Inactive)
REMARK    1  A    between atoms: C_14  and  C_18
REMARK    2  A    between atoms: C_15  and  C_30
REMARK    3  A    between atoms: C_21  and  C_22
REMARK    4  A    between atoms: C_23  and  C_24
REMARK    5  A    between atoms: C_30  and  N_31
REMARK                            x       y       z     vdW  Elec       q    Type
REMARK                         _______ _______ _______ _____ _____    ______ ____
ROOT
ATOM      1  O   UNL     1      34.349 -13.233 -21.700  0.00  0.00    -0.475 OA
ATOM      2  O   UNL     1      32.828 -20.175 -21.176  0.00  0.00    -0.267 OA
ATOM      3  N   UNL     1      33.907 -18.152 -20.847  0.00  0.00    -0.274 N 
ATOM      4  C   UNL     1      33.690 -15.541 -22.136  0.00  0.00    +0.065 C 
ATOM      5  C   UNL     1      34.972 -16.398 -22.233  0.00  0.00    +0.029 C 
ATOM      6  C   UNL     1      32.471 -16.444 -21.885  0.00  0.00    +0.029 C 
ATOM      7  C   UNL     1      33.817 -14.424 -21.071  0.00  0.00    +0.209 C 
ATOM      8  C   UNL     1      33.563 -14.659 -23.337  0.00  0.00    +0.014 C 
ATOM      9  C   UNL     1      35.131 -17.365 -21.055  0.00  0.00    +0.094 C 
ATOM     10  C   UNL     1      32.687 -17.359 -20.682  0.00  0.00    +0.094 C 
ATOM     11  C   UNL     1      33.978 -13.373 -23.013  0.00  0.00    +0.135 C 
ATOM     12  C   UNL     1      33.166 -14.960 -24.630  0.00  0.00    -0.008 C 
ATOM     13  C   UNL     1      34.026 -12.356 -23.948  0.00  0.00    +0.036 C 
ATOM     14  C   UNL     1      33.833 -19.558 -20.820  0.00  0.00    +0.284 C 
ATOM     15  C   UNL     1      33.193 -13.944 -25.589  0.00  0.00    -0.044 C 
ATOM     16  C   UNL     1      33.622 -12.651 -25.250  0.00  0.00    -0.003 C 
ENDROOT
BRANCH  14  18
ATOM     17  O   UNL     1      34.976 -20.806 -19.098  0.00  0.00    -0.441 OA
ATOM     18  C   UNL     1      35.009 -20.283 -20.351  0.00  0.00    +0.199 C 
ATOM     19  C   UNL     1      36.212 -20.559 -20.958  0.00  0.00    +0.046 C 
ATOM     20  C   UNL     1      36.967 -21.299 -20.017  0.00  0.00    +0.049 C 
ATOM     21  C   UNL     1      36.172 -21.423 -18.902  0.00  0.00    +0.187 C 
BRANCH  21  22
ATOM     22  C   UNL     1      36.380 -22.051 -17.654  0.00  0.00    -0.023 C 
ATOM     23  C   UNL     1      36.557 -22.585 -16.593  0.00  0.00    -0.057 C 
BRANCH  23  24
ATOM     24  C   UNL     1      36.768 -23.220 -15.328  0.00  0.00    +0.042 C 
ATOM     25  C   UNL     1      35.810 -23.105 -14.322  0.00  0.00    +0.008 C 
ATOM     26  C   UNL     1      37.931 -23.957 -15.103  0.00  0.00    +0.008 C 
ATOM     27  C   UNL     1      36.015 -23.724 -13.088  0.00  0.00    +0.001 C 
ATOM     28  C   UNL     1      38.137 -24.576 -13.870  0.00  0.00    +0.001 C 
ATOM     29  C   UNL     1      37.179 -24.459 -12.863  0.00  0.00    +0.000 C 
ENDBRANCH  23  24
ENDBRANCH  21  22
ENDBRANCH  14  18
BRANCH  15  30
ATOM     30  C   UNL     1      32.770 -14.238 -26.989  0.00  0.00    -0.059 C 
BRANCH  30  31
ATOM     31  N   UNL     1      32.357 -13.032 -27.711  0.00  0.00    +0.383 N 
ATOM     32  H   UNL     1      31.621 -13.269 -28.376  0.00  0.00    -0.089 HD
ATOM     33  H   UNL     1      33.157 -12.646 -28.212  0.00  0.00    -0.089 HD
ATOM     34  H   UNL     1      32.006 -12.342 -27.047  0.00  0.00    -0.089 HD
ENDBRANCH  30  31
ENDBRANCH  15  30
TORSDOF 5
ENDMDL
