MODEL 1
REMARK VINA RESULT:      -9.2      0.000      0.000
REMARK  Name = 3965
REMARK  5 active torsions:
REMARK  status: ('A' for Active; 'I' for Inactive)
REMARK    1  A    between atoms: C_1  and  C_13
REMARK    2  A    between atoms: C_4  and  C_7
REMARK    3  A    between atoms: C_7  and  C_10
REMARK    4  A    between atoms: C_10  and  O_11
REMARK    5  A    between atoms: C_13  and  C_15
REMARK                            x       y       z     vdW  Elec       q    Type
REMARK                         _______ _______ _______ _____ _____    ______ ____
ROOT
ATOM      1  C   UNL     1      34.183 -21.777 -19.466  0.00  0.00    -0.022 C 
ATOM      2  C   UNL     1      35.542 -21.572 -19.646  0.00  0.00    -0.005 C 
ATOM      3  C   UNL     1      33.249 -20.890 -19.979  0.00  0.00    -0.005 C 
ATOM      4  C   UNL     1      35.050 -19.554 -20.880  0.00  0.00    -0.012 C 
ATOM      5  C   UNL     1      35.978 -20.455 -20.358  0.00  0.00    -0.004 C 
ATOM      6  C   UNL     1      33.685 -19.772 -20.690  0.00  0.00    -0.004 C 
ENDROOT
BRANCH   4   7
ATOM      7  C   UNL     1      35.516 -18.360 -21.641  0.00  0.00    +0.121 C 
ATOM      8  C   UNL     1      34.874 -17.038 -21.175  0.00  0.00    +0.016 C 
BRANCH   7  10
ATOM      9  O   UNL     1      34.948 -19.540 -23.703  0.00  0.00    -0.250 OA
ATOM     10  C   UNL     1      35.310 -18.508 -23.153  0.00  0.00    +0.317 C 
BRANCH  10  11
ATOM     11  O   UNL     1      35.580 -17.368 -23.843  0.00  0.00    -0.480 OA
ATOM     12  H   UNL     1      35.239 -16.547 -23.543  0.00  0.00    +0.295 HD
ENDBRANCH  10  11
ENDBRANCH   7  10
ENDBRANCH   4   7
BRANCH   1  13
ATOM     13  C   UNL     1      33.712 -22.985 -18.697  0.00  0.00    +0.034 C 
BRANCH  13  15
ATOM     14  O   UNL     1      35.651 -23.283 -16.472  0.00  0.00    -0.296 OA
ATOM     15  C   UNL     1      33.434 -22.660 -17.243  0.00  0.00    +0.062 C 
ATOM     16  C   UNL     1      32.127 -23.270 -16.733  0.00  0.00    +0.008 C 
ATOM     17  C   UNL     1      32.341 -23.407 -15.232  0.00  0.00    +0.008 C 
ATOM     18  C   UNL     1      33.772 -23.911 -15.097  0.00  0.00    +0.065 C 
ATOM     19  C   UNL     1      34.439 -23.283 -16.294  0.00  0.00    +0.151 C 
ENDBRANCH  13  15
ENDBRANCH   1  13
TORSDOF 5
ENDMDL
MODEL 2
REMARK VINA RESULT:      -9.0      1.419      1.970
REMARK  Name = 3965
REMARK  5 active torsions:
REMARK  status: ('A' for Active; 'I' for Inactive)
REMARK    1  A    between atoms: C_1  and  C_13
REMARK    2  A    between atoms: C_4  and  C_7
REMARK    3  A    between atoms: C_7  and  C_10
REMARK    4  A    between atoms: C_10  and  O_11
REMARK    5  A    between atoms: C_13  and  C_15
REMARK                            x       y       z     vdW  Elec       q    Type
REMARK                         _______ _______ _______ _____ _____    ______ ____
ROOT
ATOM      1  C   UNL     1      34.075 -21.818 -19.442  0.00  0.00    -0.022 C 
ATOM      2  C   UNL     1      32.951 -21.099 -19.817  0.00  0.00    -0.005 C 
ATOM      3  C   UNL     1      35.344 -21.427 -19.842  0.00  0.00    -0.005 C 
ATOM      4  C   UNL     1      34.369 -19.556 -21.020  0.00  0.00    -0.012 C 
ATOM      5  C   UNL     1      33.099 -19.961 -20.611  0.00  0.00    -0.004 C 
ATOM      6  C   UNL     1      35.492 -20.290 -20.636  0.00  0.00    -0.004 C 
ENDROOT
BRANCH   4   7
ATOM      7  C   UNL     1      34.527 -18.340 -21.868  0.00  0.00    +0.121 C 
ATOM      8  C   UNL     1      35.898 -18.246 -22.569  0.00  0.00    +0.016 C 
BRANCH   7  10
ATOM      9  O   UNL     1      33.248 -16.381 -21.167  0.00  0.00    -0.250 OA
ATOM     10  C   UNL     1      34.274 -17.044 -21.091  0.00  0.00    +0.317 C 
BRANCH  10  11
ATOM     11  O   UNL     1      35.320 -16.682 -20.300  0.00  0.00    -0.480 OA
ATOM     12  H   UNL     1      36.071 -16.269 -20.678  0.00  0.00    +0.295 HD
ENDBRANCH  10  11
ENDBRANCH   7  10
ENDBRANCH   4   7
BRANCH   1  13
ATOM     13  C   UNL     1      33.915 -23.047 -18.584  0.00  0.00    +0.034 C 
BRANCH  13  15
ATOM     14  O   UNL     1      35.698 -23.413 -16.242  0.00  0.00    -0.296 OA
ATOM     15  C   UNL     1      33.564 -22.699 -17.152  0.00  0.00    +0.062 C 
ATOM     16  C   UNL     1      32.202 -23.246 -16.722  0.00  0.00    +0.008 C 
ATOM     17  C   UNL     1      32.315 -23.381 -15.209  0.00  0.00    +0.008 C 
ATOM     18  C   UNL     1      33.712 -23.946 -14.983  0.00  0.00    +0.065 C 
ATOM     19  C   UNL     1      34.479 -23.359 -16.140  0.00  0.00    +0.151 C 
ENDBRANCH  13  15
ENDBRANCH   1  13
TORSDOF 5
ENDMDL
MODEL 3
REMARK VINA RESULT:      -8.9      1.025      7.137
REMARK  Name = 3965
REMARK  5 active torsions:
REMARK  status: ('A' for Active; 'I' for Inactive)
REMARK    1  A    between atoms: C_1  and  C_13
REMARK    2  A    between atoms: C_4  and  C_7
REMARK    3  A    between atoms: C_7  and  C_10
REMARK    4  A    between atoms: C_10  and  O_11
REMARK    5  A    between atoms: C_13  and  C_15
REMARK                            x       y       z     vdW  Elec       q    Type
REMARK                         _______ _______ _______ _____ _____    ______ ____
ROOT
ATOM      1  C   UNL     1      35.118 -20.583 -20.178  0.00  0.00    -0.022 C 
ATOM      2  C   UNL     1      33.744 -20.766 -20.141  0.00  0.00    -0.005 C 
ATOM      3  C   UNL     1      35.957 -21.272 -19.316  0.00  0.00    -0.005 C 
ATOM      4  C   UNL     1      34.030 -22.360 -18.348  0.00  0.00    -0.012 C 
ATOM      5  C   UNL     1      33.197 -21.660 -19.222  0.00  0.00    -0.004 C 
ATOM      6  C   UNL     1      35.410 -22.165 -18.396  0.00  0.00    -0.004 C 
ENDROOT
BRANCH   4   7
ATOM      7  C   UNL     1      33.445 -23.316 -17.365  0.00  0.00    +0.121 C 
ATOM      8  C   UNL     1      32.036 -22.920 -16.877  0.00  0.00    +0.016 C 
BRANCH   7  10
ATOM      9  O   UNL     1      35.298 -24.310 -16.123  0.00  0.00    -0.250 OA
ATOM     10  C   UNL     1      34.350 -23.536 -16.148  0.00  0.00    +0.317 C 
BRANCH  10  11
ATOM     11  O   UNL     1      33.991 -22.785 -15.073  0.00  0.00    -0.480 OA
ATOM     12  H   UNL     1      34.547 -22.751 -14.319  0.00  0.00    +0.295 HD
ENDBRANCH  10  11
ENDBRANCH   7  10
ENDBRANCH   4   7
BRANCH   1  13
ATOM     13  C   UNL     1      35.710 -19.616 -21.173  0.00  0.00    +0.034 C 
BRANCH  13  15
ATOM     14  O   UNL     1      34.928 -19.092 -23.985  0.00  0.00    -0.296 OA
ATOM     15  C   UNL     1      34.703 -18.577 -21.623  0.00  0.00    +0.062 C 
ATOM     16  C   UNL     1      34.944 -17.201 -21.000  0.00  0.00    +0.008 C 
ATOM     17  C   UNL     1      34.330 -16.228 -21.998  0.00  0.00    +0.008 C 
ATOM     18  C   UNL     1      34.742 -16.771 -23.360  0.00  0.00    +0.065 C 
ATOM     19  C   UNL     1      34.806 -18.254 -23.101  0.00  0.00    +0.151 C 
ENDBRANCH  13  15
ENDBRANCH   1  13
TORSDOF 5
ENDMDL
MODEL 4
REMARK VINA RESULT:      -8.9      2.359      7.253
REMARK  Name = 3965
REMARK  5 active torsions:
REMARK  status: ('A' for Active; 'I' for Inactive)
REMARK    1  A    between atoms: C_1  and  C_13
REMARK    2  A    between atoms: C_4  and  C_7
REMARK    3  A    between atoms: C_7  and  C_10
REMARK    4  A    between atoms: C_10  and  O_11
REMARK    5  A    between atoms: C_13  and  C_15
REMARK                            x       y       z     vdW  Elec       q    Type
REMARK                         _______ _______ _______ _____ _____    ______ ____
ROOT
ATOM      1  C   UNL     1      35.128 -18.259 -21.510  0.00  0.00    -0.022 C 
ATOM      2  C   UNL     1      36.377 -18.755 -21.167  0.00  0.00    -0.005 C 
ATOM      3  C   UNL     1      33.969 -18.946 -21.184  0.00  0.00    -0.005 C 
ATOM      4  C   UNL     1      35.310 -20.667 -20.146  0.00  0.00    -0.012 C 
ATOM      5  C   UNL     1      36.468 -19.965 -20.481  0.00  0.00    -0.004 C 
ATOM      6  C   UNL     1      34.060 -20.157 -20.498  0.00  0.00    -0.004 C 
ENDROOT
BRANCH   4   7
ATOM      7  C   UNL     1      35.408 -21.961 -19.412  0.00  0.00    +0.121 C 
ATOM      8  C   UNL     1      34.051 -22.666 -19.214  0.00  0.00    +0.016 C 
BRANCH   7  10
ATOM      9  O   UNL     1      36.902 -20.935 -17.774  0.00  0.00    -0.250 OA
ATOM     10  C   UNL     1      36.096 -21.815 -18.050  0.00  0.00    +0.317 C 
BRANCH  10  11
ATOM     11  O   UNL     1      35.731 -22.776 -17.161  0.00  0.00    -0.480 OA
ATOM     12  H   UNL     1      35.555 -23.647 -17.460  0.00  0.00    +0.295 HD
ENDBRANCH  10  11
ENDBRANCH   7  10
ENDBRANCH   4   7
BRANCH   1  13
ATOM     13  C   UNL     1      35.030 -16.950 -22.253  0.00  0.00    +0.034 C 
BRANCH  13  15
ATOM     14  O   UNL     1      33.428 -15.289 -24.116  0.00  0.00    -0.296 OA
ATOM     15  C   UNL     1      33.776 -16.182 -21.886  0.00  0.00    +0.062 C 
ATOM     16  C   UNL     1      33.942 -15.338 -20.621  0.00  0.00    +0.008 C 
ATOM     17  C   UNL     1      32.921 -14.220 -20.783  0.00  0.00    +0.008 C 
ATOM     18  C   UNL     1      33.029 -13.817 -22.248  0.00  0.00    +0.065 C 
ATOM     19  C   UNL     1      33.413 -15.119 -22.904  0.00  0.00    +0.151 C 
ENDBRANCH  13  15
ENDBRANCH   1  13
TORSDOF 5
ENDMDL
MODEL 5
REMARK VINA RESULT:      -8.8      3.593      6.197
REMARK  Name = 3965
REMARK  5 active torsions:
REMARK  status: ('A' for Active; 'I' for Inactive)
REMARK    1  A    between atoms: C_1  and  C_13
REMARK    2  A    between atoms: C_4  and  C_7
REMARK    3  A    between atoms: C_7  and  C_10
REMARK    4  A    between atoms: C_10  and  O_11
REMARK    5  A    between atoms: C_13  and  C_15
REMARK                            x       y       z     vdW  Elec       q    Type
REMARK                         _______ _______ _______ _____ _____    ______ ____
ROOT
ATOM      1  C   UNL     1      35.004 -17.168 -23.287  0.00  0.00    -0.022 C 
ATOM      2  C   UNL     1      34.572 -17.190 -24.604  0.00  0.00    -0.005 C 
ATOM      3  C   UNL     1      34.818 -16.049 -22.490  0.00  0.00    -0.005 C 
ATOM      4  C   UNL     1      33.745 -14.935 -24.346  0.00  0.00    -0.012 C 
ATOM      5  C   UNL     1      33.939 -16.068 -25.137  0.00  0.00    -0.004 C 
ATOM      6  C   UNL     1      34.186 -14.926 -23.022  0.00  0.00    -0.004 C 
ENDROOT
BRANCH   4   7
ATOM      7  C   UNL     1      33.069 -13.735 -24.915  0.00  0.00    +0.121 C 
ATOM      8  C   UNL     1      33.315 -13.541 -26.425  0.00  0.00    +0.016 C 
BRANCH   7  10
ATOM      9  O   UNL     1      32.806 -11.967 -23.250  0.00  0.00    -0.250 OA
ATOM     10  C   UNL     1      33.445 -12.443 -24.180  0.00  0.00    +0.317 C 
BRANCH  10  11
ATOM     11  O   UNL     1      34.569 -11.857 -24.670  0.00  0.00    -0.480 OA
ATOM     12  H   UNL     1      34.671 -10.926 -24.621  0.00  0.00    +0.295 HD
ENDBRANCH  10  11
ENDBRANCH   7  10
ENDBRANCH   4   7
BRANCH   1  13
ATOM     13  C   UNL     1      35.688 -18.382 -22.711  0.00  0.00    +0.034 C 
BRANCH  13  15
ATOM     14  O   UNL     1      37.170 -19.694 -20.502  0.00  0.00    -0.296 OA
ATOM     15  C   UNL     1      35.094 -18.791 -21.379  0.00  0.00    +0.062 C 
ATOM     16  C   UNL     1      33.789 -19.577 -21.522  0.00  0.00    +0.008 C 
ATOM     17  C   UNL     1      33.716 -20.412 -20.250  0.00  0.00    +0.008 C 
ATOM     18  C   UNL     1      35.140 -20.911 -20.042  0.00  0.00    +0.065 C 
ATOM     19  C   UNL     1      35.955 -19.785 -20.625  0.00  0.00    +0.151 C 
ENDBRANCH  13  15
ENDBRANCH   1  13
TORSDOF 5
ENDMDL
MODEL 6
REMARK VINA RESULT:      -8.8      3.112      8.279
REMARK  Name = 3965
REMARK  5 active torsions:
REMARK  status: ('A' for Active; 'I' for Inactive)
REMARK    1  A    between atoms: C_1  and  C_13
REMARK    2  A    between atoms: C_4  and  C_7
REMARK    3  A    between atoms: C_7  and  C_10
REMARK    4  A    between atoms: C_10  and  O_11
REMARK    5  A    between atoms: C_13  and  C_15
REMARK                            x       y       z     vdW  Elec       q    Type
REMARK                         _______ _______ _______ _____ _____    ______ ____
ROOT
ATOM      1  C   UNL     1      34.973 -17.557 -23.247  0.00  0.00    -0.022 C 
ATOM      2  C   UNL     1      35.254 -17.140 -21.955  0.00  0.00    -0.005 C 
ATOM      3  C   UNL     1      34.678 -18.882 -23.525  0.00  0.00    -0.005 C 
ATOM      4  C   UNL     1      34.944 -19.408 -21.182  0.00  0.00    -0.012 C 
ATOM      5  C   UNL     1      35.239 -18.071 -20.916  0.00  0.00    -0.004 C 
ATOM      6  C   UNL     1      34.664 -19.813 -22.487  0.00  0.00    -0.004 C 
ENDROOT
BRANCH   4   7
ATOM      7  C   UNL     1      34.928 -20.403 -20.073  0.00  0.00    +0.121 C 
ATOM      8  C   UNL     1      35.960 -21.537 -20.241  0.00  0.00    +0.016 C 
BRANCH   7  10
ATOM      9  O   UNL     1      32.498 -20.382 -19.830  0.00  0.00    -0.250 OA
ATOM     10  C   UNL     1      33.542 -21.020 -19.855  0.00  0.00    +0.317 C 
BRANCH  10  11
ATOM     11  O   UNL     1      33.578 -22.368 -19.679  0.00  0.00    -0.480 OA
ATOM     12  H   UNL     1      33.592 -22.726 -18.813  0.00  0.00    +0.295 HD
ENDBRANCH  10  11
ENDBRANCH   7  10
ENDBRANCH   4   7
BRANCH   1  13
ATOM     13  C   UNL     1      34.989 -16.550 -24.369  0.00  0.00    +0.034 C 
BRANCH  13  15
ATOM     14  O   UNL     1      33.248 -15.789 -26.647  0.00  0.00    -0.296 OA
ATOM     15  C   UNL     1      33.814 -15.596 -24.294  0.00  0.00    +0.062 C 
ATOM     16  C   UNL     1      34.152 -14.286 -23.580  0.00  0.00    +0.008 C 
ATOM     17  C   UNL     1      33.161 -13.283 -24.153  0.00  0.00    +0.008 C 
ATOM     18  C   UNL     1      33.117 -13.601 -25.642  0.00  0.00    +0.065 C 
ATOM     19  C   UNL     1      33.376 -15.086 -25.653  0.00  0.00    +0.151 C 
ENDBRANCH  13  15
ENDBRANCH   1  13
TORSDOF 5
ENDMDL
MODEL 7
REMARK VINA RESULT:      -8.7      2.946      5.099
REMARK  Name = 3965
REMARK  5 active torsions:
REMARK  status: ('A' for Active; 'I' for Inactive)
REMARK    1  A    between atoms: C_1  and  C_13
REMARK    2  A    between atoms: C_4  and  C_7
REMARK    3  A    between atoms: C_7  and  C_10
REMARK    4  A    between atoms: C_10  and  O_11
REMARK    5  A    between atoms: C_13  and  C_15
REMARK                            x       y       z     vdW  Elec       q    Type
REMARK                         _______ _______ _______ _____ _____    ______ ____
ROOT
ATOM      1  C   UNL     1      35.125 -18.133 -22.833  0.00  0.00    -0.022 C 
ATOM      2  C   UNL     1      34.862 -16.971 -22.124  0.00  0.00    -0.005 C 
ATOM      3  C   UNL     1      34.965 -18.186 -24.209  0.00  0.00    -0.005 C 
ATOM      4  C   UNL     1      34.263 -15.874 -24.191  0.00  0.00    -0.012 C 
ATOM      5  C   UNL     1      34.429 -15.835 -22.807  0.00  0.00    -0.004 C 
ATOM      6  C   UNL     1      34.531 -17.050 -24.892  0.00  0.00    -0.004 C 
ENDROOT
BRANCH   4   7
ATOM      7  C   UNL     1      33.800 -14.660 -24.922  0.00  0.00    +0.121 C 
ATOM      8  C   UNL     1      32.747 -13.836 -24.152  0.00  0.00    +0.016 C 
BRANCH   7  10
ATOM      9  O   UNL     1      32.500 -15.916 -26.564  0.00  0.00    -0.250 OA
ATOM     10  C   UNL     1      33.255 -14.985 -26.317  0.00  0.00    +0.317 C 
BRANCH  10  11
ATOM     11  O   UNL     1      33.704 -14.133 -27.277  0.00  0.00    -0.480 OA
ATOM     12  H   UNL     1      33.467 -14.271 -28.174  0.00  0.00    +0.295 HD
ENDBRANCH  10  11
ENDBRANCH   7  10
ENDBRANCH   4   7
BRANCH   1  13
ATOM     13  C   UNL     1      35.594 -19.361 -22.094  0.00  0.00    +0.034 C 
BRANCH  13  15
ATOM     14  O   UNL     1      36.458 -21.100 -19.852  0.00  0.00    -0.296 OA
ATOM     15  C   UNL     1      34.826 -19.576 -20.805  0.00  0.00    +0.062 C 
ATOM     16  C   UNL     1      33.351 -19.906 -21.037  0.00  0.00    +0.008 C 
ATOM     17  C   UNL     1      32.946 -20.690 -19.796  0.00  0.00    +0.008 C 
ATOM     18  C   UNL     1      34.125 -21.617 -19.531  0.00  0.00    +0.065 C 
ATOM     19  C   UNL     1      35.286 -20.801 -20.039  0.00  0.00    +0.151 C 
ENDBRANCH  13  15
ENDBRANCH   1  13
TORSDOF 5
ENDMDL
MODEL 8
REMARK VINA RESULT:      -8.6      2.909      5.002
REMARK  Name = 3965
REMARK  5 active torsions:
REMARK  status: ('A' for Active; 'I' for Inactive)
REMARK    1  A    between atoms: C_1  and  C_13
REMARK    2  A    between atoms: C_4  and  C_7
REMARK    3  A    between atoms: C_7  and  C_10
REMARK    4  A    between atoms: C_10  and  O_11
REMARK    5  A    between atoms: C_13  and  C_15
REMARK                            x       y       z     vdW  Elec       q    Type
REMARK                         _______ _______ _______ _____ _____    ______ ____
ROOT
ATOM      1  C   UNL     1      34.641 -17.789 -22.140  0.00  0.00    -0.022 C 
ATOM      2  C   UNL     1      35.058 -17.128 -23.285  0.00  0.00    -0.005 C 
ATOM      3  C   UNL     1      33.909 -17.136 -21.160  0.00  0.00    -0.005 C 
ATOM      4  C   UNL     1      33.996 -15.113 -22.478  0.00  0.00    -0.012 C 
ATOM      5  C   UNL     1      34.733 -15.782 -23.455  0.00  0.00    -0.004 C 
ATOM      6  C   UNL     1      33.585 -15.791 -21.330  0.00  0.00    -0.004 C 
ENDROOT
BRANCH   4   7
ATOM      7  C   UNL     1      33.649 -13.675 -22.660  0.00  0.00    +0.121 C 
ATOM      8  C   UNL     1      32.371 -13.245 -21.912  0.00  0.00    +0.016 C 
BRANCH   7  10
ATOM      9  O   UNL     1      32.785 -13.847 -24.938  0.00  0.00    -0.250 OA
ATOM     10  C   UNL     1      33.518 -13.283 -24.136  0.00  0.00    +0.317 C 
BRANCH  10  11
ATOM     11  O   UNL     1      34.314 -12.237 -24.484  0.00  0.00    -0.480 OA
ATOM     12  H   UNL     1      35.004 -11.963 -23.911  0.00  0.00    +0.295 HD
ENDBRANCH  10  11
ENDBRANCH   7  10
ENDBRANCH   4   7
BRANCH   1  13
ATOM     13  C   UNL     1      34.992 -19.244 -21.956  0.00  0.00    +0.034 C 
BRANCH  13  15
ATOM     14  O   UNL     1      36.759 -20.752 -20.112  0.00  0.00    -0.296 OA
ATOM     15  C   UNL     1      34.597 -19.755 -20.586  0.00  0.00    +0.062 C 
ATOM     16  C   UNL     1      33.267 -20.511 -20.591  0.00  0.00    +0.008 C 
ATOM     17  C   UNL     1      33.366 -21.448 -19.395  0.00  0.00    +0.008 C 
ATOM     18  C   UNL     1      34.793 -21.980 -19.448  0.00  0.00    +0.065 C 
ATOM     19  C   UNL     1      35.538 -20.819 -20.056  0.00  0.00    +0.151 C 
ENDBRANCH  13  15
ENDBRANCH   1  13
TORSDOF 5
ENDMDL
MODEL 9
REMARK VINA RESULT:      -8.6      2.476      7.535
REMARK  Name = 3965
REMARK  5 active torsions:
REMARK  status: ('A' for Active; 'I' for Inactive)
REMARK    1  A    between atoms: C_1  and  C_13
REMARK    2  A    between atoms: C_4  and  C_7
REMARK    3  A    between atoms: C_7  and  C_10
REMARK    4  A    between atoms: C_10  and  O_11
REMARK    5  A    between atoms: C_13  and  C_15
REMARK                            x       y       z     vdW  Elec       q    Type
REMARK                         _______ _______ _______ _____ _____    ______ ____
ROOT
ATOM      1  C   UNL     1      34.722 -18.170 -21.251  0.00  0.00    -0.022 C 
ATOM      2  C   UNL     1      36.024 -18.600 -21.047  0.00  0.00    -0.005 C 
ATOM      3  C   UNL     1      33.641 -18.962 -20.897  0.00  0.00    -0.005 C 
ATOM      4  C   UNL     1      35.171 -20.659 -20.114  0.00  0.00    -0.012 C 
ATOM      5  C   UNL     1      36.250 -19.852 -20.475  0.00  0.00    -0.004 C 
ATOM      6  C   UNL     1      33.866 -20.214 -20.326  0.00  0.00    -0.004 C 
ENDROOT
BRANCH   4   7
ATOM      7  C   UNL     1      35.413 -21.997 -19.503  0.00  0.00    +0.121 C 
ATOM      8  C   UNL     1      34.155 -22.888 -19.443  0.00  0.00    +0.016 C 
BRANCH   7  10
ATOM      9  O   UNL     1      36.918 -21.128 -17.787  0.00  0.00    -0.250 OA
ATOM     10  C   UNL     1      36.023 -21.902 -18.100  0.00  0.00    +0.317 C 
BRANCH  10  11
ATOM     11  O   UNL     1      35.475 -22.780 -17.218  0.00  0.00    -0.480 OA
ATOM     12  H   UNL     1      35.365 -23.679 -17.460  0.00  0.00    +0.295 HD
ENDBRANCH  10  11
ENDBRANCH   7  10
ENDBRANCH   4   7
BRANCH   1  13
ATOM     13  C   UNL     1      34.478 -16.816 -21.869  0.00  0.00    +0.034 C 
BRANCH  13  15
ATOM     14  O   UNL     1      34.208 -14.473 -23.667  0.00  0.00    -0.296 OA
ATOM     15  C   UNL     1      34.979 -16.745 -23.298  0.00  0.00    +0.062 C 
ATOM     16  C   UNL     1      34.567 -17.956 -24.136  0.00  0.00    +0.008 C 
ATOM     17  C   UNL     1      34.564 -17.435 -25.567  0.00  0.00    +0.008 C 
ATOM     18  C   UNL     1      33.929 -16.054 -25.466  0.00  0.00    +0.065 C 
ATOM     19  C   UNL     1      34.355 -15.613 -24.089  0.00  0.00    +0.151 C 
ENDBRANCH  13  15
ENDBRANCH   1  13
TORSDOF 5
ENDMDL
