MODEL 1
REMARK VINA RESULT:     -11.2      0.000      0.000
REMARK  Name = 11574606
REMARK  6 active torsions:
REMARK  status: ('A' for Active; 'I' for Inactive)
REMARK    1  A    between atoms: C_5  and  O_24
REMARK    2  A    between atoms: C_7  and  N_10
REMARK    3  A    between atoms: N_10  and  C_12
REMARK    4  A    between atoms: C_15  and  S_18
REMARK    5  A    between atoms: S_18  and  N_21
REMARK    6  A    between atoms: O_24  and  C_25
REMARK                            x       y       z     vdW  Elec       q    Type
REMARK                         _______ _______ _______ _____ _____    ______ ____
ROOT
ATOM      1  N   UNL     1      33.428 -23.469 -14.389  0.00  0.00    -0.299 NA
ATOM      2  N   UNL     1      32.318 -23.074 -16.486  0.00  0.00    -0.106 N 
ATOM      3  N   UNL     1      31.050 -22.889 -16.939  0.00  0.00    -0.139 NA
ATOM      4  N   UNL     1      31.035 -23.194 -14.682  0.00  0.00    -0.145 NA
ATOM      5  C   UNL     1      34.520 -23.481 -15.084  0.00  0.00    +0.291 C 
ATOM      6  C   UNL     1      34.666 -23.297 -16.544  0.00  0.00    +0.105 C 
ATOM      7  C   UNL     1      33.518 -23.093 -17.213  0.00  0.00    +0.142 C 
ATOM      8  C   UNL     1      32.283 -23.259 -15.099  0.00  0.00    +0.178 C 
ATOM      9  C   UNL     1      30.334 -22.970 -15.822  0.00  0.00    +0.230 C 
ENDROOT
BRANCH   7  10
ATOM     10  N   UNL     1      33.443 -22.902 -18.563  0.00  0.00    -0.299 N 
ATOM     11  H   UNL     1      32.988 -23.611 -19.072  0.00  0.00    +0.153 HD
BRANCH  10  12
ATOM     12  C   UNL     1      33.930 -21.828 -19.316  0.00  0.00    +0.049 C 
ATOM     13  C   UNL     1      33.047 -20.907 -19.893  0.00  0.00    +0.016 C 
ATOM     14  C   UNL     1      35.309 -21.660 -19.502  0.00  0.00    +0.016 C 
ATOM     15  C   UNL     1      34.907 -19.678 -20.824  0.00  0.00    +0.122 C 
ATOM     16  C   UNL     1      33.533 -19.837 -20.644  0.00  0.00    +0.021 C 
ATOM     17  C   UNL     1      35.795 -20.591 -20.253  0.00  0.00    +0.021 C 
BRANCH  15  18
ATOM     18  S   UNL     1      35.517 -18.340 -21.764  0.00  0.00    +0.057 S 
ATOM     19  O   UNL     1      36.953 -18.515 -21.936  0.00  0.00    -0.153 OA
ATOM     20  O   UNL     1      34.665 -18.168 -22.932  0.00  0.00    -0.153 OA
BRANCH  18  21
ATOM     21  N   UNL     1      35.245 -17.038 -20.691  0.00  0.00    -0.203 NA
ATOM     22  H   UNL     1      35.275 -16.159 -21.209  0.00  0.00    +0.144 HD
ATOM     23  H   UNL     1      35.969 -17.033 -19.972  0.00  0.00    +0.144 HD
ENDBRANCH  18  21
ENDBRANCH  15  18
ENDBRANCH  10  12
ENDBRANCH   7  10
BRANCH   5  24
ATOM     24  O   UNL     1      35.711 -23.682 -14.470  0.00  0.00    -0.455 OA
BRANCH  24  25
ATOM     25  C   UNL     1      35.829 -25.013 -13.971  0.00  0.00    +0.169 C 
ATOM     26  C   UNL     1      36.817 -25.803 -14.830  0.00  0.00    +0.044 C 
ATOM     27  C   UNL     1      36.276 -24.951 -12.510  0.00  0.00    +0.044 C 
ATOM     28  C   UNL     1      38.249 -25.284 -14.684  0.00  0.00    +0.004 C 
ATOM     29  C   UNL     1      37.709 -24.437 -12.368  0.00  0.00    +0.004 C 
ATOM     30  C   UNL     1      38.684 -25.241 -13.222  0.00  0.00    +0.000 C 
ENDBRANCH  24  25
ENDBRANCH   5  24
TORSDOF 6
ENDMDL
MODEL 2
REMARK VINA RESULT:     -10.9      5.110     10.944
REMARK  Name = 11574606
REMARK  6 active torsions:
REMARK  status: ('A' for Active; 'I' for Inactive)
REMARK    1  A    between atoms: C_5  and  O_24
REMARK    2  A    between atoms: C_7  and  N_10
REMARK    3  A    between atoms: N_10  and  C_12
REMARK    4  A    between atoms: C_15  and  S_18
REMARK    5  A    between atoms: S_18  and  N_21
REMARK    6  A    between atoms: O_24  and  C_25
REMARK                            x       y       z     vdW  Elec       q    Type
REMARK                         _______ _______ _______ _____ _____    ______ ____
ROOT
ATOM      1  N   UNL     1      34.014 -15.817 -24.568  0.00  0.00    -0.299 NA
ATOM      2  N   UNL     1      34.908 -17.864 -23.678  0.00  0.00    -0.106 N 
ATOM      3  N   UNL     1      35.038 -19.161 -24.063  0.00  0.00    -0.139 NA
ATOM      4  N   UNL     1      34.003 -17.963 -25.700  0.00  0.00    -0.145 NA
ATOM      5  C   UNL     1      34.399 -15.281 -23.454  0.00  0.00    +0.291 C 
ATOM      6  C   UNL     1      35.077 -15.944 -22.318  0.00  0.00    +0.105 C 
ATOM      7  C   UNL     1      35.314 -17.257 -22.481  0.00  0.00    +0.142 C 
ATOM      8  C   UNL     1      34.270 -17.149 -24.699  0.00  0.00    +0.178 C 
ATOM      9  C   UNL     1      34.484 -19.157 -25.271  0.00  0.00    +0.230 C 
ENDROOT
BRANCH   7  10
ATOM     10  N   UNL     1      35.928 -18.044 -21.549  0.00  0.00    -0.299 N 
ATOM     11  H   UNL     1      36.850 -17.792 -21.315  0.00  0.00    +0.153 HD
BRANCH  10  12
ATOM     12  C   UNL     1      35.416 -19.164 -20.885  0.00  0.00    +0.049 C 
ATOM     13  C   UNL     1      36.279 -20.089 -20.283  0.00  0.00    +0.016 C 
ATOM     14  C   UNL     1      34.032 -19.374 -20.813  0.00  0.00    +0.016 C 
ATOM     15  C   UNL     1      34.389 -21.407 -19.556  0.00  0.00    +0.122 C 
ATOM     16  C   UNL     1      35.768 -21.205 -19.621  0.00  0.00    +0.021 C 
ATOM     17  C   UNL     1      33.522 -20.491 -20.152  0.00  0.00    +0.021 C 
BRANCH  15  18
ATOM     18  S   UNL     1      33.749 -22.804 -18.728  0.00  0.00    +0.057 S 
ATOM     19  O   UNL     1      32.423 -22.471 -18.224  0.00  0.00    -0.153 OA
ATOM     20  O   UNL     1      33.925 -23.970 -19.583  0.00  0.00    -0.153 OA
BRANCH  18  21
ATOM     21  N   UNL     1      34.827 -22.923 -17.408  0.00  0.00    -0.203 NA
ATOM     22  H   UNL     1      34.304 -23.151 -16.562  0.00  0.00    +0.144 HD
ATOM     23  H   UNL     1      35.308 -22.033 -17.281  0.00  0.00    +0.144 HD
ENDBRANCH  18  21
ENDBRANCH  15  18
ENDBRANCH  10  12
ENDBRANCH   7  10
BRANCH   5  24
ATOM     24  O   UNL     1      34.189 -13.962 -23.228  0.00  0.00    -0.455 OA
BRANCH  24  25
ATOM     25  C   UNL     1      33.110 -13.458 -24.013  0.00  0.00    +0.169 C 
ATOM     26  C   UNL     1      31.982 -12.980 -23.097  0.00  0.00    +0.044 C 
ATOM     27  C   UNL     1      33.634 -12.327 -24.899  0.00  0.00    +0.044 C 
ATOM     28  C   UNL     1      32.384 -11.747 -22.286  0.00  0.00    +0.004 C 
ATOM     29  C   UNL     1      34.031 -11.095 -24.085  0.00  0.00    +0.004 C 
ATOM     30  C   UNL     1      32.893 -10.624 -23.185  0.00  0.00    +0.000 C 
ENDBRANCH  24  25
ENDBRANCH   5  24
TORSDOF 6
ENDMDL
MODEL 3
REMARK VINA RESULT:     -10.8      2.660      4.752
REMARK  Name = 11574606
REMARK  6 active torsions:
REMARK  status: ('A' for Active; 'I' for Inactive)
REMARK    1  A    between atoms: C_5  and  O_24
REMARK    2  A    between atoms: C_7  and  N_10
REMARK    3  A    between atoms: N_10  and  C_12
REMARK    4  A    between atoms: C_15  and  S_18
REMARK    5  A    between atoms: S_18  and  N_21
REMARK    6  A    between atoms: O_24  and  C_25
REMARK                            x       y       z     vdW  Elec       q    Type
REMARK                         _______ _______ _______ _____ _____    ______ ____
ROOT
ATOM      1  N   UNL     1      34.150 -23.298 -15.982  0.00  0.00    -0.299 NA
ATOM      2  N   UNL     1      35.597 -22.299 -17.623  0.00  0.00    -0.106 N 
ATOM      3  N   UNL     1      36.871 -21.831 -17.695  0.00  0.00    -0.139 NA
ATOM      4  N   UNL     1      36.445 -22.611 -15.598  0.00  0.00    -0.145 NA
ATOM      5  C   UNL     1      33.264 -23.325 -16.926  0.00  0.00    +0.291 C 
ATOM      6  C   UNL     1      33.412 -22.853 -18.320  0.00  0.00    +0.105 C 
ATOM      7  C   UNL     1      34.617 -22.340 -18.625  0.00  0.00    +0.142 C 
ATOM      8  C   UNL     1      35.359 -22.772 -16.327  0.00  0.00    +0.178 C 
ATOM      9  C   UNL     1      37.323 -22.044 -16.463  0.00  0.00    +0.230 C 
ENDROOT
BRANCH   7  10
ATOM     10  N   UNL     1      34.951 -21.853 -19.857  0.00  0.00    -0.299 N 
ATOM     11  H   UNL     1      35.320 -22.508 -20.492  0.00  0.00    +0.153 HD
BRANCH  10  12
ATOM     12  C   UNL     1      34.837 -20.542 -20.332  0.00  0.00    +0.049 C 
ATOM     13  C   UNL     1      35.981 -19.772 -20.573  0.00  0.00    +0.016 C 
ATOM     14  C   UNL     1      33.574 -19.983 -20.575  0.00  0.00    +0.016 C 
ATOM     15  C   UNL     1      34.606 -17.917 -21.284  0.00  0.00    +0.122 C 
ATOM     16  C   UNL     1      35.867 -18.465 -21.047  0.00  0.00    +0.021 C 
ATOM     17  C   UNL     1      33.461 -18.677 -21.048  0.00  0.00    +0.021 C 
BRANCH  15  18
ATOM     18  S   UNL     1      34.463 -16.281 -21.876  0.00  0.00    +0.057 S 
ATOM     19  O   UNL     1      35.452 -16.085 -22.928  0.00  0.00    -0.153 OA
ATOM     20  O   UNL     1      33.058 -16.007 -22.145  0.00  0.00    -0.153 OA
BRANCH  18  21
ATOM     21  N   UNL     1      34.941 -15.393 -20.498  0.00  0.00    -0.203 NA
ATOM     22  H   UNL     1      34.115 -15.011 -20.035  0.00  0.00    +0.144 HD
ATOM     23  H   UNL     1      35.554 -14.629 -20.781  0.00  0.00    +0.144 HD
ENDBRANCH  18  21
ENDBRANCH  15  18
ENDBRANCH  10  12
ENDBRANCH   7  10
BRANCH   5  24
ATOM     24  O   UNL     1      32.030 -23.829 -16.683  0.00  0.00    -0.455 OA
BRANCH  24  25
ATOM     25  C   UNL     1      31.298 -23.013 -15.769  0.00  0.00    +0.169 C 
ATOM     26  C   UNL     1      29.899 -22.743 -16.324  0.00  0.00    +0.044 C 
ATOM     27  C   UNL     1      31.240 -23.723 -14.416  0.00  0.00    +0.044 C 
ATOM     28  C   UNL     1      29.043 -24.010 -16.371  0.00  0.00    +0.004 C 
ATOM     29  C   UNL     1      30.381 -24.986 -14.464  0.00  0.00    +0.004 C 
ATOM     30  C   UNL     1      28.986 -24.698 -15.009  0.00  0.00    +0.000 C 
ENDBRANCH  24  25
ENDBRANCH   5  24
TORSDOF 6
ENDMDL
MODEL 4
REMARK VINA RESULT:     -10.5      4.888     10.576
REMARK  Name = 11574606
REMARK  6 active torsions:
REMARK  status: ('A' for Active; 'I' for Inactive)
REMARK    1  A    between atoms: C_5  and  O_24
REMARK    2  A    between atoms: C_7  and  N_10
REMARK    3  A    between atoms: N_10  and  C_12
REMARK    4  A    between atoms: C_15  and  S_18
REMARK    5  A    between atoms: S_18  and  N_21
REMARK    6  A    between atoms: O_24  and  C_25
REMARK                            x       y       z     vdW  Elec       q    Type
REMARK                         _______ _______ _______ _____ _____    ______ ____
ROOT
ATOM      1  N   UNL     1      33.732 -15.271 -23.879  0.00  0.00    -0.299 NA
ATOM      2  N   UNL     1      34.855 -17.373 -23.559  0.00  0.00    -0.106 N 
ATOM      3  N   UNL     1      35.146 -18.484 -24.285  0.00  0.00    -0.139 NA
ATOM      4  N   UNL     1      33.997 -16.993 -25.568  0.00  0.00    -0.145 NA
ATOM      5  C   UNL     1      34.033 -15.035 -22.643  0.00  0.00    +0.291 C 
ATOM      6  C   UNL     1      34.770 -15.913 -21.708  0.00  0.00    +0.105 C 
ATOM      7  C   UNL     1      35.167 -17.090 -22.221  0.00  0.00    +0.142 C 
ATOM      8  C   UNL     1      34.150 -16.473 -24.367  0.00  0.00    +0.178 C 
ATOM      9  C   UNL     1      34.612 -18.199 -25.469  0.00  0.00    +0.230 C 
ENDROOT
BRANCH   7  10
ATOM     10  N   UNL     1      35.859 -18.036 -21.519  0.00  0.00    -0.299 N 
ATOM     11  H   UNL     1      36.834 -17.907 -21.472  0.00  0.00    +0.153 HD
BRANCH  10  12
ATOM     12  C   UNL     1      35.361 -19.165 -20.860  0.00  0.00    +0.049 C 
ATOM     13  C   UNL     1      36.234 -20.065 -20.237  0.00  0.00    +0.016 C 
ATOM     14  C   UNL     1      33.982 -19.408 -20.814  0.00  0.00    +0.016 C 
ATOM     15  C   UNL     1      34.363 -21.426 -19.540  0.00  0.00    +0.122 C 
ATOM     16  C   UNL     1      35.737 -21.191 -19.580  0.00  0.00    +0.021 C 
ATOM     17  C   UNL     1      33.486 -20.534 -20.158  0.00  0.00    +0.021 C 
BRANCH  15  18
ATOM     18  S   UNL     1      33.740 -22.835 -18.719  0.00  0.00    +0.057 S 
ATOM     19  O   UNL     1      32.410 -22.522 -18.215  0.00  0.00    -0.153 OA
ATOM     20  O   UNL     1      33.933 -23.995 -19.578  0.00  0.00    -0.153 OA
BRANCH  18  21
ATOM     21  N   UNL     1      34.818 -22.945 -17.398  0.00  0.00    -0.203 NA
ATOM     22  H   UNL     1      34.299 -23.193 -16.555  0.00  0.00    +0.144 HD
ATOM     23  H   UNL     1      35.280 -22.046 -17.260  0.00  0.00    +0.144 HD
ENDBRANCH  18  21
ENDBRANCH  15  18
ENDBRANCH  10  12
ENDBRANCH   7  10
BRANCH   5  24
ATOM     24  O   UNL     1      33.662 -13.867 -22.066  0.00  0.00    -0.455 OA
BRANCH  24  25
ATOM     25  C   UNL     1      32.243 -13.731 -22.016  0.00  0.00    +0.169 C 
ATOM     26  C   UNL     1      31.800 -13.454 -20.579  0.00  0.00    +0.044 C 
ATOM     27  C   UNL     1      31.824 -12.605 -22.961  0.00  0.00    +0.044 C 
ATOM     28  C   UNL     1      32.265 -12.082 -20.087  0.00  0.00    +0.004 C 
ATOM     29  C   UNL     1      32.286 -11.234 -22.466  0.00  0.00    +0.004 C 
ATOM     30  C   UNL     1      31.828 -10.968 -21.035  0.00  0.00    +0.000 C 
ENDBRANCH  24  25
ENDBRANCH   5  24
TORSDOF 6
ENDMDL
MODEL 5
REMARK VINA RESULT:     -10.5      7.530     11.070
REMARK  Name = 11574606
REMARK  6 active torsions:
REMARK  status: ('A' for Active; 'I' for Inactive)
REMARK    1  A    between atoms: C_5  and  O_24
REMARK    2  A    between atoms: C_7  and  N_10
REMARK    3  A    between atoms: N_10  and  C_12
REMARK    4  A    between atoms: C_15  and  S_18
REMARK    5  A    between atoms: S_18  and  N_21
REMARK    6  A    between atoms: O_24  and  C_25
REMARK                            x       y       z     vdW  Elec       q    Type
REMARK                         _______ _______ _______ _____ _____    ______ ____
ROOT
ATOM      1  N   UNL     1      34.762 -16.361 -24.291  0.00  0.00    -0.299 NA
ATOM      2  N   UNL     1      33.063 -14.671 -24.496  0.00  0.00    -0.106 N 
ATOM      3  N   UNL     1      32.415 -14.005 -25.488  0.00  0.00    -0.139 NA
ATOM      4  N   UNL     1      33.912 -15.470 -26.382  0.00  0.00    -0.145 NA
ATOM      5  C   UNL     1      34.599 -16.228 -23.014  0.00  0.00    +0.291 C 
ATOM      6  C   UNL     1      33.668 -15.320 -22.310  0.00  0.00    +0.105 C 
ATOM      7  C   UNL     1      32.908 -14.549 -23.107  0.00  0.00    +0.142 C 
ATOM      8  C   UNL     1      33.976 -15.564 -25.070  0.00  0.00    +0.178 C 
ATOM      9  C   UNL     1      32.961 -14.524 -26.584  0.00  0.00    +0.230 C 
ENDROOT
BRANCH   7  10
ATOM     10  N   UNL     1      31.989 -13.648 -22.650  0.00  0.00    -0.299 N 
ATOM     11  H   UNL     1      31.099 -14.012 -22.441  0.00  0.00    +0.153 HD
BRANCH  10  12
ATOM     12  C   UNL     1      32.149 -12.274 -22.442  0.00  0.00    +0.049 C 
ATOM     13  C   UNL     1      32.931 -11.510 -23.317  0.00  0.00    +0.016 C 
ATOM     14  C   UNL     1      31.528 -11.644 -21.355  0.00  0.00    +0.016 C 
ATOM     15  C   UNL     1      32.470  -9.522 -22.024  0.00  0.00    +0.122 C 
ATOM     16  C   UNL     1      33.091 -10.140 -23.109  0.00  0.00    +0.021 C 
ATOM     17  C   UNL     1      31.688 -10.275 -21.147  0.00  0.00    +0.021 C 
BRANCH  15  18
ATOM     18  S   UNL     1      32.670  -7.808 -21.763  0.00  0.00    +0.057 S 
ATOM     19  O   UNL     1      33.858  -7.369 -22.482  0.00  0.00    -0.153 OA
ATOM     20  O   UNL     1      31.394  -7.150 -22.006  0.00  0.00    -0.153 OA
BRANCH  18  21
ATOM     21  N   UNL     1      32.995  -7.770 -20.086  0.00  0.00    -0.203 NA
ATOM     22  H   UNL     1      33.399  -8.662 -19.797  0.00  0.00    +0.144 HD
ATOM     23  H   UNL     1      32.128  -7.608 -19.574  0.00  0.00    +0.144 HD
ENDBRANCH  18  21
ENDBRANCH  15  18
ENDBRANCH  10  12
ENDBRANCH   7  10
BRANCH   5  24
ATOM     24  O   UNL     1      35.335 -16.976 -22.156  0.00  0.00    -0.455 OA
BRANCH  24  25
ATOM     25  C   UNL     1      35.733 -18.213 -22.743  0.00  0.00    +0.169 C 
ATOM     26  C   UNL     1      36.938 -18.779 -21.990  0.00  0.00    +0.044 C 
ATOM     27  C   UNL     1      34.546 -19.176 -22.712  0.00  0.00    +0.044 C 
ATOM     28  C   UNL     1      36.577 -19.207 -20.566  0.00  0.00    +0.004 C 
ATOM     29  C   UNL     1      34.191 -19.606 -21.288  0.00  0.00    +0.004 C 
ATOM     30  C   UNL     1      35.399 -20.178 -20.554  0.00  0.00    +0.000 C 
ENDBRANCH  24  25
ENDBRANCH   5  24
TORSDOF 6
ENDMDL
MODEL 6
REMARK VINA RESULT:     -10.3      9.100     14.258
REMARK  Name = 11574606
REMARK  6 active torsions:
REMARK  status: ('A' for Active; 'I' for Inactive)
REMARK    1  A    between atoms: C_5  and  O_24
REMARK    2  A    between atoms: C_7  and  N_10
REMARK    3  A    between atoms: N_10  and  C_12
REMARK    4  A    between atoms: C_15  and  S_18
REMARK    5  A    between atoms: S_18  and  N_21
REMARK    6  A    between atoms: O_24  and  C_25
REMARK                            x       y       z     vdW  Elec       q    Type
REMARK                         _______ _______ _______ _____ _____    ______ ____
ROOT
ATOM      1  N   UNL     1      32.518  -8.669 -21.478  0.00  0.00    -0.299 NA
ATOM      2  N   UNL     1      31.766 -10.849 -20.794  0.00  0.00    -0.106 N 
ATOM      3  N   UNL     1      31.385 -11.473 -19.648  0.00  0.00    -0.139 NA
ATOM      4  N   UNL     1      31.935  -9.306 -19.211  0.00  0.00    -0.145 NA
ATOM      5  C   UNL     1      32.580  -9.174 -22.669  0.00  0.00    +0.291 C 
ATOM      6  C   UNL     1      32.253 -10.556 -23.084  0.00  0.00    +0.105 C 
ATOM      7  C   UNL     1      31.844 -11.369 -22.095  0.00  0.00    +0.142 C 
ATOM      8  C   UNL     1      32.098  -9.521 -20.500  0.00  0.00    +0.178 C 
ATOM      9  C   UNL     1      31.505 -10.506 -18.744  0.00  0.00    +0.230 C 
ENDROOT
BRANCH   7  10
ATOM     10  N   UNL     1      31.496 -12.678 -22.275  0.00  0.00    -0.299 N 
ATOM     11  H   UNL     1      30.557 -12.842 -22.521  0.00  0.00    +0.153 HD
BRANCH  10  12
ATOM     12  C   UNL     1      32.302 -13.814 -22.154  0.00  0.00    +0.049 C 
ATOM     13  C   UNL     1      32.318 -14.549 -20.962  0.00  0.00    +0.016 C 
ATOM     14  C   UNL     1      33.104 -14.233 -23.224  0.00  0.00    +0.016 C 
ATOM     15  C   UNL     1      33.917 -16.091 -21.912  0.00  0.00    +0.122 C 
ATOM     16  C   UNL     1      33.122 -15.683 -20.841  0.00  0.00    +0.021 C 
ATOM     17  C   UNL     1      33.908 -15.365 -23.103  0.00  0.00    +0.021 C 
BRANCH  15  18
ATOM     18  S   UNL     1      34.924 -17.509 -21.762  0.00  0.00    +0.057 S 
ATOM     19  O   UNL     1      35.681 -17.405 -20.520  0.00  0.00    -0.153 OA
ATOM     20  O   UNL     1      34.107 -18.687 -22.014  0.00  0.00    -0.153 OA
BRANCH  18  21
ATOM     21  N   UNL     1      35.992 -17.291 -23.077  0.00  0.00    -0.203 NA
ATOM     22  H   UNL     1      36.016 -16.304 -23.336  0.00  0.00    +0.144 HD
ATOM     23  H   UNL     1      35.670 -17.842 -23.872  0.00  0.00    +0.144 HD
ENDBRANCH  18  21
ENDBRANCH  15  18
ENDBRANCH  10  12
ENDBRANCH   7  10
BRANCH   5  24
ATOM     24  O   UNL     1      32.985  -8.407 -23.709  0.00  0.00    -0.455 OA
BRANCH  24  25
ATOM     25  C   UNL     1      33.511  -7.156 -23.269  0.00  0.00    +0.169 C 
ATOM     26  C   UNL     1      34.737  -6.787 -24.106  0.00  0.00    +0.044 C 
ATOM     27  C   UNL     1      32.414  -6.097 -23.379  0.00  0.00    +0.044 C 
ATOM     28  C   UNL     1      34.370  -6.481 -25.560  0.00  0.00    +0.004 C 
ATOM     29  C   UNL     1      32.053  -5.790 -24.832  0.00  0.00    +0.004 C 
ATOM     30  C   UNL     1      33.284  -5.413 -25.651  0.00  0.00    +0.000 C 
ENDBRANCH  24  25
ENDBRANCH   5  24
TORSDOF 6
ENDMDL
MODEL 7
REMARK VINA RESULT:     -10.3      3.667      7.245
REMARK  Name = 11574606
REMARK  6 active torsions:
REMARK  status: ('A' for Active; 'I' for Inactive)
REMARK    1  A    between atoms: C_5  and  O_24
REMARK    2  A    between atoms: C_7  and  N_10
REMARK    3  A    between atoms: N_10  and  C_12
REMARK    4  A    between atoms: C_15  and  S_18
REMARK    5  A    between atoms: S_18  and  N_21
REMARK    6  A    between atoms: O_24  and  C_25
REMARK                            x       y       z     vdW  Elec       q    Type
REMARK                         _______ _______ _______ _____ _____    ______ ____
ROOT
ATOM      1  N   UNL     1      37.569 -22.467 -16.562  0.00  0.00    -0.299 NA
ATOM      2  N   UNL     1      36.354 -23.820 -14.987  0.00  0.00    -0.106 N 
ATOM      3  N   UNL     1      36.629 -24.699 -13.988  0.00  0.00    -0.139 NA
ATOM      4  N   UNL     1      38.567 -23.934 -14.906  0.00  0.00    -0.145 NA
ATOM      5  C   UNL     1      36.405 -22.081 -16.976  0.00  0.00    +0.291 C 
ATOM      6  C   UNL     1      35.079 -22.499 -16.469  0.00  0.00    +0.105 C 
ATOM      7  C   UNL     1      35.107 -23.384 -15.458  0.00  0.00    +0.142 C 
ATOM      8  C   UNL     1      37.559 -23.364 -15.535  0.00  0.00    +0.178 C 
ATOM      9  C   UNL     1      37.958 -24.725 -13.987  0.00  0.00    +0.230 C 
ENDROOT
BRANCH   7  10
ATOM     10  N   UNL     1      33.991 -23.890 -14.853  0.00  0.00    -0.299 N 
ATOM     11  H   UNL     1      34.151 -24.481 -14.082  0.00  0.00    +0.153 HD
BRANCH  10  12
ATOM     12  C   UNL     1      32.650 -23.677 -15.189  0.00  0.00    +0.049 C 
ATOM     13  C   UNL     1      31.638 -23.900 -14.247  0.00  0.00    +0.016 C 
ATOM     14  C   UNL     1      32.302 -23.237 -16.474  0.00  0.00    +0.016 C 
ATOM     15  C   UNL     1      29.964 -23.250 -15.864  0.00  0.00    +0.122 C 
ATOM     16  C   UNL     1      30.301 -23.687 -14.583  0.00  0.00    +0.021 C 
ATOM     17  C   UNL     1      30.965 -23.025 -16.809  0.00  0.00    +0.021 C 
BRANCH  15  18
ATOM     18  S   UNL     1      28.291 -22.985 -16.285  0.00  0.00    +0.057 S 
ATOM     19  O   UNL     1      27.495 -23.054 -15.067  0.00  0.00    -0.153 OA
ATOM     20  O   UNL     1      28.209 -21.808 -17.137  0.00  0.00    -0.153 OA
BRANCH  18  21
ATOM     21  N   UNL     1      27.970 -24.371 -17.231  0.00  0.00    -0.203 NA
ATOM     22  H   UNL     1      28.210 -24.181 -18.205  0.00  0.00    +0.144 HD
ATOM     23  H   UNL     1      26.980 -24.606 -17.165  0.00  0.00    +0.144 HD
ENDBRANCH  18  21
ENDBRANCH  15  18
ENDBRANCH  10  12
ENDBRANCH   7  10
BRANCH   5  24
ATOM     24  O   UNL     1      36.309 -21.192 -17.993  0.00  0.00    -0.455 OA
BRANCH  24  25
ATOM     25  C   UNL     1      36.172 -21.845 -19.254  0.00  0.00    +0.169 C 
ATOM     26  C   UNL     1      34.706 -22.209 -19.492  0.00  0.00    +0.044 C 
ATOM     27  C   UNL     1      36.707 -20.919 -20.346  0.00  0.00    +0.044 C 
ATOM     28  C   UNL     1      33.829 -20.970 -19.682  0.00  0.00    +0.004 C 
ATOM     29  C   UNL     1      35.826 -19.684 -20.538  0.00  0.00    +0.004 C 
ATOM     30  C   UNL     1      34.369 -20.063 -20.784  0.00  0.00    +0.000 C 
ENDBRANCH  24  25
ENDBRANCH   5  24
TORSDOF 6
ENDMDL
MODEL 8
REMARK VINA RESULT:      -9.9      3.220      8.540
REMARK  Name = 11574606
REMARK  6 active torsions:
REMARK  status: ('A' for Active; 'I' for Inactive)
REMARK    1  A    between atoms: C_5  and  O_24
REMARK    2  A    between atoms: C_7  and  N_10
REMARK    3  A    between atoms: N_10  and  C_12
REMARK    4  A    between atoms: C_15  and  S_18
REMARK    5  A    between atoms: S_18  and  N_21
REMARK    6  A    between atoms: O_24  and  C_25
REMARK                            x       y       z     vdW  Elec       q    Type
REMARK                         _______ _______ _______ _____ _____    ______ ____
ROOT
ATOM      1  N   UNL     1      34.122 -21.216 -19.787  0.00  0.00    -0.299 NA
ATOM      2  N   UNL     1      34.993 -22.475 -17.931  0.00  0.00    -0.106 N 
ATOM      3  N   UNL     1      34.543 -23.388 -17.030  0.00  0.00    -0.139 NA
ATOM      4  N   UNL     1      32.857 -22.790 -18.440  0.00  0.00    -0.145 NA
ATOM      5  C   UNL     1      35.315 -20.722 -19.882  0.00  0.00    +0.291 C 
ATOM      6  C   UNL     1      36.490 -21.025 -19.036  0.00  0.00    +0.105 C 
ATOM      7  C   UNL     1      36.275 -21.922 -18.058  0.00  0.00    +0.142 C 
ATOM      8  C   UNL     1      33.941 -22.123 -18.785  0.00  0.00    +0.178 C 
ATOM      9  C   UNL     1      33.270 -23.535 -17.384  0.00  0.00    +0.230 C 
ENDROOT
BRANCH   7  10
ATOM     10  N   UNL     1      37.232 -22.333 -17.174  0.00  0.00    -0.299 N 
ATOM     11  H   UNL     1      38.165 -22.190 -17.454  0.00  0.00    +0.153 HD
BRANCH  10  12
ATOM     12  C   UNL     1      37.057 -22.933 -15.923  0.00  0.00    +0.049 C 
ATOM     13  C   UNL     1      37.786 -24.077 -15.576  0.00  0.00    +0.016 C 
ATOM     14  C   UNL     1      36.150 -22.395 -14.999  0.00  0.00    +0.016 C 
ATOM     15  C   UNL     1      36.705 -24.133 -13.415  0.00  0.00    +0.122 C 
ATOM     16  C   UNL     1      37.611 -24.675 -14.327  0.00  0.00    +0.021 C 
ATOM     17  C   UNL     1      35.974 -22.993 -13.752  0.00  0.00    +0.021 C 
BRANCH  15  18
ATOM     18  S   UNL     1      36.484 -24.881 -11.854  0.00  0.00    +0.057 S 
ATOM     19  O   UNL     1      36.965 -26.255 -11.930  0.00  0.00    -0.153 OA
ATOM     20  O   UNL     1      37.011 -23.987 -10.833  0.00  0.00    -0.153 OA
BRANCH  18  21
ATOM     21  N   UNL     1      34.780 -24.900 -11.739  0.00  0.00    -0.203 NA
ATOM     22  H   UNL     1      34.504 -24.827 -10.759  0.00  0.00    +0.144 HD
ATOM     23  H   UNL     1      34.422 -25.772 -12.129  0.00  0.00    +0.144 HD
ENDBRANCH  18  21
ENDBRANCH  15  18
ENDBRANCH  10  12
ENDBRANCH   7  10
BRANCH   5  24
ATOM     24  O   UNL     1      35.596 -19.813 -20.845  0.00  0.00    -0.455 OA
BRANCH  24  25
ATOM     25  C   UNL     1      34.420 -19.394 -21.535  0.00  0.00    +0.169 C 
ATOM     26  C   UNL     1      33.976 -18.024 -21.018  0.00  0.00    +0.044 C 
ATOM     27  C   UNL     1      34.715 -19.362 -23.035  0.00  0.00    +0.044 C 
ATOM     28  C   UNL     1      34.968 -16.921 -21.389  0.00  0.00    +0.004 C 
ATOM     29  C   UNL     1      35.703 -18.255 -23.403  0.00  0.00    +0.004 C 
ATOM     30  C   UNL     1      35.242 -16.894 -22.890  0.00  0.00    +0.000 C 
ENDBRANCH  24  25
ENDBRANCH   5  24
TORSDOF 6
ENDMDL
MODEL 9
REMARK VINA RESULT:      -9.8      2.015      4.999
REMARK  Name = 11574606
REMARK  6 active torsions:
REMARK  status: ('A' for Active; 'I' for Inactive)
REMARK    1  A    between atoms: C_5  and  O_24
REMARK    2  A    between atoms: C_7  and  N_10
REMARK    3  A    between atoms: N_10  and  C_12
REMARK    4  A    between atoms: C_15  and  S_18
REMARK    5  A    between atoms: S_18  and  N_21
REMARK    6  A    between atoms: O_24  and  C_25
REMARK                            x       y       z     vdW  Elec       q    Type
REMARK                         _______ _______ _______ _____ _____    ______ ____
ROOT
ATOM      1  N   UNL     1      32.841 -23.594 -15.345  0.00  0.00    -0.299 NA
ATOM      2  N   UNL     1      35.000 -23.177 -16.319  0.00  0.00    -0.106 N 
ATOM      3  N   UNL     1      36.305 -23.246 -15.949  0.00  0.00    -0.139 NA
ATOM      4  N   UNL     1      34.970 -23.886 -14.218  0.00  0.00    -0.145 NA
ATOM      5  C   UNL     1      32.363 -23.229 -16.492  0.00  0.00    +0.291 C 
ATOM      6  C   UNL     1      33.117 -22.794 -17.688  0.00  0.00    +0.105 C 
ATOM      7  C   UNL     1      34.454 -22.784 -17.551  0.00  0.00    +0.142 C 
ATOM      8  C   UNL     1      34.200 -23.573 -15.241  0.00  0.00    +0.178 C 
ATOM      9  C   UNL     1      36.224 -23.674 -14.693  0.00  0.00    +0.230 C 
ENDROOT
BRANCH   7  10
ATOM     10  N   UNL     1      35.322 -22.416 -18.539  0.00  0.00    -0.299 N 
ATOM     11  H   UNL     1      36.147 -22.949 -18.606  0.00  0.00    +0.153 HD
BRANCH  10  12
ATOM     12  C   UNL     1      35.190 -21.377 -19.467  0.00  0.00    +0.049 C 
ATOM     13  C   UNL     1      33.926 -21.002 -19.938  0.00  0.00    +0.016 C 
ATOM     14  C   UNL     1      36.323 -20.698 -19.936  0.00  0.00    +0.016 C 
ATOM     15  C   UNL     1      34.929 -19.296 -21.325  0.00  0.00    +0.122 C 
ATOM     16  C   UNL     1      33.795 -19.966 -20.863  0.00  0.00    +0.021 C 
ATOM     17  C   UNL     1      36.192 -19.663 -20.861  0.00  0.00    +0.021 C 
BRANCH  15  18
ATOM     18  S   UNL     1      34.766 -18.001 -22.483  0.00  0.00    +0.057 S 
ATOM     19  O   UNL     1      34.223 -18.554 -23.717  0.00  0.00    -0.153 OA
ATOM     20  O   UNL     1      34.097 -16.882 -21.836  0.00  0.00    -0.153 OA
BRANCH  18  21
ATOM     21  N   UNL     1      36.404 -17.587 -22.740  0.00  0.00    -0.203 NA
ATOM     22  H   UNL     1      36.687 -16.882 -22.058  0.00  0.00    +0.144 HD
ATOM     23  H   UNL     1      36.516 -17.212 -23.682  0.00  0.00    +0.144 HD
ENDBRANCH  18  21
ENDBRANCH  15  18
ENDBRANCH  10  12
ENDBRANCH   7  10
BRANCH   5  24
ATOM     24  O   UNL     1      31.024 -23.215 -16.694  0.00  0.00    -0.455 OA
BRANCH  24  25
ATOM     25  C   UNL     1      30.321 -23.834 -15.618  0.00  0.00    +0.169 C 
ATOM     26  C   UNL     1      29.734 -22.761 -14.699  0.00  0.00    +0.044 C 
ATOM     27  C   UNL     1      29.233 -24.737 -16.198  0.00  0.00    +0.044 C 
ATOM     28  C   UNL     1      28.623 -21.963 -15.384  0.00  0.00    +0.004 C 
ATOM     29  C   UNL     1      28.121 -23.937 -16.877  0.00  0.00    +0.004 C 
ATOM     30  C   UNL     1      27.538 -22.879 -15.945  0.00  0.00    +0.000 C 
ENDBRANCH  24  25
ENDBRANCH   5  24
TORSDOF 6
ENDMDL
