MODEL 1
REMARK VINA RESULT:     -11.7      0.000      0.000
REMARK  Name = 16755766
REMARK  5 active torsions:
REMARK  status: ('A' for Active; 'I' for Inactive)
REMARK    1  A    between atoms: N_1  and  C_25
REMARK    2  A    between atoms: N_3  and  C_12
REMARK    3  A    between atoms: C_5  and  C_20
REMARK    4  A    between atoms: C_25  and  C_26
REMARK    5  A    between atoms: C_26  and  C_29
REMARK                            x       y       z     vdW  Elec       q    Type
REMARK                         _______ _______ _______ _____ _____    ______ ____
ROOT
ATOM      1  N   UNL     1      32.629 -23.331 -16.063  0.00  0.00    -0.174 N 
ATOM      2  N   UNL     1      33.838 -23.534 -15.537  0.00  0.00    -0.096 NA
ATOM      3  N   UNL     1      34.367 -24.429 -13.377  0.00  0.00    -0.246 N 
ATOM      4  N   UNL     1      32.161 -24.148 -14.108  0.00  0.00    -0.319 NA
ATOM      5  C   UNL     1      31.637 -23.692 -15.222  0.00  0.00    +0.216 C 
ATOM      6  C   UNL     1      33.500 -24.033 -14.346  0.00  0.00    +0.165 C 
ATOM      7  H   UNL     1      33.929 -24.688 -12.535  0.00  0.00    +0.165 HD
ENDROOT
BRANCH   3  12
ATOM      8  F   UNL     1      40.503 -26.917 -14.261  0.00  0.00    -0.125 F 
ATOM      9  F   UNL     1      40.671 -25.110 -15.483  0.00  0.00    -0.125 F 
ATOM     10  O   UNL     1      38.619 -26.012 -15.139  0.00  0.00    -0.395 OA
ATOM     11  O   UNL     1      39.862 -24.932 -13.373  0.00  0.00    -0.395 OA
ATOM     12  C   UNL     1      35.785 -24.539 -13.347  0.00  0.00    +0.061 C 
ATOM     13  C   UNL     1      37.810 -25.348 -14.266  0.00  0.00    +0.183 C 
ATOM     14  C   UNL     1      36.434 -25.269 -14.338  0.00  0.00    +0.056 C 
ATOM     15  C   UNL     1      38.520 -24.731 -13.259  0.00  0.00    +0.182 C 
ATOM     16  C   UNL     1      36.499 -23.909 -12.319  0.00  0.00    +0.019 C 
ATOM     17  C   UNL     1      37.891 -24.004 -12.269  0.00  0.00    +0.042 C 
ATOM     18  C   UNL     1      39.901 -25.738 -14.558  0.00  0.00    +0.589 C 
ENDBRANCH   3  12
BRANCH   5  20
ATOM     19  N   UNL     1      27.507 -23.359 -16.109  0.00  0.00    -0.242 NA
ATOM     20  C   UNL     1      30.230 -23.578 -15.522  0.00  0.00    +0.050 C 
ATOM     21  C   UNL     1      29.533 -22.426 -15.176  0.00  0.00    +0.025 C 
ATOM     22  C   UNL     1      29.568 -24.620 -16.162  0.00  0.00    +0.025 C 
ATOM     23  C   UNL     1      28.184 -22.367 -15.489  0.00  0.00    +0.099 C 
ATOM     24  C   UNL     1      28.218 -24.462 -16.430  0.00  0.00    +0.099 C 
ENDBRANCH   5  20
BRANCH   1  25
ATOM     25  C   UNL     1      32.514 -22.765 -17.402  0.00  0.00    +0.129 C 
BRANCH  25  26
ATOM     26  C   UNL     1      33.837 -22.818 -18.165  0.00  0.00    +0.109 C 
BRANCH  26  29
ATOM     27  O   UNL     1      32.854 -21.651 -20.014  0.00  0.00    -0.275 OA
ATOM     28  N   UNL     1      35.094 -21.224 -19.591  0.00  0.00    -0.276 N 
ATOM     29  C   UNL     1      33.869 -21.850 -19.341  0.00  0.00    +0.228 C 
ATOM     30  C   UNL     1      36.283 -21.474 -18.780  0.00  0.00    +0.115 C 
ATOM     31  C   UNL     1      35.278 -20.274 -20.682  0.00  0.00    +0.115 C 
ENDBRANCH  26  29
ENDBRANCH  25  26
ENDBRANCH   1  25
TORSDOF 5
ENDMDL
MODEL 2
REMARK VINA RESULT:     -11.5      4.370      8.126
REMARK  Name = 16755766
REMARK  5 active torsions:
REMARK  status: ('A' for Active; 'I' for Inactive)
REMARK    1  A    between atoms: N_1  and  C_25
REMARK    2  A    between atoms: N_3  and  C_12
REMARK    3  A    between atoms: C_5  and  C_20
REMARK    4  A    between atoms: C_25  and  C_26
REMARK    5  A    between atoms: C_26  and  C_29
REMARK                            x       y       z     vdW  Elec       q    Type
REMARK                         _______ _______ _______ _____ _____    ______ ____
ROOT
ATOM      1  N   UNL     1      34.762 -23.576 -15.905  0.00  0.00    -0.174 N 
ATOM      2  N   UNL     1      34.693 -22.760 -16.959  0.00  0.00    -0.096 NA
ATOM      3  N   UNL     1      36.503 -21.672 -18.092  0.00  0.00    -0.246 N 
ATOM      4  N   UNL     1      36.845 -23.070 -16.246  0.00  0.00    -0.319 NA
ATOM      5  C   UNL     1      36.031 -23.761 -15.481  0.00  0.00    +0.216 C 
ATOM      6  C   UNL     1      35.987 -22.479 -17.128  0.00  0.00    +0.165 C 
ATOM      7  H   UNL     1      37.472 -21.517 -18.004  0.00  0.00    +0.165 HD
ENDROOT
BRANCH   3  12
ATOM      8  F   UNL     1      35.252 -16.976 -22.674  0.00  0.00    -0.125 F 
ATOM      9  F   UNL     1      35.904 -18.596 -23.992  0.00  0.00    -0.125 F 
ATOM     10  O   UNL     1      36.628 -18.574 -21.843  0.00  0.00    -0.395 OA
ATOM     11  O   UNL     1      34.329 -19.031 -22.421  0.00  0.00    -0.395 OA
ATOM     12  C   UNL     1      35.913 -21.008 -19.203  0.00  0.00    +0.061 C 
ATOM     13  C   UNL     1      36.054 -19.484 -21.007  0.00  0.00    +0.183 C 
ATOM     14  C   UNL     1      36.671 -20.104 -19.940  0.00  0.00    +0.056 C 
ATOM     15  C   UNL     1      34.743 -19.745 -21.338  0.00  0.00    +0.182 C 
ATOM     16  C   UNL     1      34.578 -21.279 -19.531  0.00  0.00    +0.019 C 
ATOM     17  C   UNL     1      33.977 -20.639 -20.618  0.00  0.00    +0.042 C 
ATOM     18  C   UNL     1      35.528 -18.303 -22.722  0.00  0.00    +0.589 C 
ENDBRANCH   3  12
BRANCH   5  20
ATOM     19  N   UNL     1      37.125 -26.191 -12.188  0.00  0.00    -0.242 NA
ATOM     20  C   UNL     1      36.405 -24.587 -14.360  0.00  0.00    +0.050 C 
ATOM     21  C   UNL     1      36.338 -24.081 -13.066  0.00  0.00    +0.025 C 
ATOM     22  C   UNL     1      36.831 -25.894 -14.568  0.00  0.00    +0.025 C 
ATOM     23  C   UNL     1      36.706 -24.916 -12.024  0.00  0.00    +0.099 C 
ATOM     24  C   UNL     1      37.177 -26.648 -13.459  0.00  0.00    +0.099 C 
ENDBRANCH   5  20
BRANCH   1  25
ATOM     25  C   UNL     1      33.536 -24.137 -15.349  0.00  0.00    +0.129 C 
BRANCH  25  26
ATOM     26  C   UNL     1      32.495 -23.060 -15.048  0.00  0.00    +0.109 C 
BRANCH  26  29
ATOM     27  O   UNL     1      31.209 -22.662 -17.031  0.00  0.00    -0.275 OA
ATOM     28  N   UNL     1      30.199 -23.939 -15.379  0.00  0.00    -0.276 N 
ATOM     29  C   UNL     1      31.252 -23.193 -15.918  0.00  0.00    +0.228 C 
ATOM     30  C   UNL     1      30.272 -24.559 -14.058  0.00  0.00    +0.115 C 
ATOM     31  C   UNL     1      28.946 -24.152 -16.094  0.00  0.00    +0.115 C 
ENDBRANCH  26  29
ENDBRANCH  25  26
ENDBRANCH   1  25
TORSDOF 5
ENDMDL
MODEL 3
REMARK VINA RESULT:     -10.7      4.491      8.245
REMARK  Name = 16755766
REMARK  5 active torsions:
REMARK  status: ('A' for Active; 'I' for Inactive)
REMARK    1  A    between atoms: N_1  and  C_25
REMARK    2  A    between atoms: N_3  and  C_12
REMARK    3  A    between atoms: C_5  and  C_20
REMARK    4  A    between atoms: C_25  and  C_26
REMARK    5  A    between atoms: C_26  and  C_29
REMARK                            x       y       z     vdW  Elec       q    Type
REMARK                         _______ _______ _______ _____ _____    ______ ____
ROOT
ATOM      1  N   UNL     1      34.743 -23.446 -15.043  0.00  0.00    -0.174 N 
ATOM      2  N   UNL     1      33.454 -23.531 -15.376  0.00  0.00    -0.096 NA
ATOM      3  N   UNL     1      31.644 -24.357 -14.039  0.00  0.00    -0.246 N 
ATOM      4  N   UNL     1      33.850 -24.301 -13.259  0.00  0.00    -0.319 NA
ATOM      5  C   UNL     1      34.981 -23.901 -13.793  0.00  0.00    +0.216 C 
ATOM      6  C   UNL     1      32.951 -24.057 -14.257  0.00  0.00    +0.165 C 
ATOM      7  H   UNL     1      31.479 -24.818 -13.186  0.00  0.00    +0.165 HD
ENDROOT
BRANCH   3  12
ATOM      8  F   UNL     1      25.666 -21.989 -15.851  0.00  0.00    -0.125 F 
ATOM      9  F   UNL     1      26.883 -21.165 -17.471  0.00  0.00    -0.125 F 
ATOM     10  O   UNL     1      27.877 -21.638 -15.489  0.00  0.00    -0.395 OA
ATOM     11  O   UNL     1      27.076 -23.367 -16.972  0.00  0.00    -0.395 OA
ATOM     12  C   UNL     1      30.469 -24.133 -14.810  0.00  0.00    +0.061 C 
ATOM     13  C   UNL     1      28.664 -22.750 -15.462  0.00  0.00    +0.183 C 
ATOM     14  C   UNL     1      29.799 -22.919 -14.696  0.00  0.00    +0.056 C 
ATOM     15  C   UNL     1      28.207 -23.736 -16.309  0.00  0.00    +0.182 C 
ATOM     16  C   UNL     1      30.011 -25.143 -15.668  0.00  0.00    +0.019 C 
ATOM     17  C   UNL     1      28.860 -24.945 -16.434  0.00  0.00    +0.042 C 
ATOM     18  C   UNL     1      26.886 -22.048 -16.442  0.00  0.00    +0.589 C 
ENDBRANCH   3  12
BRANCH   5  20
ATOM     19  N   UNL     1      38.802 -23.997 -11.966  0.00  0.00    -0.242 NA
ATOM     20  C   UNL     1      36.281 -23.935 -13.170  0.00  0.00    +0.050 C 
ATOM     21  C   UNL     1      37.209 -24.903 -13.543  0.00  0.00    +0.025 C 
ATOM     22  C   UNL     1      36.613 -23.000 -12.197  0.00  0.00    +0.025 C 
ATOM     23  C   UNL     1      38.444 -24.890 -12.916  0.00  0.00    +0.099 C 
ATOM     24  C   UNL     1      37.875 -23.073 -11.630  0.00  0.00    +0.099 C 
ENDBRANCH   5  20
BRANCH   1  25
ATOM     25  C   UNL     1      35.702 -22.917 -16.006  0.00  0.00    +0.129 C 
BRANCH  25  26
ATOM     26  C   UNL     1      35.086 -22.743 -17.394  0.00  0.00    +0.109 C 
BRANCH  26  29
ATOM     27  O   UNL     1      37.132 -21.686 -18.059  0.00  0.00    -0.275 OA
ATOM     28  N   UNL     1      35.273 -21.273 -19.383  0.00  0.00    -0.276 N 
ATOM     29  C   UNL     1      35.933 -21.858 -18.298  0.00  0.00    +0.228 C 
ATOM     30  C   UNL     1      33.852 -21.490 -19.646  0.00  0.00    +0.115 C 
ATOM     31  C   UNL     1      35.952 -20.401 -20.334  0.00  0.00    +0.115 C 
ENDBRANCH  26  29
ENDBRANCH  25  26
ENDBRANCH   1  25
TORSDOF 5
ENDMDL
MODEL 4
REMARK VINA RESULT:     -10.5      4.059      7.705
REMARK  Name = 16755766
REMARK  5 active torsions:
REMARK  status: ('A' for Active; 'I' for Inactive)
REMARK    1  A    between atoms: N_1  and  C_25
REMARK    2  A    between atoms: N_3  and  C_12
REMARK    3  A    between atoms: C_5  and  C_20
REMARK    4  A    between atoms: C_25  and  C_26
REMARK    5  A    between atoms: C_26  and  C_29
REMARK                            x       y       z     vdW  Elec       q    Type
REMARK                         _______ _______ _______ _____ _____    ______ ____
ROOT
ATOM      1  N   UNL     1      33.751 -23.200 -16.677  0.00  0.00    -0.174 N 
ATOM      2  N   UNL     1      34.197 -22.459 -17.694  0.00  0.00    -0.096 NA
ATOM      3  N   UNL     1      32.900 -21.325 -19.361  0.00  0.00    -0.246 N 
ATOM      4  N   UNL     1      31.913 -22.585 -17.653  0.00  0.00    -0.319 NA
ATOM      5  C   UNL     1      32.403 -23.277 -16.650  0.00  0.00    +0.216 C 
ATOM      6  C   UNL     1      33.039 -22.107 -18.258  0.00  0.00    +0.165 C 
ATOM      7  H   UNL     1      31.972 -21.248 -19.678  0.00  0.00    +0.165 HD
ENDROOT
BRANCH   3  12
ATOM      8  F   UNL     1      35.520 -17.885 -24.452  0.00  0.00    -0.125 F 
ATOM      9  F   UNL     1      35.646 -16.361 -22.889  0.00  0.00    -0.125 F 
ATOM     10  O   UNL     1      34.081 -17.991 -22.704  0.00  0.00    -0.395 OA
ATOM     11  O   UNL     1      36.441 -18.439 -22.456  0.00  0.00    -0.395 OA
ATOM     12  C   UNL     1      33.840 -20.598 -20.144  0.00  0.00    +0.061 C 
ATOM     13  C   UNL     1      34.331 -18.961 -21.780  0.00  0.00    +0.183 C 
ATOM     14  C   UNL     1      33.382 -19.639 -21.042  0.00  0.00    +0.056 C 
ATOM     15  C   UNL     1      35.678 -19.215 -21.638  0.00  0.00    +0.182 C 
ATOM     16  C   UNL     1      35.207 -20.865 -19.994  0.00  0.00    +0.019 C 
ATOM     17  C   UNL     1      36.147 -20.163 -20.752  0.00  0.00    +0.042 C 
ATOM     18  C   UNL     1      35.419 -17.679 -23.115  0.00  0.00    +0.589 C 
ENDBRANCH   3  12
BRANCH   5  20
ATOM     19  N   UNL     1      30.177 -25.438 -13.764  0.00  0.00    -0.242 NA
ATOM     20  C   UNL     1      31.647 -24.014 -15.668  0.00  0.00    +0.050 C 
ATOM     21  C   UNL     1      32.213 -24.320 -14.435  0.00  0.00    +0.025 C 
ATOM     22  C   UNL     1      30.347 -24.419 -15.950  0.00  0.00    +0.025 C 
ATOM     23  C   UNL     1      31.443 -25.027 -13.526  0.00  0.00    +0.099 C 
ATOM     24  C   UNL     1      29.661 -25.122 -14.973  0.00  0.00    +0.099 C 
ENDBRANCH   5  20
BRANCH   1  25
ATOM     25  C   UNL     1      34.707 -23.819 -15.766  0.00  0.00    +0.129 C 
BRANCH  25  26
ATOM     26  C   UNL     1      35.521 -22.782 -14.994  0.00  0.00    +0.109 C 
BRANCH  26  29
ATOM     27  O   UNL     1      37.838 -23.378 -15.143  0.00  0.00    -0.275 OA
ATOM     28  N   UNL     1      36.777 -23.836 -13.132  0.00  0.00    -0.276 N 
ATOM     29  C   UNL     1      36.821 -23.354 -14.445  0.00  0.00    +0.228 C 
ATOM     30  C   UNL     1      35.561 -23.799 -12.323  0.00  0.00    +0.115 C 
ATOM     31  C   UNL     1      37.942 -24.414 -12.473  0.00  0.00    +0.115 C 
ENDBRANCH  26  29
ENDBRANCH  25  26
ENDBRANCH   1  25
TORSDOF 5
ENDMDL
MODEL 5
REMARK VINA RESULT:      -9.7      6.517     10.595
REMARK  Name = 16755766
REMARK  5 active torsions:
REMARK  status: ('A' for Active; 'I' for Inactive)
REMARK    1  A    between atoms: N_1  and  C_25
REMARK    2  A    between atoms: N_3  and  C_12
REMARK    3  A    between atoms: C_5  and  C_20
REMARK    4  A    between atoms: C_25  and  C_26
REMARK    5  A    between atoms: C_26  and  C_29
REMARK                            x       y       z     vdW  Elec       q    Type
REMARK                         _______ _______ _______ _____ _____    ______ ____
ROOT
ATOM      1  N   UNL     1      34.049 -15.565 -22.010  0.00  0.00    -0.174 N 
ATOM      2  N   UNL     1      34.176 -16.739 -21.389  0.00  0.00    -0.096 NA
ATOM      3  N   UNL     1      34.285 -18.918 -22.381  0.00  0.00    -0.246 N 
ATOM      4  N   UNL     1      34.054 -16.973 -23.662  0.00  0.00    -0.319 NA
ATOM      5  C   UNL     1      33.977 -15.699 -23.352  0.00  0.00    +0.216 C 
ATOM      6  C   UNL     1      34.174 -17.565 -22.438  0.00  0.00    +0.165 C 
ATOM      7  H   UNL     1      34.176 -19.363 -23.252  0.00  0.00    +0.165 HD
ENDROOT
BRANCH   3  12
ATOM      8  F   UNL     1      33.282 -22.493 -16.828  0.00  0.00    -0.125 F 
ATOM      9  F   UNL     1      33.590 -24.124 -18.252  0.00  0.00    -0.125 F 
ATOM     10  O   UNL     1      32.838 -22.128 -19.020  0.00  0.00    -0.395 OA
ATOM     11  O   UNL     1      35.088 -22.425 -18.197  0.00  0.00    -0.395 OA
ATOM     12  C   UNL     1      34.526 -19.815 -21.303  0.00  0.00    +0.061 C 
ATOM     13  C   UNL     1      33.743 -21.366 -19.697  0.00  0.00    +0.183 C 
ATOM     14  C   UNL     1      33.459 -20.508 -20.740  0.00  0.00    +0.056 C 
ATOM     15  C   UNL     1      35.027 -21.536 -19.227  0.00  0.00    +0.182 C 
ATOM     16  C   UNL     1      35.835 -19.981 -20.831  0.00  0.00    +0.019 C 
ATOM     17  C   UNL     1      36.095 -20.857 -19.774  0.00  0.00    +0.042 C 
ATOM     18  C   UNL     1      33.704 -22.783 -18.084  0.00  0.00    +0.589 C 
ENDBRANCH   3  12
BRANCH   5  20
ATOM     19  N   UNL     1      33.552 -12.476 -26.070  0.00  0.00    -0.242 NA
ATOM     20  C   UNL     1      33.831 -14.601 -24.276  0.00  0.00    +0.050 C 
ATOM     21  C   UNL     1      34.289 -13.333 -23.933  0.00  0.00    +0.025 C 
ATOM     22  C   UNL     1      33.235 -14.807 -25.515  0.00  0.00    +0.025 C 
ATOM     23  C   UNL     1      34.127 -12.314 -24.857  0.00  0.00    +0.099 C 
ATOM     24  C   UNL     1      33.120 -13.722 -26.368  0.00  0.00    +0.099 C 
ENDBRANCH   5  20
BRANCH   1  25
ATOM     25  C   UNL     1      33.993 -14.338 -21.224  0.00  0.00    +0.129 C 
BRANCH  25  26
ATOM     26  C   UNL     1      32.588 -14.059 -20.692  0.00  0.00    +0.109 C 
BRANCH  26  29
ATOM     27  O   UNL     1      31.642 -13.122 -22.686  0.00  0.00    -0.275 OA
ATOM     28  N   UNL     1      31.510 -11.825 -20.767  0.00  0.00    -0.276 N 
ATOM     29  C   UNL     1      31.873 -12.971 -21.483  0.00  0.00    +0.228 C 
ATOM     30  C   UNL     1      31.794 -11.668 -19.343  0.00  0.00    +0.115 C 
ATOM     31  C   UNL     1      30.822 -10.701 -21.389  0.00  0.00    +0.115 C 
ENDBRANCH  26  29
ENDBRANCH  25  26
ENDBRANCH   1  25
TORSDOF 5
ENDMDL
MODEL 6
REMARK VINA RESULT:      -9.6      2.759      5.802
REMARK  Name = 16755766
REMARK  5 active torsions:
REMARK  status: ('A' for Active; 'I' for Inactive)
REMARK    1  A    between atoms: N_1  and  C_25
REMARK    2  A    between atoms: N_3  and  C_12
REMARK    3  A    between atoms: C_5  and  C_20
REMARK    4  A    between atoms: C_25  and  C_26
REMARK    5  A    between atoms: C_26  and  C_29
REMARK                            x       y       z     vdW  Elec       q    Type
REMARK                         _______ _______ _______ _____ _____    ______ ____
ROOT
ATOM      1  N   UNL     1      34.771 -22.014 -18.258  0.00  0.00    -0.174 N 
ATOM      2  N   UNL     1      35.262 -22.611 -17.170  0.00  0.00    -0.096 NA
ATOM      3  N   UNL     1      37.475 -22.426 -16.269  0.00  0.00    -0.246 N 
ATOM      4  N   UNL     1      36.816 -21.289 -18.205  0.00  0.00    -0.319 NA
ATOM      5  C   UNL     1      35.686 -21.233 -18.871  0.00  0.00    +0.216 C 
ATOM      6  C   UNL     1      36.510 -22.138 -17.181  0.00  0.00    +0.165 C 
ATOM      7  H   UNL     1      38.358 -22.051 -16.491  0.00  0.00    +0.165 HD
ENDROOT
BRANCH   3  12
ATOM      8  F   UNL     1      36.546 -23.918  -9.824  0.00  0.00    -0.125 F 
ATOM      9  F   UNL     1      35.173 -25.361 -10.727  0.00  0.00    -0.125 F 
ATOM     10  O   UNL     1      35.676 -23.468 -11.868  0.00  0.00    -0.395 OA
ATOM     11  O   UNL     1      37.292 -25.227 -11.518  0.00  0.00    -0.395 OA
ATOM     12  C   UNL     1      37.455 -23.168 -15.054  0.00  0.00    +0.061 C 
ATOM     13  C   UNL     1      36.523 -23.613 -12.926  0.00  0.00    +0.183 C 
ATOM     14  C   UNL     1      36.502 -22.867 -14.087  0.00  0.00    +0.056 C 
ATOM     15  C   UNL     1      37.445 -24.617 -12.725  0.00  0.00    +0.182 C 
ATOM     16  C   UNL     1      38.397 -24.187 -14.859  0.00  0.00    +0.019 C 
ATOM     17  C   UNL     1      38.396 -24.928 -13.675  0.00  0.00    +0.042 C 
ATOM     18  C   UNL     1      36.177 -24.491 -10.997  0.00  0.00    +0.589 C 
ENDBRANCH   3  12
BRANCH   5  20
ATOM     19  N   UNL     1      34.956 -18.995 -22.394  0.00  0.00    -0.242 NA
ATOM     20  C   UNL     1      35.437 -20.473 -20.072  0.00  0.00    +0.050 C 
ATOM     21  C   UNL     1      34.155 -20.415 -20.609  0.00  0.00    +0.025 C 
ATOM     22  C   UNL     1      36.477 -19.792 -20.694  0.00  0.00    +0.025 C 
ATOM     23  C   UNL     1      33.969 -19.669 -21.762  0.00  0.00    +0.099 C 
ATOM     24  C   UNL     1      36.187 -19.074 -21.843  0.00  0.00    +0.099 C 
ENDBRANCH   5  20
BRANCH   1  25
ATOM     25  C   UNL     1      33.389 -22.261 -18.651  0.00  0.00    +0.129 C 
BRANCH  25  26
ATOM     26  C   UNL     1      32.747 -23.377 -17.828  0.00  0.00    +0.109 C 
BRANCH  26  29
ATOM     27  O   UNL     1      30.725 -22.215 -17.277  0.00  0.00    -0.275 OA
ATOM     28  N   UNL     1      31.903 -23.141 -15.507  0.00  0.00    -0.276 N 
ATOM     29  C   UNL     1      31.695 -22.854 -16.860  0.00  0.00    +0.228 C 
ATOM     30  C   UNL     1      33.060 -23.900 -15.036  0.00  0.00    +0.115 C 
ATOM     31  C   UNL     1      30.983 -22.705 -14.464  0.00  0.00    +0.115 C 
ENDBRANCH  26  29
ENDBRANCH  25  26
ENDBRANCH   1  25
TORSDOF 5
ENDMDL
MODEL 7
REMARK VINA RESULT:      -9.4      9.910     13.955
REMARK  Name = 16755766
REMARK  5 active torsions:
REMARK  status: ('A' for Active; 'I' for Inactive)
REMARK    1  A    between atoms: N_1  and  C_25
REMARK    2  A    between atoms: N_3  and  C_12
REMARK    3  A    between atoms: C_5  and  C_20
REMARK    4  A    between atoms: C_25  and  C_26
REMARK    5  A    between atoms: C_26  and  C_29
REMARK                            x       y       z     vdW  Elec       q    Type
REMARK                         _______ _______ _______ _____ _____    ______ ____
ROOT
ATOM      1  N   UNL     1      33.650 -15.684 -22.382  0.00  0.00    -0.174 N 
ATOM      2  N   UNL     1      33.210 -14.431 -22.251  0.00  0.00    -0.096 NA
ATOM      3  N   UNL     1      32.301 -13.393 -20.291  0.00  0.00    -0.246 N 
ATOM      4  N   UNL     1      33.015 -15.622 -20.308  0.00  0.00    -0.319 NA
ATOM      5  C   UNL     1      33.536 -16.390 -21.237  0.00  0.00    +0.216 C 
ATOM      6  C   UNL     1      32.834 -14.442 -20.970  0.00  0.00    +0.165 C 
ATOM      7  H   UNL     1      32.007 -13.618 -19.379  0.00  0.00    +0.165 HD
ENDROOT
BRANCH   3  12
ATOM      8  F   UNL     1      32.707  -7.626 -23.637  0.00  0.00    -0.125 F 
ATOM      9  F   UNL     1      30.567  -8.019 -23.861  0.00  0.00    -0.125 F 
ATOM     10  O   UNL     1      31.971  -9.767 -23.520  0.00  0.00    -0.395 OA
ATOM     11  O   UNL     1      31.491  -8.146 -21.796  0.00  0.00    -0.395 OA
ATOM     12  C   UNL     1      32.087 -12.032 -20.646  0.00  0.00    +0.061 C 
ATOM     13  C   UNL     1      31.944 -10.324 -22.277  0.00  0.00    +0.183 C 
ATOM     14  C   UNL     1      32.158 -11.656 -21.984  0.00  0.00    +0.056 C 
ATOM     15  C   UNL     1      31.670  -9.399 -21.294  0.00  0.00    +0.182 C 
ATOM     16  C   UNL     1      31.810 -11.098 -19.638  0.00  0.00    +0.019 C 
ATOM     17  C   UNL     1      31.596  -9.756 -19.963  0.00  0.00    +0.042 C 
ATOM     18  C   UNL     1      31.685  -8.400 -23.194  0.00  0.00    +0.589 C 
ENDBRANCH   3  12
BRANCH   5  20
ATOM     19  N   UNL     1      34.686 -20.445 -20.799  0.00  0.00    -0.242 NA
ATOM     20  C   UNL     1      33.927 -17.771 -21.086  0.00  0.00    +0.050 C 
ATOM     21  C   UNL     1      32.961 -18.753 -20.891  0.00  0.00    +0.025 C 
ATOM     22  C   UNL     1      35.270 -18.124 -21.138  0.00  0.00    +0.025 C 
ATOM     23  C   UNL     1      33.389 -20.063 -20.755  0.00  0.00    +0.099 C 
ATOM     24  C   UNL     1      35.594 -19.463 -20.990  0.00  0.00    +0.099 C 
ENDBRANCH   5  20
BRANCH   1  25
ATOM     25  C   UNL     1      34.164 -16.135 -23.670  0.00  0.00    +0.129 C 
BRANCH  25  26
ATOM     26  C   UNL     1      34.511 -14.966 -24.592  0.00  0.00    +0.109 C 
BRANCH  26  29
ATOM     27  O   UNL     1      33.172 -15.903 -26.345  0.00  0.00    -0.275 OA
ATOM     28  N   UNL     1      33.234 -13.589 -26.212  0.00  0.00    -0.276 N 
ATOM     29  C   UNL     1      33.580 -14.878 -25.794  0.00  0.00    +0.228 C 
ATOM     30  C   UNL     1      33.729 -12.388 -25.544  0.00  0.00    +0.115 C 
ATOM     31  C   UNL     1      32.353 -13.346 -27.348  0.00  0.00    +0.115 C 
ENDBRANCH  26  29
ENDBRANCH  25  26
ENDBRANCH   1  25
TORSDOF 5
ENDMDL
MODEL 8
REMARK VINA RESULT:      -8.9      4.690      8.264
REMARK  Name = 16755766
REMARK  5 active torsions:
REMARK  status: ('A' for Active; 'I' for Inactive)
REMARK    1  A    between atoms: N_1  and  C_25
REMARK    2  A    between atoms: N_3  and  C_12
REMARK    3  A    between atoms: C_5  and  C_20
REMARK    4  A    between atoms: C_25  and  C_26
REMARK    5  A    between atoms: C_26  and  C_29
REMARK                            x       y       z     vdW  Elec       q    Type
REMARK                         _______ _______ _______ _____ _____    ______ ____
ROOT
ATOM      1  N   UNL     1      34.106 -18.597 -21.128  0.00  0.00    -0.174 N 
ATOM      2  N   UNL     1      34.335 -19.427 -20.109  0.00  0.00    -0.096 NA
ATOM      3  N   UNL     1      35.803 -21.321 -20.062  0.00  0.00    -0.246 N 
ATOM      4  N   UNL     1      35.542 -19.990 -21.969  0.00  0.00    -0.319 NA
ATOM      5  C   UNL     1      34.817 -18.926 -22.228  0.00  0.00    +0.216 C 
ATOM      6  C   UNL     1      35.217 -20.257 -20.671  0.00  0.00    +0.165 C 
ATOM      7  H   UNL     1      36.360 -21.866 -20.663  0.00  0.00    +0.165 HD
ENDROOT
BRANCH   3  12
ATOM      8  F   UNL     1      33.401 -23.229 -14.128  0.00  0.00    -0.125 F 
ATOM      9  F   UNL     1      34.299 -25.116 -14.774  0.00  0.00    -0.125 F 
ATOM     10  O   UNL     1      33.654 -23.616 -16.347  0.00  0.00    -0.395 OA
ATOM     11  O   UNL     1      35.537 -23.221 -14.888  0.00  0.00    -0.395 OA
ATOM     12  C   UNL     1      35.766 -21.798 -18.722  0.00  0.00    +0.061 C 
ATOM     13  C   UNL     1      34.655 -22.928 -16.966  0.00  0.00    +0.183 C 
ATOM     14  C   UNL     1      34.644 -22.486 -18.273  0.00  0.00    +0.056 C 
ATOM     15  C   UNL     1      35.729 -22.704 -16.133  0.00  0.00    +0.182 C 
ATOM     16  C   UNL     1      36.864 -21.564 -17.882  0.00  0.00    +0.019 C 
ATOM     17  C   UNL     1      36.850 -22.024 -16.563  0.00  0.00    +0.042 C 
ATOM     18  C   UNL     1      34.230 -23.789 -15.045  0.00  0.00    +0.589 C 
ENDBRANCH   3  12
BRANCH   5  20
ATOM     19  N   UNL     1      34.660 -16.817 -25.900  0.00  0.00    -0.242 NA
ATOM     20  C   UNL     1      34.765 -18.209 -23.479  0.00  0.00    +0.050 C 
ATOM     21  C   UNL     1      34.128 -18.772 -24.580  0.00  0.00    +0.025 C 
ATOM     22  C   UNL     1      35.349 -16.952 -23.587  0.00  0.00    +0.025 C 
ATOM     23  C   UNL     1      34.104 -18.041 -25.757  0.00  0.00    +0.099 C 
ATOM     24  C   UNL     1      35.270 -16.304 -24.809  0.00  0.00    +0.099 C 
ENDBRANCH   5  20
BRANCH   1  25
ATOM     25  C   UNL     1      33.162 -17.498 -20.961  0.00  0.00    +0.129 C 
BRANCH  25  26
ATOM     26  C   UNL     1      33.866 -16.145 -20.863  0.00  0.00    +0.109 C 
BRANCH  26  29
ATOM     27  O   UNL     1      32.164 -15.052 -19.577  0.00  0.00    -0.275 OA
ATOM     28  N   UNL     1      32.904 -13.941 -21.473  0.00  0.00    -0.276 N 
ATOM     29  C   UNL     1      32.899 -15.007 -20.567  0.00  0.00    +0.228 C 
ATOM     30  C   UNL     1      33.783 -13.908 -22.640  0.00  0.00    +0.115 C 
ATOM     31  C   UNL     1      32.033 -12.782 -21.322  0.00  0.00    +0.115 C 
ENDBRANCH  26  29
ENDBRANCH  25  26
ENDBRANCH   1  25
TORSDOF 5
ENDMDL
MODEL 9
REMARK VINA RESULT:      -8.8     11.611     16.281
REMARK  Name = 16755766
REMARK  5 active torsions:
REMARK  status: ('A' for Active; 'I' for Inactive)
REMARK    1  A    between atoms: N_1  and  C_25
REMARK    2  A    between atoms: N_3  and  C_12
REMARK    3  A    between atoms: C_5  and  C_20
REMARK    4  A    between atoms: C_25  and  C_26
REMARK    5  A    between atoms: C_26  and  C_29
REMARK                            x       y       z     vdW  Elec       q    Type
REMARK                         _______ _______ _______ _____ _____    ______ ____
ROOT
ATOM      1  N   UNL     1      32.762 -13.171 -22.842  0.00  0.00    -0.174 N 
ATOM      2  N   UNL     1      32.632 -11.883 -22.518  0.00  0.00    -0.096 NA
ATOM      3  N   UNL     1      33.442  -9.978 -23.727  0.00  0.00    -0.246 N 
ATOM      4  N   UNL     1      33.785 -12.170 -24.473  0.00  0.00    -0.319 NA
ATOM      5  C   UNL     1      33.442 -13.344 -23.995  0.00  0.00    +0.216 C 
ATOM      6  C   UNL     1      33.271 -11.313 -23.543  0.00  0.00    +0.165 C 
ATOM      7  H   UNL     1      34.014  -9.753 -24.496  0.00  0.00    +0.165 HD
ENDROOT
BRANCH   3  12
ATOM      8  F   UNL     1      30.912  -3.907 -22.559  0.00  0.00    -0.125 F 
ATOM      9  F   UNL     1      29.320  -5.130 -21.692  0.00  0.00    -0.125 F 
ATOM     10  O   UNL     1      30.630  -6.027 -23.310  0.00  0.00    -0.395 OA
ATOM     11  O   UNL     1      31.466  -5.548 -21.096  0.00  0.00    -0.395 OA
ATOM     12  C   UNL     1      32.953  -8.843 -23.022  0.00  0.00    +0.061 C 
ATOM     13  C   UNL     1      31.556  -6.938 -22.897  0.00  0.00    +0.183 C 
ATOM     14  C   UNL     1      31.999  -8.027 -23.620  0.00  0.00    +0.056 C 
ATOM     15  C   UNL     1      32.032  -6.664 -21.633  0.00  0.00    +0.182 C 
ATOM     16  C   UNL     1      33.444  -8.573 -21.737  0.00  0.00    +0.019 C 
ATOM     17  C   UNL     1      32.978  -7.465 -21.026  0.00  0.00    +0.042 C 
ATOM     18  C   UNL     1      30.590  -5.165 -22.165  0.00  0.00    +0.589 C 
ENDBRANCH   3  12
BRANCH   5  20
ATOM     19  N   UNL     1      34.303 -17.115 -25.726  0.00  0.00    -0.242 NA
ATOM     20  C   UNL     1      33.737 -14.627 -24.585  0.00  0.00    +0.050 C 
ATOM     21  C   UNL     1      34.700 -15.452 -24.015  0.00  0.00    +0.025 C 
ATOM     22  C   UNL     1      33.056 -15.044 -25.723  0.00  0.00    +0.025 C 
ATOM     23  C   UNL     1      34.944 -16.676 -24.619  0.00  0.00    +0.099 C 
ATOM     24  C   UNL     1      33.374 -16.285 -26.250  0.00  0.00    +0.099 C 
ENDBRANCH   5  20
BRANCH   1  25
ATOM     25  C   UNL     1      32.201 -14.192 -21.965  0.00  0.00    +0.129 C 
BRANCH  25  26
ATOM     26  C   UNL     1      32.937 -14.269 -20.627  0.00  0.00    +0.109 C 
BRANCH  26  29
ATOM     27  O   UNL     1      35.319 -14.536 -20.625  0.00  0.00    -0.275 OA
ATOM     28  N   UNL     1      34.059 -16.464 -20.898  0.00  0.00    -0.276 N 
ATOM     29  C   UNL     1      34.218 -15.087 -20.715  0.00  0.00    +0.228 C 
ATOM     30  C   UNL     1      32.746 -17.095 -21.000  0.00  0.00    +0.115 C 
ATOM     31  C   UNL     1      35.193 -17.375 -21.001  0.00  0.00    +0.115 C 
ENDBRANCH  26  29
ENDBRANCH  25  26
ENDBRANCH   1  25
TORSDOF 5
ENDMDL
