MODEL 1
REMARK VINA RESULT:      -8.6      0.000      0.000
REMARK  Name = 776315
REMARK  4 active torsions:
REMARK  status: ('A' for Active; 'I' for Inactive)
REMARK    1  A    between atoms: C_2  and  C_6
REMARK    2  A    between atoms: C_4  and  C_15
REMARK    3  A    between atoms: C_7  and  O_12
REMARK    4  A    between atoms: C_15  and  O_16
REMARK                            x       y       z     vdW  Elec       q    Type
REMARK                         _______ _______ _______ _____ _____    ______ ____
ROOT
ATOM      1  O   UNL     1      34.221 -20.411 -20.833  0.00  0.00    -0.447 OA
ATOM      2  C   UNL     1      35.314 -19.680 -21.158  0.00  0.00    +0.149 C 
ATOM      3  C   UNL     1      36.394 -20.038 -20.396  0.00  0.00    +0.041 C 
ATOM      4  C   UNL     1      34.609 -21.256 -19.842  0.00  0.00    +0.220 C 
ATOM      5  C   UNL     1      35.936 -21.065 -19.536  0.00  0.00    +0.047 C 
ENDROOT
BRANCH   2   6
ATOM      6  C   UNL     1      35.110 -18.708 -22.208  0.00  0.00    +0.068 C 
ATOM      7  C   UNL     1      35.071 -17.343 -21.921  0.00  0.00    +0.142 C 
ATOM      8  C   UNL     1      34.951 -19.150 -23.520  0.00  0.00    +0.006 C 
ATOM      9  C   UNL     1      34.873 -16.421 -22.947  0.00  0.00    +0.037 C 
ATOM     10  C   UNL     1      34.752 -18.227 -24.547  0.00  0.00    +0.000 C 
ATOM     11  C   UNL     1      34.713 -16.862 -24.261  0.00  0.00    +0.003 C 
BRANCH   7  12
ATOM     12  O   UNL     1      35.225 -16.883 -20.646  0.00  0.00    -0.471 OA
ATOM     13  C   UNL     1      34.621 -15.629 -20.335  0.00  0.00    +0.252 C 
ENDBRANCH   7  12
ENDBRANCH   2   6
BRANCH   4  15
ATOM     14  O   UNL     1      32.537 -21.836 -18.795  0.00  0.00    -0.242 OA
ATOM     15  C   UNL     1      33.637 -22.149 -19.309  0.00  0.00    +0.373 C 
BRANCH  15  16
ATOM     16  O   UNL     1      33.995 -23.471 -19.398  0.00  0.00    -0.475 OA
ATOM     17  H   UNL     1      33.687 -23.993 -20.113  0.00  0.00    +0.296 HD
ENDBRANCH  15  16
ENDBRANCH   4  15
TORSDOF 4
ENDMDL
MODEL 2
REMARK VINA RESULT:      -8.4      1.288      1.744
REMARK  Name = 776315
REMARK  4 active torsions:
REMARK  status: ('A' for Active; 'I' for Inactive)
REMARK    1  A    between atoms: C_2  and  C_6
REMARK    2  A    between atoms: C_4  and  C_15
REMARK    3  A    between atoms: C_7  and  O_12
REMARK    4  A    between atoms: C_15  and  O_16
REMARK                            x       y       z     vdW  Elec       q    Type
REMARK                         _______ _______ _______ _____ _____    ______ ____
ROOT
ATOM      1  O   UNL     1      35.188 -20.147 -20.755  0.00  0.00    -0.447 OA
ATOM      2  C   UNL     1      34.125 -19.550 -21.349  0.00  0.00    +0.149 C 
ATOM      3  C   UNL     1      32.946 -19.981 -20.803  0.00  0.00    +0.041 C 
ATOM      4  C   UNL     1      34.677 -20.977 -19.809  0.00  0.00    +0.220 C 
ATOM      5  C   UNL     1      33.303 -20.912 -19.798  0.00  0.00    +0.047 C 
ENDROOT
BRANCH   2   6
ATOM      6  C   UNL     1      34.458 -18.616 -22.400  0.00  0.00    +0.068 C 
ATOM      7  C   UNL     1      34.803 -17.297 -22.102  0.00  0.00    +0.142 C 
ATOM      8  C   UNL     1      34.429 -19.047 -23.726  0.00  0.00    +0.006 C 
ATOM      9  C   UNL     1      35.119 -16.411 -23.131  0.00  0.00    +0.037 C 
ATOM     10  C   UNL     1      34.745 -18.159 -24.755  0.00  0.00    +0.000 C 
ATOM     11  C   UNL     1      35.091 -16.841 -24.457  0.00  0.00    +0.003 C 
BRANCH   7  12
ATOM     12  O   UNL     1      34.840 -16.849 -20.815  0.00  0.00    -0.471 OA
ATOM     13  C   UNL     1      34.529 -15.474 -20.601  0.00  0.00    +0.252 C 
ENDBRANCH   7  12
ENDBRANCH   2   6
BRANCH   4  15
ATOM     14  O   UNL     1      36.836 -21.593 -18.982  0.00  0.00    -0.242 OA
ATOM     15  C   UNL     1      35.592 -21.737 -19.026  0.00  0.00    +0.373 C 
BRANCH  15  16
ATOM     16  O   UNL     1      34.991 -22.708 -18.264  0.00  0.00    -0.475 OA
ATOM     17  H   UNL     1      35.368 -22.960 -17.444  0.00  0.00    +0.296 HD
ENDBRANCH  15  16
ENDBRANCH   4  15
TORSDOF 4
ENDMDL
MODEL 3
REMARK VINA RESULT:      -8.2      1.230      2.387
REMARK  Name = 776315
REMARK  4 active torsions:
REMARK  status: ('A' for Active; 'I' for Inactive)
REMARK    1  A    between atoms: C_2  and  C_6
REMARK    2  A    between atoms: C_4  and  C_15
REMARK    3  A    between atoms: C_7  and  O_12
REMARK    4  A    between atoms: C_15  and  O_16
REMARK                            x       y       z     vdW  Elec       q    Type
REMARK                         _______ _______ _______ _____ _____    ______ ____
ROOT
ATOM      1  O   UNL     1      34.420 -19.554 -20.663  0.00  0.00    -0.447 OA
ATOM      2  C   UNL     1      35.480 -18.786 -21.013  0.00  0.00    +0.149 C 
ATOM      3  C   UNL     1      36.662 -19.410 -20.715  0.00  0.00    +0.041 C 
ATOM      4  C   UNL     1      34.934 -20.693 -20.130  0.00  0.00    +0.220 C 
ATOM      5  C   UNL     1      36.309 -20.653 -20.138  0.00  0.00    +0.047 C 
ENDROOT
BRANCH   2   6
ATOM      6  C   UNL     1      35.145 -17.513 -21.607  0.00  0.00    +0.068 C 
ATOM      7  C   UNL     1      35.172 -17.340 -22.992  0.00  0.00    +0.142 C 
ATOM      8  C   UNL     1      34.791 -16.449 -20.779  0.00  0.00    +0.006 C 
ATOM      9  C   UNL     1      34.846 -16.103 -23.546  0.00  0.00    +0.037 C 
ATOM     10  C   UNL     1      34.464 -15.211 -21.334  0.00  0.00    +0.000 C 
ATOM     11  C   UNL     1      34.492 -15.038 -22.718  0.00  0.00    +0.003 C 
BRANCH   7  12
ATOM     12  O   UNL     1      35.515 -18.363 -23.826  0.00  0.00    -0.471 OA
ATOM     13  C   UNL     1      34.495 -18.862 -24.689  0.00  0.00    +0.252 C 
ENDBRANCH   7  12
ENDBRANCH   2   6
BRANCH   4  15
ATOM     14  O   UNL     1      32.770 -21.636 -19.739  0.00  0.00    -0.242 OA
ATOM     15  C   UNL     1      34.021 -21.686 -19.674  0.00  0.00    +0.373 C 
BRANCH  15  16
ATOM     16  O   UNL     1      34.632 -22.784 -19.121  0.00  0.00    -0.475 OA
ATOM     17  H   UNL     1      34.404 -23.060 -18.255  0.00  0.00    +0.296 HD
ENDBRANCH  15  16
ENDBRANCH   4  15
TORSDOF 4
ENDMDL
MODEL 4
REMARK VINA RESULT:      -8.1      5.108      8.146
REMARK  Name = 776315
REMARK  4 active torsions:
REMARK  status: ('A' for Active; 'I' for Inactive)
REMARK    1  A    between atoms: C_2  and  C_6
REMARK    2  A    between atoms: C_4  and  C_15
REMARK    3  A    between atoms: C_7  and  O_12
REMARK    4  A    between atoms: C_15  and  O_16
REMARK                            x       y       z     vdW  Elec       q    Type
REMARK                         _______ _______ _______ _____ _____    ______ ____
ROOT
ATOM      1  O   UNL     1      35.420 -25.233 -15.457  0.00  0.00    -0.447 OA
ATOM      2  C   UNL     1      35.049 -23.971 -15.127  0.00  0.00    +0.149 C 
ATOM      3  C   UNL     1      36.057 -23.313 -14.475  0.00  0.00    +0.041 C 
ATOM      4  C   UNL     1      36.693 -25.384 -15.007  0.00  0.00    +0.220 C 
ATOM      5  C   UNL     1      37.131 -24.232 -14.395  0.00  0.00    +0.047 C 
ENDROOT
BRANCH   2   6
ATOM      6  C   UNL     1      33.708 -23.605 -15.523  0.00  0.00    +0.068 C 
ATOM      7  C   UNL     1      33.423 -23.252 -16.842  0.00  0.00    +0.142 C 
ATOM      8  C   UNL     1      32.694 -23.606 -14.566  0.00  0.00    +0.006 C 
ATOM      9  C   UNL     1      32.123 -22.901 -17.204  0.00  0.00    +0.037 C 
ATOM     10  C   UNL     1      31.393 -23.255 -14.929  0.00  0.00    +0.000 C 
ATOM     11  C   UNL     1      31.108 -22.902 -16.248  0.00  0.00    +0.003 C 
BRANCH   7  12
ATOM     12  O   UNL     1      34.396 -23.242 -17.798  0.00  0.00    -0.471 OA
ATOM     13  C   UNL     1      34.131 -22.493 -18.982  0.00  0.00    +0.252 C 
ENDBRANCH   7  12
ENDBRANCH   2   6
BRANCH   4  15
ATOM     14  O   UNL     1      38.267 -27.127 -14.551  0.00  0.00    -0.242 OA
ATOM     15  C   UNL     1      37.332 -26.637 -15.227  0.00  0.00    +0.373 C 
BRANCH  15  16
ATOM     16  O   UNL     1      36.830 -27.332 -16.300  0.00  0.00    -0.475 OA
ATOM     17  H   UNL     1      37.039 -27.062 -17.172  0.00  0.00    +0.296 HD
ENDBRANCH  15  16
ENDBRANCH   4  15
TORSDOF 4
ENDMDL
MODEL 5
REMARK VINA RESULT:      -8.1      0.740      1.088
REMARK  Name = 776315
REMARK  4 active torsions:
REMARK  status: ('A' for Active; 'I' for Inactive)
REMARK    1  A    between atoms: C_2  and  C_6
REMARK    2  A    between atoms: C_4  and  C_15
REMARK    3  A    between atoms: C_7  and  O_12
REMARK    4  A    between atoms: C_15  and  O_16
REMARK                            x       y       z     vdW  Elec       q    Type
REMARK                         _______ _______ _______ _____ _____    ______ ____
ROOT
ATOM      1  O   UNL     1      34.059 -19.877 -21.178  0.00  0.00    -0.447 OA
ATOM      2  C   UNL     1      35.151 -19.184 -21.582  0.00  0.00    +0.149 C 
ATOM      3  C   UNL     1      36.275 -19.603 -20.923  0.00  0.00    +0.041 C 
ATOM      4  C   UNL     1      34.494 -20.759 -20.241  0.00  0.00    +0.220 C 
ATOM      5  C   UNL     1      35.850 -20.631 -20.048  0.00  0.00    +0.047 C 
ENDROOT
BRANCH   2   6
ATOM      6  C   UNL     1      34.900 -18.180 -22.591  0.00  0.00    +0.068 C 
ATOM      7  C   UNL     1      34.502 -16.891 -22.234  0.00  0.00    +0.142 C 
ATOM      8  C   UNL     1      35.059 -18.514 -23.935  0.00  0.00    +0.006 C 
ATOM      9  C   UNL     1      34.263 -15.938 -23.223  0.00  0.00    +0.037 C 
ATOM     10  C   UNL     1      34.820 -17.560 -24.924  0.00  0.00    +0.000 C 
ATOM     11  C   UNL     1      34.422 -16.271 -24.567  0.00  0.00    +0.003 C 
BRANCH   7  12
ATOM     12  O   UNL     1      34.339 -16.537 -20.928  0.00  0.00    -0.471 OA
ATOM     13  C   UNL     1      34.598 -15.177 -20.590  0.00  0.00    +0.252 C 
ENDBRANCH   7  12
ENDBRANCH   2   6
BRANCH   4  15
ATOM     14  O   UNL     1      33.616 -22.870 -19.537  0.00  0.00    -0.242 OA
ATOM     15  C   UNL     1      33.534 -21.624 -19.644  0.00  0.00    +0.373 C 
BRANCH  15  16
ATOM     16  O   UNL     1      32.431 -20.970 -19.153  0.00  0.00    -0.475 OA
ATOM     17  H   UNL     1      31.851 -20.525 -19.739  0.00  0.00    +0.296 HD
ENDBRANCH  15  16
ENDBRANCH   4  15
TORSDOF 4
ENDMDL
MODEL 6
REMARK VINA RESULT:      -7.5      5.984      8.160
REMARK  Name = 776315
REMARK  4 active torsions:
REMARK  status: ('A' for Active; 'I' for Inactive)
REMARK    1  A    between atoms: C_2  and  C_6
REMARK    2  A    between atoms: C_4  and  C_15
REMARK    3  A    between atoms: C_7  and  O_12
REMARK    4  A    between atoms: C_15  and  O_16
REMARK                            x       y       z     vdW  Elec       q    Type
REMARK                         _______ _______ _______ _____ _____    ______ ____
ROOT
ATOM      1  O   UNL     1      30.375 -22.891 -16.788  0.00  0.00    -0.447 OA
ATOM      2  C   UNL     1      31.279 -23.549 -16.021  0.00  0.00    +0.149 C 
ATOM      3  C   UNL     1      30.657 -24.358 -15.108  0.00  0.00    +0.041 C 
ATOM      4  C   UNL     1      29.150 -23.288 -16.357  0.00  0.00    +0.220 C 
ATOM      5  C   UNL     1      29.268 -24.189 -15.324  0.00  0.00    +0.047 C 
ENDROOT
BRANCH   2   6
ATOM      6  C   UNL     1      32.662 -23.263 -16.324  0.00  0.00    +0.068 C 
ATOM      7  C   UNL     1      33.639 -23.324 -15.330  0.00  0.00    +0.142 C 
ATOM      8  C   UNL     1      33.015 -22.922 -17.629  0.00  0.00    +0.006 C 
ATOM      9  C   UNL     1      34.969 -23.044 -15.642  0.00  0.00    +0.037 C 
ATOM     10  C   UNL     1      34.346 -22.641 -17.941  0.00  0.00    +0.000 C 
ATOM     11  C   UNL     1      35.323 -22.702 -16.946  0.00  0.00    +0.003 C 
BRANCH   7  12
ATOM     12  O   UNL     1      33.322 -23.656 -14.046  0.00  0.00    -0.471 OA
ATOM     13  C   UNL     1      34.371 -24.184 -13.237  0.00  0.00    +0.252 C 
ENDBRANCH   7  12
ENDBRANCH   2   6
BRANCH   4  15
ATOM     14  O   UNL     1      27.575 -21.568 -16.889  0.00  0.00    -0.242 OA
ATOM     15  C   UNL     1      28.006 -22.739 -17.003  0.00  0.00    +0.373 C 
BRANCH  15  16
ATOM     16  O   UNL     1      27.355 -23.628 -17.822  0.00  0.00    -0.475 OA
ATOM     17  H   UNL     1      27.683 -23.800 -18.682  0.00  0.00    +0.296 HD
ENDBRANCH  15  16
ENDBRANCH   4  15
TORSDOF 4
ENDMDL
MODEL 7
REMARK VINA RESULT:      -7.5      2.130      3.711
REMARK  Name = 776315
REMARK  4 active torsions:
REMARK  status: ('A' for Active; 'I' for Inactive)
REMARK    1  A    between atoms: C_2  and  C_6
REMARK    2  A    between atoms: C_4  and  C_15
REMARK    3  A    between atoms: C_7  and  O_12
REMARK    4  A    between atoms: C_15  and  O_16
REMARK                            x       y       z     vdW  Elec       q    Type
REMARK                         _______ _______ _______ _____ _____    ______ ____
ROOT
ATOM      1  O   UNL     1      33.612 -18.064 -21.029  0.00  0.00    -0.447 OA
ATOM      2  C   UNL     1      34.330 -17.097 -21.649  0.00  0.00    +0.149 C 
ATOM      3  C   UNL     1      35.552 -17.567 -22.049  0.00  0.00    +0.041 C 
ATOM      4  C   UNL     1      34.390 -19.177 -21.034  0.00  0.00    +0.220 C 
ATOM      5  C   UNL     1      35.594 -18.924 -21.649  0.00  0.00    +0.047 C 
ENDROOT
BRANCH   2   6
ATOM      6  C   UNL     1      33.671 -15.815 -21.750  0.00  0.00    +0.068 C 
ATOM      7  C   UNL     1      33.453 -15.219 -22.992  0.00  0.00    +0.142 C 
ATOM      8  C   UNL     1      33.252 -15.173 -20.585  0.00  0.00    +0.006 C 
ATOM      9  C   UNL     1      32.816 -13.981 -23.069  0.00  0.00    +0.037 C 
ATOM     10  C   UNL     1      32.615 -13.935 -20.662  0.00  0.00    +0.000 C 
ATOM     11  C   UNL     1      32.397 -13.338 -21.904  0.00  0.00    +0.003 C 
BRANCH   7  12
ATOM     12  O   UNL     1      33.852 -15.823 -24.147  0.00  0.00    -0.471 OA
ATOM     13  C   UNL     1      33.448 -15.212 -25.370  0.00  0.00    +0.252 C 
ENDBRANCH   7  12
ENDBRANCH   2   6
BRANCH   4  15
ATOM     14  O   UNL     1      34.502 -21.189 -19.744  0.00  0.00    -0.242 OA
ATOM     15  C   UNL     1      33.867 -20.359 -20.435  0.00  0.00    +0.373 C 
BRANCH  15  16
ATOM     16  O   UNL     1      32.528 -20.551 -20.673  0.00  0.00    -0.475 OA
ATOM     17  H   UNL     1      31.892 -20.057 -20.195  0.00  0.00    +0.296 HD
ENDBRANCH  15  16
ENDBRANCH   4  15
TORSDOF 4
ENDMDL
MODEL 8
REMARK VINA RESULT:      -7.5      5.365      7.664
REMARK  Name = 776315
REMARK  4 active torsions:
REMARK  status: ('A' for Active; 'I' for Inactive)
REMARK    1  A    between atoms: C_2  and  C_6
REMARK    2  A    between atoms: C_4  and  C_15
REMARK    3  A    between atoms: C_7  and  O_12
REMARK    4  A    between atoms: C_15  and  O_16
REMARK                            x       y       z     vdW  Elec       q    Type
REMARK                         _______ _______ _______ _____ _____    ______ ____
ROOT
ATOM      1  O   UNL     1      33.229 -14.130 -24.372  0.00  0.00    -0.447 OA
ATOM      2  C   UNL     1      33.501 -13.547 -23.178  0.00  0.00    +0.149 C 
ATOM      3  C   UNL     1      34.366 -14.309 -22.441  0.00  0.00    +0.041 C 
ATOM      4  C   UNL     1      33.937 -15.289 -24.398  0.00  0.00    +0.220 C 
ATOM      5  C   UNL     1      34.653 -15.446 -23.234  0.00  0.00    +0.047 C 
ENDROOT
BRANCH   2   6
ATOM      6  C   UNL     1      32.836 -12.284 -22.949  0.00  0.00    +0.068 C 
ATOM      7  C   UNL     1      33.251 -11.128 -23.610  0.00  0.00    +0.142 C 
ATOM      8  C   UNL     1      31.769 -12.232 -22.053  0.00  0.00    +0.006 C 
ATOM      9  C   UNL     1      32.597  -9.919 -23.374  0.00  0.00    +0.037 C 
ATOM     10  C   UNL     1      31.115 -11.022 -21.818  0.00  0.00    +0.000 C 
ATOM     11  C   UNL     1      31.530  -9.865 -22.478  0.00  0.00    +0.003 C 
BRANCH   7  12
ATOM     12  O   UNL     1      34.291 -11.150 -24.491  0.00  0.00    -0.471 OA
ATOM     13  C   UNL     1      35.033  -9.942 -24.646  0.00  0.00    +0.252 C 
ENDBRANCH   7  12
ENDBRANCH   2   6
BRANCH   4  15
ATOM     14  O   UNL     1      34.099 -17.329 -25.636  0.00  0.00    -0.242 OA
ATOM     15  C   UNL     1      33.831 -16.107 -25.558  0.00  0.00    +0.373 C 
BRANCH  15  16
ATOM     16  O   UNL     1      33.383 -15.436 -26.669  0.00  0.00    -0.475 OA
ATOM     17  H   UNL     1      33.249 -14.509 -26.633  0.00  0.00    +0.296 HD
ENDBRANCH  15  16
ENDBRANCH   4  15
TORSDOF 4
ENDMDL
MODEL 9
REMARK VINA RESULT:      -7.4      9.006     11.566
REMARK  Name = 776315
REMARK  4 active torsions:
REMARK  status: ('A' for Active; 'I' for Inactive)
REMARK    1  A    between atoms: C_2  and  C_6
REMARK    2  A    between atoms: C_4  and  C_15
REMARK    3  A    between atoms: C_7  and  O_12
REMARK    4  A    between atoms: C_15  and  O_16
REMARK                            x       y       z     vdW  Elec       q    Type
REMARK                         _______ _______ _______ _____ _____    ______ ____
ROOT
ATOM      1  O   UNL     1      32.164  -9.397 -21.936  0.00  0.00    -0.447 OA
ATOM      2  C   UNL     1      32.608  -8.135 -21.719  0.00  0.00    +0.149 C 
ATOM      3  C   UNL     1      32.601  -7.831 -20.384  0.00  0.00    +0.041 C 
ATOM      4  C   UNL     1      31.867  -9.911 -20.714  0.00  0.00    +0.220 C 
ATOM      5  C   UNL     1      32.118  -8.987 -19.726  0.00  0.00    +0.047 C 
ENDROOT
BRANCH   2   6
ATOM      6  C   UNL     1      32.982  -7.405 -22.909  0.00  0.00    +0.068 C 
ATOM      7  C   UNL     1      32.081  -6.538 -23.528  0.00  0.00    +0.142 C 
ATOM      8  C   UNL     1      34.260  -7.576 -23.437  0.00  0.00    +0.006 C 
ATOM      9  C   UNL     1      32.459  -5.843 -24.676  0.00  0.00    +0.037 C 
ATOM     10  C   UNL     1      34.639  -6.880 -24.586  0.00  0.00    +0.000 C 
ATOM     11  C   UNL     1      33.738  -6.014 -25.205  0.00  0.00    +0.003 C 
BRANCH   7  12
ATOM     12  O   UNL     1      30.824  -6.352 -23.033  0.00  0.00    -0.471 OA
ATOM     13  C   UNL     1      30.608  -5.186 -22.240  0.00  0.00    +0.252 C 
ENDBRANCH   7  12
ENDBRANCH   2   6
BRANCH   4  15
ATOM     14  O   UNL     1      31.757 -12.150 -19.878  0.00  0.00    -0.242 OA
ATOM     15  C   UNL     1      31.372 -11.245 -20.655  0.00  0.00    +0.373 C 
BRANCH  15  16
ATOM     16  O   UNL     1      30.375 -11.504 -21.562  0.00  0.00    -0.475 OA
ATOM     17  H   UNL     1      29.914 -12.319 -21.531  0.00  0.00    +0.296 HD
ENDBRANCH  15  16
ENDBRANCH   4  15
TORSDOF 4
ENDMDL
