MODEL 1
REMARK VINA RESULT:     -10.4      0.000      0.000
REMARK  Name = 5272139
REMARK  10 active torsions:
REMARK  status: ('A' for Active; 'I' for Inactive)
REMARK    1  A    between atoms: O_1  and  C_3
REMARK    2  A    between atoms: O_1  and  C_14
REMARK    3  A    between atoms: C_2  and  C_12
REMARK    4  A    between atoms: C_14  and  C_15
REMARK    5  A    between atoms: C_15  and  C_16
REMARK    6  A    between atoms: C_16  and  C_17
REMARK    7  A    between atoms: C_17  and  C_18
REMARK    8  A    between atoms: C_18  and  C_19
REMARK    9  A    between atoms: C_19  and  C_20
REMARK   10  A    between atoms: C_20  and  C_23
REMARK                            x       y       z     vdW  Elec       q    Type
REMARK                         _______ _______ _______ _____ _____    ______ ____
ROOT
ATOM      1  O   UNL     1      34.381 -23.073 -18.598  0.00  0.00    -0.475 OA
ENDROOT
BRANCH   1   3
ATOM      2  C   UNL     1      34.731 -19.623 -20.896  0.00  0.00    +0.053 C 
ATOM      3  C   UNL     1      34.497 -21.937 -19.357  0.00  0.00    +0.139 C 
ATOM      4  C   UNL     1      35.876 -20.286 -20.456  0.00  0.00    +0.008 C 
ATOM      5  C   UNL     1      33.469 -20.117 -20.568  0.00  0.00    +0.008 C 
ATOM      6  C   UNL     1      35.759 -21.443 -19.686  0.00  0.00    +0.037 C 
ATOM      7  C   UNL     1      33.352 -21.274 -19.798  0.00  0.00    +0.037 C 
BRANCH   2  12
ATOM      8  O   UNL     1      34.876 -18.613 -23.046  0.00  0.00    -0.458 OA
ATOM      9  N   UNL     1      34.935 -17.190 -21.257  0.00  0.00    -0.236 NA
ATOM     10  C   UNL     1      35.133 -16.388 -22.475  0.00  0.00    +0.150 C 
ATOM     11  C   UNL     1      34.746 -17.316 -23.609  0.00  0.00    +0.231 C 
ATOM     12  C   UNL     1      34.856 -18.403 -21.707  0.00  0.00    +0.220 C 
ATOM     13  C   UNL     1      34.292 -15.127 -22.418  0.00  0.00    +0.030 C 
ENDBRANCH   2  12
ENDBRANCH   1   3
BRANCH   1  14
ATOM     14  C   UNL     1      33.280 -23.135 -17.703  0.00  0.00    +0.205 C 
BRANCH  14  15
ATOM     15  C   UNL     1      33.785 -23.550 -16.328  0.00  0.00    +0.047 C 
BRANCH  15  16
ATOM     16  C   UNL     1      32.757 -23.257 -15.237  0.00  0.00    +0.004 C 
BRANCH  16  17
ATOM     17  C   UNL     1      32.715 -24.377 -14.196  0.00  0.00    +0.000 C 
BRANCH  17  18
ATOM     18  C   UNL     1      31.316 -24.987 -14.092  0.00  0.00    +0.000 C 
BRANCH  18  19
ATOM     19  C   UNL     1      30.449 -24.592 -15.291  0.00  0.00    +0.008 C 
BRANCH  19  20
ATOM     20  C   UNL     1      28.966 -24.431 -14.938  0.00  0.00    +0.067 C 
BRANCH  20  23
ATOM     21  O   UNL     1      28.243 -24.025 -17.232  0.00  0.00    -0.358 OA
ATOM     22  N   UNL     1      27.496 -23.160 -18.021  0.00  0.00    -0.082 NA
ATOM     23  C   UNL     1      28.201 -23.604 -15.942  0.00  0.00    +0.154 C 
ATOM     24  C   UNL     1      27.437 -22.471 -15.852  0.00  0.00    +0.054 C 
ATOM     25  C   UNL     1      27.024 -22.240 -17.175  0.00  0.00    +0.101 C 
ATOM     26  C   UNL     1      26.174 -21.148 -17.678  0.00  0.00    +0.056 C 
ENDBRANCH  20  23
ENDBRANCH  19  20
ENDBRANCH  18  19
ENDBRANCH  17  18
ENDBRANCH  16  17
ENDBRANCH  15  16
ENDBRANCH  14  15
ENDBRANCH   1  14
TORSDOF 10
ENDMDL
MODEL 2
REMARK VINA RESULT:     -10.0      3.766     11.154
REMARK  Name = 5272139
REMARK  10 active torsions:
REMARK  status: ('A' for Active; 'I' for Inactive)
REMARK    1  A    between atoms: O_1  and  C_3
REMARK    2  A    between atoms: O_1  and  C_14
REMARK    3  A    between atoms: C_2  and  C_12
REMARK    4  A    between atoms: C_14  and  C_15
REMARK    5  A    between atoms: C_15  and  C_16
REMARK    6  A    between atoms: C_16  and  C_17
REMARK    7  A    between atoms: C_17  and  C_18
REMARK    8  A    between atoms: C_18  and  C_19
REMARK    9  A    between atoms: C_19  and  C_20
REMARK   10  A    between atoms: C_20  and  C_23
REMARK                            x       y       z     vdW  Elec       q    Type
REMARK                         _______ _______ _______ _____ _____    ______ ____
ROOT
ATOM      1  O   UNL     1      35.412 -18.891 -22.414  0.00  0.00    -0.475 OA
ENDROOT
BRANCH   1   3
ATOM      2  C   UNL     1      34.063 -21.395 -19.378  0.00  0.00    +0.053 C 
ATOM      3  C   UNL     1      34.968 -19.714 -21.412  0.00  0.00    +0.139 C 
ATOM      4  C   UNL     1      35.418 -21.367 -19.708  0.00  0.00    +0.008 C 
ATOM      5  C   UNL     1      33.161 -20.583 -20.064  0.00  0.00    +0.008 C 
ATOM      6  C   UNL     1      35.870 -20.527 -20.725  0.00  0.00    +0.037 C 
ATOM      7  C   UNL     1      33.613 -19.743 -21.081  0.00  0.00    +0.037 C 
BRANCH   2  12
ATOM      8  O   UNL     1      34.569 -22.881 -17.589  0.00  0.00    -0.458 OA
ATOM      9  N   UNL     1      32.349 -22.516 -18.001  0.00  0.00    -0.236 NA
ATOM     10  C   UNL     1      32.448 -23.526 -16.936  0.00  0.00    +0.150 C 
ATOM     11  C   UNL     1      33.893 -23.465 -16.485  0.00  0.00    +0.231 C 
ATOM     12  C   UNL     1      33.587 -22.281 -18.306  0.00  0.00    +0.220 C 
ATOM     13  C   UNL     1      31.460 -23.219 -15.825  0.00  0.00    +0.030 C 
ENDBRANCH   2  12
ENDBRANCH   1   3
BRANCH   1  14
ATOM     14  C   UNL     1      34.959 -19.181 -23.729  0.00  0.00    +0.205 C 
BRANCH  14  15
ATOM     15  C   UNL     1      34.805 -17.875 -24.495  0.00  0.00    +0.047 C 
BRANCH  15  16
ATOM     16  C   UNL     1      34.963 -16.662 -23.581  0.00  0.00    +0.004 C 
BRANCH  16  17
ATOM     17  C   UNL     1      34.081 -15.499 -24.040  0.00  0.00    +0.000 C 
BRANCH  17  18
ATOM     18  C   UNL     1      34.259 -14.277 -23.137  0.00  0.00    +0.000 C 
BRANCH  18  19
ATOM     19  C   UNL     1      33.262 -13.172 -23.499  0.00  0.00    +0.008 C 
BRANCH  19  20
ATOM     20  C   UNL     1      33.764 -12.245 -24.612  0.00  0.00    +0.067 C 
BRANCH  20  23
ATOM     21  O   UNL     1      32.795 -10.308 -23.491  0.00  0.00    -0.358 OA
ATOM     22  N   UNL     1      33.030  -8.974 -23.184  0.00  0.00    -0.082 NA
ATOM     23  C   UNL     1      33.851 -10.799 -24.190  0.00  0.00    +0.154 C 
ATOM     24  C   UNL     1      34.791  -9.817 -24.357  0.00  0.00    +0.054 C 
ATOM     25  C   UNL     1      34.228  -8.703 -23.711  0.00  0.00    +0.101 C 
ATOM     26  C   UNL     1      34.803  -7.355 -23.572  0.00  0.00    +0.056 C 
ENDBRANCH  20  23
ENDBRANCH  19  20
ENDBRANCH  18  19
ENDBRANCH  17  18
ENDBRANCH  16  17
ENDBRANCH  15  16
ENDBRANCH  14  15
ENDBRANCH   1  14
TORSDOF 10
ENDMDL
MODEL 3
REMARK VINA RESULT:      -9.9      4.206     10.322
REMARK  Name = 5272139
REMARK  10 active torsions:
REMARK  status: ('A' for Active; 'I' for Inactive)
REMARK    1  A    between atoms: O_1  and  C_3
REMARK    2  A    between atoms: O_1  and  C_14
REMARK    3  A    between atoms: C_2  and  C_12
REMARK    4  A    between atoms: C_14  and  C_15
REMARK    5  A    between atoms: C_15  and  C_16
REMARK    6  A    between atoms: C_16  and  C_17
REMARK    7  A    between atoms: C_17  and  C_18
REMARK    8  A    between atoms: C_18  and  C_19
REMARK    9  A    between atoms: C_19  and  C_20
REMARK   10  A    between atoms: C_20  and  C_23
REMARK                            x       y       z     vdW  Elec       q    Type
REMARK                         _______ _______ _______ _____ _____    ______ ____
ROOT
ATOM      1  O   UNL     1      35.232 -18.944 -22.438  0.00  0.00    -0.475 OA
ENDROOT
BRANCH   1   3
ATOM      2  C   UNL     1      33.969 -21.427 -19.349  0.00  0.00    +0.053 C 
ATOM      3  C   UNL     1      34.815 -19.764 -21.422  0.00  0.00    +0.139 C 
ATOM      4  C   UNL     1      33.039 -20.666 -20.056  0.00  0.00    +0.008 C 
ATOM      5  C   UNL     1      35.322 -21.357 -19.677  0.00  0.00    +0.008 C 
ATOM      6  C   UNL     1      33.462 -19.835 -21.093  0.00  0.00    +0.037 C 
ATOM      7  C   UNL     1      35.746 -20.525 -20.714  0.00  0.00    +0.037 C 
BRANCH   2  12
ATOM      8  O   UNL     1      34.523 -22.911 -17.573  0.00  0.00    -0.458 OA
ATOM      9  N   UNL     1      32.294 -22.521 -17.904  0.00  0.00    -0.236 NA
ATOM     10  C   UNL     1      32.420 -23.528 -16.838  0.00  0.00    +0.150 C 
ATOM     11  C   UNL     1      33.882 -23.481 -16.442  0.00  0.00    +0.231 C 
ATOM     12  C   UNL     1      33.522 -22.303 -18.255  0.00  0.00    +0.220 C 
ATOM     13  C   UNL     1      31.478 -23.204 -15.693  0.00  0.00    +0.030 C 
ENDBRANCH   2  12
ENDBRANCH   1   3
BRANCH   1  14
ATOM     14  C   UNL     1      35.852 -17.722 -22.062  0.00  0.00    +0.205 C 
BRANCH  14  15
ATOM     15  C   UNL     1      34.860 -16.585 -22.262  0.00  0.00    +0.047 C 
BRANCH  15  16
ATOM     16  C   UNL     1      34.384 -16.011 -20.930  0.00  0.00    +0.004 C 
BRANCH  16  17
ATOM     17  C   UNL     1      34.094 -14.513 -21.041  0.00  0.00    +0.000 C 
BRANCH  17  18
ATOM     18  C   UNL     1      32.669 -14.188 -20.589  0.00  0.00    +0.000 C 
BRANCH  18  19
ATOM     19  C   UNL     1      32.224 -12.816 -21.104  0.00  0.00    +0.008 C 
BRANCH  19  20
ATOM     20  C   UNL     1      31.632 -11.921 -20.009  0.00  0.00    +0.067 C 
BRANCH  20  23
ATOM     21  O   UNL     1      32.178  -9.703 -19.155  0.00  0.00    -0.358 OA
ATOM     22  N   UNL     1      32.366  -8.382 -19.543  0.00  0.00    -0.082 NA
ATOM     23  C   UNL     1      31.872 -10.451 -20.246  0.00  0.00    +0.154 C 
ATOM     24  C   UNL     1      31.852  -9.654 -21.360  0.00  0.00    +0.054 C 
ATOM     25  C   UNL     1      32.166  -8.378 -20.864  0.00  0.00    +0.101 C 
ATOM     26  C   UNL     1      32.287  -7.120 -21.620  0.00  0.00    +0.056 C 
ENDBRANCH  20  23
ENDBRANCH  19  20
ENDBRANCH  18  19
ENDBRANCH  17  18
ENDBRANCH  16  17
ENDBRANCH  15  16
ENDBRANCH  14  15
ENDBRANCH   1  14
TORSDOF 10
ENDMDL
MODEL 4
REMARK VINA RESULT:      -9.9      3.164      5.193
REMARK  Name = 5272139
REMARK  10 active torsions:
REMARK  status: ('A' for Active; 'I' for Inactive)
REMARK    1  A    between atoms: O_1  and  C_3
REMARK    2  A    between atoms: O_1  and  C_14
REMARK    3  A    between atoms: C_2  and  C_12
REMARK    4  A    between atoms: C_14  and  C_15
REMARK    5  A    between atoms: C_15  and  C_16
REMARK    6  A    between atoms: C_16  and  C_17
REMARK    7  A    between atoms: C_17  and  C_18
REMARK    8  A    between atoms: C_18  and  C_19
REMARK    9  A    between atoms: C_19  and  C_20
REMARK   10  A    between atoms: C_20  and  C_23
REMARK                            x       y       z     vdW  Elec       q    Type
REMARK                         _______ _______ _______ _____ _____    ______ ____
ROOT
ATOM      1  O   UNL     1      34.828 -22.518 -18.640  0.00  0.00    -0.475 OA
ENDROOT
BRANCH   1   3
ATOM      2  C   UNL     1      34.941 -19.278 -21.246  0.00  0.00    +0.053 C 
ATOM      3  C   UNL     1      34.865 -21.449 -19.496  0.00  0.00    +0.139 C 
ATOM      4  C   UNL     1      33.715 -19.802 -20.838  0.00  0.00    +0.008 C 
ATOM      5  C   UNL     1      36.129 -19.839 -20.780  0.00  0.00    +0.008 C 
ATOM      6  C   UNL     1      33.677 -20.887 -19.963  0.00  0.00    +0.037 C 
ATOM      7  C   UNL     1      36.091 -20.925 -19.905  0.00  0.00    +0.037 C 
BRANCH   2  12
ATOM      8  O   UNL     1      34.965 -18.466 -23.483  0.00  0.00    -0.458 OA
ATOM      9  N   UNL     1      35.017 -16.882 -21.833  0.00  0.00    -0.236 NA
ATOM     10  C   UNL     1      35.136 -16.189 -23.126  0.00  0.00    +0.150 C 
ATOM     11  C   UNL     1      34.756 -17.233 -24.156  0.00  0.00    +0.231 C 
ATOM     12  C   UNL     1      34.980 -18.134 -22.169  0.00  0.00    +0.220 C 
ATOM     13  C   UNL     1      34.239 -14.966 -23.153  0.00  0.00    +0.030 C 
ENDBRANCH   2  12
ENDBRANCH   1   3
BRANCH   1  14
ATOM     14  C   UNL     1      33.570 -23.156 -18.465  0.00  0.00    +0.205 C 
BRANCH  14  15
ATOM     15  C   UNL     1      33.241 -23.197 -16.980  0.00  0.00    +0.047 C 
BRANCH  15  16
ATOM     16  C   UNL     1      31.741 -23.054 -16.730  0.00  0.00    +0.004 C 
BRANCH  16  17
ATOM     17  C   UNL     1      31.413 -23.147 -15.239  0.00  0.00    +0.000 C 
BRANCH  17  18
ATOM     18  C   UNL     1      31.283 -24.604 -14.788  0.00  0.00    +0.000 C 
BRANCH  18  19
ATOM     19  C   UNL     1      32.245 -24.915 -13.637  0.00  0.00    +0.008 C 
BRANCH  19  20
ATOM     20  C   UNL     1      33.343 -23.860 -13.465  0.00  0.00    +0.067 C 
BRANCH  20  23
ATOM     21  O   UNL     1      34.705 -24.783 -11.665  0.00  0.00    -0.358 OA
ATOM     22  N   UNL     1      35.967 -25.289 -11.378  0.00  0.00    -0.082 NA
ATOM     23  C   UNL     1      34.650 -24.434 -12.976  0.00  0.00    +0.154 C 
ATOM     24  C   UNL     1      35.853 -24.698 -13.574  0.00  0.00    +0.054 C 
ATOM     25  C   UNL     1      36.634 -25.229 -12.534  0.00  0.00    +0.101 C 
ATOM     26  C   UNL     1      38.030 -25.693 -12.600  0.00  0.00    +0.056 C 
ENDBRANCH  20  23
ENDBRANCH  19  20
ENDBRANCH  18  19
ENDBRANCH  17  18
ENDBRANCH  16  17
ENDBRANCH  15  16
ENDBRANCH  14  15
ENDBRANCH   1  14
TORSDOF 10
ENDMDL
MODEL 5
REMARK VINA RESULT:      -9.9      5.318     12.175
REMARK  Name = 5272139
REMARK  10 active torsions:
REMARK  status: ('A' for Active; 'I' for Inactive)
REMARK    1  A    between atoms: O_1  and  C_3
REMARK    2  A    between atoms: O_1  and  C_14
REMARK    3  A    between atoms: C_2  and  C_12
REMARK    4  A    between atoms: C_14  and  C_15
REMARK    5  A    between atoms: C_15  and  C_16
REMARK    6  A    between atoms: C_16  and  C_17
REMARK    7  A    between atoms: C_17  and  C_18
REMARK    8  A    between atoms: C_18  and  C_19
REMARK    9  A    between atoms: C_19  and  C_20
REMARK   10  A    between atoms: C_20  and  C_23
REMARK                            x       y       z     vdW  Elec       q    Type
REMARK                         _______ _______ _______ _____ _____    ______ ____
ROOT
ATOM      1  O   UNL     1      34.020 -13.031 -23.296  0.00  0.00    -0.475 OA
ENDROOT
BRANCH   1   3
ATOM      2  C   UNL     1      34.726 -16.881 -21.887  0.00  0.00    +0.053 C 
ATOM      3  C   UNL     1      34.255 -14.299 -22.832  0.00  0.00    +0.139 C 
ATOM      4  C   UNL     1      34.619 -16.650 -23.258  0.00  0.00    +0.008 C 
ATOM      5  C   UNL     1      34.597 -15.823 -20.988  0.00  0.00    +0.008 C 
ATOM      6  C   UNL     1      34.383 -15.359 -23.730  0.00  0.00    +0.037 C 
ATOM      7  C   UNL     1      34.361 -14.532 -21.460  0.00  0.00    +0.037 C 
BRANCH   2  12
ATOM      8  O   UNL     1      36.241 -18.466 -20.962  0.00  0.00    -0.458 OA
ATOM      9  N   UNL     1      34.105 -19.202 -21.323  0.00  0.00    -0.236 NA
ATOM     10  C   UNL     1      34.899 -20.345 -20.845  0.00  0.00    +0.150 C 
ATOM     11  C   UNL     1      36.175 -19.726 -20.310  0.00  0.00    +0.231 C 
ATOM     12  C   UNL     1      34.974 -18.242 -21.389  0.00  0.00    +0.220 C 
ATOM     13  C   UNL     1      34.126 -21.123 -19.797  0.00  0.00    +0.030 C 
ENDBRANCH   2  12
ENDBRANCH   1   3
BRANCH   1  14
ATOM     14  C   UNL     1      33.536 -12.916 -24.627  0.00  0.00    +0.205 C 
BRANCH  14  15
ATOM     15  C   UNL     1      33.865 -11.525 -25.151  0.00  0.00    +0.047 C 
BRANCH  15  16
ATOM     16  C   UNL     1      34.189 -10.556 -24.016  0.00  0.00    +0.004 C 
BRANCH  16  17
ATOM     17  C   UNL     1      34.948  -9.331 -24.528  0.00  0.00    +0.000 C 
BRANCH  17  18
ATOM     18  C   UNL     1      34.790  -8.142 -23.579  0.00  0.00    +0.000 C 
BRANCH  18  19
ATOM     19  C   UNL     1      33.364  -7.585 -23.621  0.00  0.00    +0.008 C 
BRANCH  19  20
ATOM     20  C   UNL     1      32.883  -7.051 -22.268  0.00  0.00    +0.067 C 
BRANCH  20  23
ATOM     21  O   UNL     1      32.687  -7.893 -19.986  0.00  0.00    -0.358 OA
ATOM     22  N   UNL     1      32.271  -8.990 -19.243  0.00  0.00    -0.082 NA
ATOM     23  C   UNL     1      32.483  -8.143 -21.305  0.00  0.00    +0.154 C 
ATOM     24  C   UNL     1      31.936  -9.389 -21.459  0.00  0.00    +0.054 C 
ATOM     25  C   UNL     1      31.826  -9.870 -20.143  0.00  0.00    +0.101 C 
ATOM     26  C   UNL     1      31.299 -11.171 -19.699  0.00  0.00    +0.056 C 
ENDBRANCH  20  23
ENDBRANCH  19  20
ENDBRANCH  18  19
ENDBRANCH  17  18
ENDBRANCH  16  17
ENDBRANCH  15  16
ENDBRANCH  14  15
ENDBRANCH   1  14
TORSDOF 10
ENDMDL
MODEL 6
REMARK VINA RESULT:      -9.8      3.736      6.108
REMARK  Name = 5272139
REMARK  10 active torsions:
REMARK  status: ('A' for Active; 'I' for Inactive)
REMARK    1  A    between atoms: O_1  and  C_3
REMARK    2  A    between atoms: O_1  and  C_14
REMARK    3  A    between atoms: C_2  and  C_12
REMARK    4  A    between atoms: C_14  and  C_15
REMARK    5  A    between atoms: C_15  and  C_16
REMARK    6  A    between atoms: C_16  and  C_17
REMARK    7  A    between atoms: C_17  and  C_18
REMARK    8  A    between atoms: C_18  and  C_19
REMARK    9  A    between atoms: C_19  and  C_20
REMARK   10  A    between atoms: C_20  and  C_23
REMARK                            x       y       z     vdW  Elec       q    Type
REMARK                         _______ _______ _______ _____ _____    ______ ____
ROOT
ATOM      1  O   UNL     1      34.693 -23.053 -18.136  0.00  0.00    -0.475 OA
ENDROOT
BRANCH   1   3
ATOM      2  C   UNL     1      34.939 -19.889 -20.826  0.00  0.00    +0.053 C 
ATOM      3  C   UNL     1      34.774 -22.013 -19.024  0.00  0.00    +0.139 C 
ATOM      4  C   UNL     1      36.103 -20.452 -20.303  0.00  0.00    +0.008 C 
ATOM      5  C   UNL     1      33.692 -20.388 -20.447  0.00  0.00    +0.008 C 
ATOM      6  C   UNL     1      36.021 -21.513 -19.402  0.00  0.00    +0.037 C 
ATOM      7  C   UNL     1      33.610 -21.449 -19.547  0.00  0.00    +0.037 C 
BRANCH   2  12
ATOM      8  O   UNL     1      34.830 -19.112 -23.072  0.00  0.00    -0.458 OA
ATOM      9  N   UNL     1      35.257 -17.530 -21.476  0.00  0.00    -0.236 NA
ATOM     10  C   UNL     1      35.327 -16.872 -22.790  0.00  0.00    +0.150 C 
ATOM     11  C   UNL     1      34.709 -17.869 -23.749  0.00  0.00    +0.231 C 
ATOM     12  C   UNL     1      35.026 -18.770 -21.775  0.00  0.00    +0.220 C 
ATOM     13  C   UNL     1      34.595 -15.543 -22.753  0.00  0.00    +0.030 C 
ENDBRANCH   2  12
ENDBRANCH   1   3
BRANCH   1  14
ATOM     14  C   UNL     1      33.479 -23.182 -17.410  0.00  0.00    +0.205 C 
BRANCH  14  15
ATOM     15  C   UNL     1      33.795 -23.197 -15.921  0.00  0.00    +0.047 C 
BRANCH  15  16
ATOM     16  C   UNL     1      32.530 -23.342 -15.077  0.00  0.00    +0.004 C 
BRANCH  16  17
ATOM     17  C   UNL     1      32.862 -23.758 -13.643  0.00  0.00    +0.000 C 
BRANCH  17  18
ATOM     18  C   UNL     1      34.124 -24.622 -13.593  0.00  0.00    +0.000 C 
BRANCH  18  19
ATOM     19  C   UNL     1      35.199 -23.980 -12.710  0.00  0.00    +0.008 C 
BRANCH  19  20
ATOM     20  C   UNL     1      36.134 -25.003 -12.056  0.00  0.00    +0.067 C 
BRANCH  20  23
ATOM     21  O   UNL     1      37.097 -26.549 -13.678  0.00  0.00    -0.358 OA
ATOM     22  N   UNL     1      38.235 -26.792 -14.437  0.00  0.00    -0.082 NA
ATOM     23  C   UNL     1      37.278 -25.420 -12.947  0.00  0.00    +0.154 C 
ATOM     24  C   UNL     1      38.519 -24.899 -13.203  0.00  0.00    +0.054 C 
ATOM     25  C   UNL     1      39.070 -25.794 -14.137  0.00  0.00    +0.101 C 
ATOM     26  C   UNL     1      40.397 -25.731 -14.771  0.00  0.00    +0.056 C 
ENDBRANCH  20  23
ENDBRANCH  19  20
ENDBRANCH  18  19
ENDBRANCH  17  18
ENDBRANCH  16  17
ENDBRANCH  15  16
ENDBRANCH  14  15
ENDBRANCH   1  14
TORSDOF 10
ENDMDL
MODEL 7
REMARK VINA RESULT:      -9.7      4.552      6.752
REMARK  Name = 5272139
REMARK  10 active torsions:
REMARK  status: ('A' for Active; 'I' for Inactive)
REMARK    1  A    between atoms: O_1  and  C_3
REMARK    2  A    between atoms: O_1  and  C_14
REMARK    3  A    between atoms: C_2  and  C_12
REMARK    4  A    between atoms: C_14  and  C_15
REMARK    5  A    between atoms: C_15  and  C_16
REMARK    6  A    between atoms: C_16  and  C_17
REMARK    7  A    between atoms: C_17  and  C_18
REMARK    8  A    between atoms: C_18  and  C_19
REMARK    9  A    between atoms: C_19  and  C_20
REMARK   10  A    between atoms: C_20  and  C_23
REMARK                            x       y       z     vdW  Elec       q    Type
REMARK                         _______ _______ _______ _____ _____    ______ ____
ROOT
ATOM      1  O   UNL     1      35.958 -18.992 -20.629  0.00  0.00    -0.475 OA
ENDROOT
BRANCH   1   3
ATOM      2  C   UNL     1      34.429 -16.092 -23.190  0.00  0.00    +0.053 C 
ATOM      3  C   UNL     1      35.452 -18.038 -21.473  0.00  0.00    +0.139 C 
ATOM      4  C   UNL     1      34.912 -17.294 -23.707  0.00  0.00    +0.008 C 
ATOM      5  C   UNL     1      34.458 -15.863 -21.815  0.00  0.00    +0.008 C 
ATOM      6  C   UNL     1      35.424 -18.267 -22.848  0.00  0.00    +0.037 C 
ATOM      7  C   UNL     1      34.969 -16.835 -20.956  0.00  0.00    +0.037 C 
BRANCH   2  12
ATOM      8  O   UNL     1      33.837 -13.819 -23.569  0.00  0.00    -0.458 OA
ATOM      9  N   UNL     1      33.489 -15.258 -25.313  0.00  0.00    -0.236 NA
ATOM     10  C   UNL     1      32.975 -13.937 -25.711  0.00  0.00    +0.150 C 
ATOM     11  C   UNL     1      33.536 -12.982 -24.677  0.00  0.00    +0.231 C 
ATOM     12  C   UNL     1      33.891 -15.067 -24.096  0.00  0.00    +0.220 C 
ATOM     13  C   UNL     1      33.407 -13.608 -27.128  0.00  0.00    +0.030 C 
ENDBRANCH   2  12
ENDBRANCH   1   3
BRANCH   1  14
ATOM     14  C   UNL     1      35.379 -20.288 -20.707  0.00  0.00    +0.205 C 
BRANCH  14  15
ATOM     15  C   UNL     1      33.974 -20.235 -20.125  0.00  0.00    +0.047 C 
BRANCH  15  16
ATOM     16  C   UNL     1      33.449 -21.629 -19.791  0.00  0.00    +0.004 C 
BRANCH  16  17
ATOM     17  C   UNL     1      34.323 -22.317 -18.741  0.00  0.00    +0.000 C 
BRANCH  17  18
ATOM     18  C   UNL     1      33.470 -22.993 -17.664  0.00  0.00    +0.000 C 
BRANCH  18  19
ATOM     19  C   UNL     1      34.281 -23.235 -16.387  0.00  0.00    +0.008 C 
BRANCH  19  20
ATOM     20  C   UNL     1      35.707 -22.679 -16.462  0.00  0.00    +0.067 C 
BRANCH  20  23
ATOM     21  O   UNL     1      38.005 -23.125 -15.777  0.00  0.00    -0.358 OA
ATOM     22  N   UNL     1      38.780 -23.945 -14.966  0.00  0.00    -0.082 NA
ATOM     23  C   UNL     1      36.699 -23.471 -15.645  0.00  0.00    +0.154 C 
ATOM     24  C   UNL     1      36.583 -24.509 -14.760  0.00  0.00    +0.054 C 
ATOM     25  C   UNL     1      37.909 -24.763 -14.368  0.00  0.00    +0.101 C 
ATOM     26  C   UNL     1      38.391 -25.783 -13.421  0.00  0.00    +0.056 C 
ENDBRANCH  20  23
ENDBRANCH  19  20
ENDBRANCH  18  19
ENDBRANCH  17  18
ENDBRANCH  16  17
ENDBRANCH  15  16
ENDBRANCH  14  15
ENDBRANCH   1  14
TORSDOF 10
ENDMDL
MODEL 8
REMARK VINA RESULT:      -9.5      4.620      9.675
REMARK  Name = 5272139
REMARK  10 active torsions:
REMARK  status: ('A' for Active; 'I' for Inactive)
REMARK    1  A    between atoms: O_1  and  C_3
REMARK    2  A    between atoms: O_1  and  C_14
REMARK    3  A    between atoms: C_2  and  C_12
REMARK    4  A    between atoms: C_14  and  C_15
REMARK    5  A    between atoms: C_15  and  C_16
REMARK    6  A    between atoms: C_16  and  C_17
REMARK    7  A    between atoms: C_17  and  C_18
REMARK    8  A    between atoms: C_18  and  C_19
REMARK    9  A    between atoms: C_19  and  C_20
REMARK   10  A    between atoms: C_20  and  C_23
REMARK                            x       y       z     vdW  Elec       q    Type
REMARK                         _______ _______ _______ _____ _____    ______ ____
ROOT
ATOM      1  O   UNL     1      34.931 -21.252 -20.172  0.00  0.00    -0.475 OA
ENDROOT
BRANCH   1   3
ATOM      2  C   UNL     1      36.016 -22.643 -16.405  0.00  0.00    +0.053 C 
ATOM      3  C   UNL     1      35.289 -21.712 -18.932  0.00  0.00    +0.139 C 
ATOM      4  C   UNL     1      34.742 -22.909 -16.905  0.00  0.00    +0.008 C 
ATOM      5  C   UNL     1      36.927 -21.912 -17.167  0.00  0.00    +0.008 C 
ATOM      6  C   UNL     1      34.379 -22.443 -18.169  0.00  0.00    +0.037 C 
ATOM      7  C   UNL     1      36.563 -21.446 -18.431  0.00  0.00    +0.037 C 
BRANCH   2  12
ATOM      8  O   UNL     1      35.356 -23.408 -14.251  0.00  0.00    -0.458 OA
ATOM      9  N   UNL     1      37.607 -23.323 -14.646  0.00  0.00    -0.236 NA
ATOM     10  C   UNL     1      37.413 -23.723 -13.243  0.00  0.00    +0.150 C 
ATOM     11  C   UNL     1      35.944 -24.087 -13.151  0.00  0.00    +0.231 C 
ATOM     12  C   UNL     1      36.398 -23.133 -15.072  0.00  0.00    +0.220 C 
ATOM     13  C   UNL     1      38.338 -24.872 -12.889  0.00  0.00    +0.030 C 
ENDBRANCH   2  12
ENDBRANCH   1   3
BRANCH   1  14
ATOM     14  C   UNL     1      33.693 -20.560 -20.266  0.00  0.00    +0.205 C 
BRANCH  14  15
ATOM     15  C   UNL     1      33.882 -19.331 -21.143  0.00  0.00    +0.047 C 
BRANCH  15  16
ATOM     16  C   UNL     1      35.355 -18.947 -21.268  0.00  0.00    +0.004 C 
BRANCH  16  17
ATOM     17  C   UNL     1      35.726 -18.626 -22.716  0.00  0.00    +0.000 C 
BRANCH  17  18
ATOM     18  C   UNL     1      34.663 -19.139 -23.690  0.00  0.00    +0.000 C 
BRANCH  18  19
ATOM     19  C   UNL     1      34.385 -18.117 -24.796  0.00  0.00    +0.008 C 
BRANCH  19  20
ATOM     20  C   UNL     1      35.090 -16.775 -24.570  0.00  0.00    +0.067 C 
BRANCH  20  23
ATOM     21  O   UNL     1      33.528 -14.927 -24.881  0.00  0.00    -0.358 OA
ATOM     22  N   UNL     1      32.744 -14.011 -24.190  0.00  0.00    -0.082 NA
ATOM     23  C   UNL     1      34.184 -15.716 -23.991  0.00  0.00    +0.154 C 
ATOM     24  C   UNL     1      33.853 -15.346 -22.715  0.00  0.00    +0.054 C 
ATOM     25  C   UNL     1      32.954 -14.281 -22.899  0.00  0.00    +0.101 C 
ATOM     26  C   UNL     1      32.269 -13.489 -21.863  0.00  0.00    +0.056 C 
ENDBRANCH  20  23
ENDBRANCH  19  20
ENDBRANCH  18  19
ENDBRANCH  17  18
ENDBRANCH  16  17
ENDBRANCH  15  16
ENDBRANCH  14  15
ENDBRANCH   1  14
TORSDOF 10
ENDMDL
MODEL 9
REMARK VINA RESULT:      -9.4      2.803      4.945
REMARK  Name = 5272139
REMARK  10 active torsions:
REMARK  status: ('A' for Active; 'I' for Inactive)
REMARK    1  A    between atoms: O_1  and  C_3
REMARK    2  A    between atoms: O_1  and  C_14
REMARK    3  A    between atoms: C_2  and  C_12
REMARK    4  A    between atoms: C_14  and  C_15
REMARK    5  A    between atoms: C_15  and  C_16
REMARK    6  A    between atoms: C_16  and  C_17
REMARK    7  A    between atoms: C_17  and  C_18
REMARK    8  A    between atoms: C_18  and  C_19
REMARK    9  A    between atoms: C_19  and  C_20
REMARK   10  A    between atoms: C_20  and  C_23
REMARK                            x       y       z     vdW  Elec       q    Type
REMARK                         _______ _______ _______ _____ _____    ______ ____
ROOT
ATOM      1  O   UNL     1      35.773 -18.757 -20.588  0.00  0.00    -0.475 OA
ENDROOT
BRANCH   1   3
ATOM      2  C   UNL     1      34.365 -15.870 -23.232  0.00  0.00    +0.053 C 
ATOM      3  C   UNL     1      35.307 -17.807 -21.459  0.00  0.00    +0.139 C 
ATOM      4  C   UNL     1      34.777 -17.113 -23.712  0.00  0.00    +0.008 C 
ATOM      5  C   UNL     1      34.424 -15.595 -21.866  0.00  0.00    +0.008 C 
ATOM      6  C   UNL     1      35.248 -18.081 -22.826  0.00  0.00    +0.037 C 
ATOM      7  C   UNL     1      34.895 -16.564 -20.980  0.00  0.00    +0.037 C 
BRANCH   2  12
ATOM      8  O   UNL     1      33.851 -13.589 -23.670  0.00  0.00    -0.458 OA
ATOM      9  N   UNL     1      33.474 -15.055 -25.384  0.00  0.00    -0.236 NA
ATOM     10  C   UNL     1      33.006 -13.729 -25.817  0.00  0.00    +0.150 C 
ATOM     11  C   UNL     1      33.588 -12.769 -24.799  0.00  0.00    +0.231 C 
ATOM     12  C   UNL     1      33.870 -14.850 -24.167  0.00  0.00    +0.220 C 
ATOM     13  C   UNL     1      33.463 -13.446 -27.236  0.00  0.00    +0.030 C 
ENDBRANCH   2  12
ENDBRANCH   1   3
BRANCH   1  14
ATOM     14  C   UNL     1      35.313 -20.087 -20.785  0.00  0.00    +0.205 C 
BRANCH  14  15
ATOM     15  C   UNL     1      36.012 -21.002 -19.790  0.00  0.00    +0.047 C 
BRANCH  15  16
ATOM     16  C   UNL     1      35.141 -22.201 -19.417  0.00  0.00    +0.004 C 
BRANCH  16  17
ATOM     17  C   UNL     1      33.668 -21.806 -19.310  0.00  0.00    +0.000 C 
BRANCH  17  18
ATOM     18  C   UNL     1      33.006 -22.455 -18.092  0.00  0.00    +0.000 C 
BRANCH  18  19
ATOM     19  C   UNL     1      34.040 -23.163 -17.211  0.00  0.00    +0.008 C 
BRANCH  19  20
ATOM     20  C   UNL     1      33.758 -23.019 -15.712  0.00  0.00    +0.067 C 
BRANCH  20  23
ATOM     21  O   UNL     1      32.723 -24.687 -14.264  0.00  0.00    -0.358 OA
ATOM     22  N   UNL     1      31.512 -25.299 -13.969  0.00  0.00    -0.082 NA
ATOM     23  C   UNL     1      32.537 -23.782 -15.259  0.00  0.00    +0.154 C 
ATOM     24  C   UNL     1      31.221 -23.777 -15.637  0.00  0.00    +0.054 C 
ATOM     25  C   UNL     1      30.630 -24.740 -14.801  0.00  0.00    +0.101 C 
ATOM     26  C   UNL     1      29.218 -25.158 -14.764  0.00  0.00    +0.056 C 
ENDBRANCH  20  23
ENDBRANCH  19  20
ENDBRANCH  18  19
ENDBRANCH  17  18
ENDBRANCH  16  17
ENDBRANCH  15  16
ENDBRANCH  14  15
ENDBRANCH   1  14
TORSDOF 10
ENDMDL
