MODEL 1
REMARK VINA RESULT:      -6.7      0.000      0.000
REMARK  Name = 24860536
REMARK  10 active torsions:
REMARK  status: ('A' for Active; 'I' for Inactive)
REMARK    1  A    between atoms: N_2  and  CA_5
REMARK    2  A    between atoms: C_3  and  C_14
REMARK    3  A    between atoms: CA_5  and  C_7
REMARK    4  A    between atoms: CA_5  and  C_10
REMARK    5  A    between atoms: C_7  and  O_8
REMARK    6  A    between atoms: C_10  and  C_11
REMARK    7  A    between atoms: C_11  and  S_12
REMARK    8  A    between atoms: C_14  and  C_15
REMARK    9  A    between atoms: C_15  and  C_16
REMARK   10  A    between atoms: C_16  and  C_17
REMARK                            x       y       z     vdW  Elec       q    Type
REMARK                         _______ _______ _______ _____ _____    ______ ____
ROOT
ATOM      1  O   UNL     1      36.314 -22.916 -14.928  0.00  0.00    -0.275 OA
ATOM      2  N   UNL     1      38.308 -23.627 -15.878  0.00  0.00    -0.297 N 
ATOM      3  C   UNL     1      37.189 -22.812 -15.783  0.00  0.00    +0.223 C 
ATOM      4  H   UNL     1      38.956 -23.465 -16.600  0.00  0.00    +0.150 HD
ENDROOT
BRANCH   2   5
ATOM      5  CA  UNL     1      38.551 -24.705 -14.948  0.00  0.00    +0.172 C 
BRANCH   5   7
ATOM      6  OXT UNL     1      40.820 -24.839 -14.114  0.00  0.00    -0.248 OA
ATOM      7  C   UNL     1      40.001 -25.167 -14.965  0.00  0.00    +0.332 C 
BRANCH   7   8
ATOM      8  O   UNL     1      40.334 -25.933 -16.032  0.00  0.00    -0.479 OA
ATOM      9  H   UNL     1      39.666 -26.378 -16.516  0.00  0.00    +0.295 HD
ENDBRANCH   7   8
ENDBRANCH   5   7
BRANCH   5  10
ATOM     10  C   UNL     1      37.571 -25.867 -15.160  0.00  0.00    +0.042 C 
BRANCH  10  11
ATOM     11  C   UNL     1      37.299 -26.679 -13.892  0.00  0.00    +0.056 C 
BRANCH  11  12
ATOM     12  S   UNL     1      36.965 -25.570 -12.491  0.00  0.00    -0.168 S 
ATOM     13  H   UNL     1      38.089 -24.864 -12.193  0.00  0.00    +0.102 HD
ENDBRANCH  11  12
ENDBRANCH  10  11
ENDBRANCH   5  10
ENDBRANCH   2   5
BRANCH   3  14
ATOM     14  C   UNL     1      37.184 -21.739 -16.859  0.00  0.00    +0.085 C 
BRANCH  14  15
ATOM     15  C   UNL     1      36.143 -21.971 -17.954  0.00  0.00    +0.010 C 
BRANCH  15  16
ATOM     16  C   UNL     1      36.431 -21.152 -19.215  0.00  0.00    +0.001 C 
BRANCH  16  17
ATOM     17  C   UNL     1      35.167 -20.963 -20.053  0.00  0.00    +0.000 C 
ATOM     18  C   UNL     1      33.961 -21.619 -19.399  0.00  0.00    +0.000 C 
ENDBRANCH  16  17
ENDBRANCH  15  16
ENDBRANCH  14  15
ENDBRANCH   3  14
TORSDOF 10
ENDMDL
MODEL 2
REMARK VINA RESULT:      -6.4      5.855      6.829
REMARK  Name = 24860536
REMARK  10 active torsions:
REMARK  status: ('A' for Active; 'I' for Inactive)
REMARK    1  A    between atoms: N_2  and  CA_5
REMARK    2  A    between atoms: C_3  and  C_14
REMARK    3  A    between atoms: CA_5  and  C_7
REMARK    4  A    between atoms: CA_5  and  C_10
REMARK    5  A    between atoms: C_7  and  O_8
REMARK    6  A    between atoms: C_10  and  C_11
REMARK    7  A    between atoms: C_11  and  S_12
REMARK    8  A    between atoms: C_14  and  C_15
REMARK    9  A    between atoms: C_15  and  C_16
REMARK   10  A    between atoms: C_16  and  C_17
REMARK                            x       y       z     vdW  Elec       q    Type
REMARK                         _______ _______ _______ _____ _____    ______ ____
ROOT
ATOM      1  O   UNL     1      31.361 -22.339 -17.458  0.00  0.00    -0.275 OA
ATOM      2  N   UNL     1      32.105 -23.740 -15.766  0.00  0.00    -0.297 N 
ATOM      3  C   UNL     1      32.245 -23.015 -16.940  0.00  0.00    +0.223 C 
ATOM      4  H   UNL     1      32.874 -24.253 -15.427  0.00  0.00    +0.150 HD
ENDROOT
BRANCH   2   5
ATOM      5  CA  UNL     1      30.867 -23.764 -15.023  0.00  0.00    +0.172 C 
BRANCH   5   7
ATOM      6  OXT UNL     1      31.885 -23.124 -12.922  0.00  0.00    -0.248 OA
ATOM      7  C   UNL     1      31.095 -23.845 -13.521  0.00  0.00    +0.332 C 
BRANCH   7   8
ATOM      8  O   UNL     1      30.391 -24.820 -12.897  0.00  0.00    -0.479 OA
ATOM      9  H   UNL     1      30.543 -25.719 -13.114  0.00  0.00    +0.295 HD
ENDBRANCH   7   8
ENDBRANCH   5   7
BRANCH   5  10
ATOM     10  C   UNL     1      29.927 -24.869 -15.525  0.00  0.00    +0.042 C 
BRANCH  10  11
ATOM     11  C   UNL     1      28.728 -24.341 -16.316  0.00  0.00    +0.056 C 
BRANCH  11  12
ATOM     12  S   UNL     1      28.308 -22.657 -15.778  0.00  0.00    -0.168 S 
ATOM     13  H   UNL     1      28.713 -22.477 -14.493  0.00  0.00    +0.102 HD
ENDBRANCH  11  12
ENDBRANCH  10  11
ENDBRANCH   5  10
ENDBRANCH   2   5
BRANCH   3  14
ATOM     14  C   UNL     1      33.650 -23.133 -17.508  0.00  0.00    +0.085 C 
BRANCH  14  15
ATOM     15  C   UNL     1      33.764 -22.686 -18.965  0.00  0.00    +0.010 C 
BRANCH  15  16
ATOM     16  C   UNL     1      34.923 -21.710 -19.186  0.00  0.00    +0.001 C 
BRANCH  16  17
ATOM     17  C   UNL     1      34.557 -20.640 -20.214  0.00  0.00    +0.000 C 
ATOM     18  C   UNL     1      33.059 -20.380 -20.240  0.00  0.00    +0.000 C 
ENDBRANCH  16  17
ENDBRANCH  15  16
ENDBRANCH  14  15
ENDBRANCH   3  14
TORSDOF 10
ENDMDL
MODEL 3
REMARK VINA RESULT:      -6.4      1.982      2.275
REMARK  Name = 24860536
REMARK  10 active torsions:
REMARK  status: ('A' for Active; 'I' for Inactive)
REMARK    1  A    between atoms: N_2  and  CA_5
REMARK    2  A    between atoms: C_3  and  C_14
REMARK    3  A    between atoms: CA_5  and  C_7
REMARK    4  A    between atoms: CA_5  and  C_10
REMARK    5  A    between atoms: C_7  and  O_8
REMARK    6  A    between atoms: C_10  and  C_11
REMARK    7  A    between atoms: C_11  and  S_12
REMARK    8  A    between atoms: C_14  and  C_15
REMARK    9  A    between atoms: C_15  and  C_16
REMARK   10  A    between atoms: C_16  and  C_17
REMARK                            x       y       z     vdW  Elec       q    Type
REMARK                         _______ _______ _______ _____ _____    ______ ____
ROOT
ATOM      1  O   UNL     1      37.936 -22.632 -15.606  0.00  0.00    -0.275 OA
ATOM      2  N   UNL     1      36.243 -24.200 -15.368  0.00  0.00    -0.297 N 
ATOM      3  C   UNL     1      36.820 -23.055 -15.896  0.00  0.00    +0.223 C 
ATOM      4  H   UNL     1      35.341 -24.459 -15.663  0.00  0.00    +0.150 HD
ENDROOT
BRANCH   2   5
ATOM      5  CA  UNL     1      36.926 -25.026 -14.401  0.00  0.00    +0.172 C 
BRANCH   5   7
ATOM      6  OXT UNL     1      38.350 -26.973 -14.609  0.00  0.00    -0.248 OA
ATOM      7  C   UNL     1      37.353 -26.367 -14.982  0.00  0.00    +0.332 C 
BRANCH   7   8
ATOM      8  O   UNL     1      36.568 -26.816 -15.991  0.00  0.00    -0.479 OA
ATOM      9  H   UNL     1      36.732 -26.538 -16.871  0.00  0.00    +0.295 HD
ENDBRANCH   7   8
ENDBRANCH   5   7
BRANCH   5  10
ATOM     10  C   UNL     1      36.104 -25.190 -13.115  0.00  0.00    +0.042 C 
BRANCH  10  11
ATOM     11  C   UNL     1      35.844 -23.871 -12.382  0.00  0.00    +0.056 C 
BRANCH  11  12
ATOM     12  S   UNL     1      37.414 -23.066 -11.951  0.00  0.00    -0.168 S 
ATOM     13  H   UNL     1      38.394 -23.507 -12.785  0.00  0.00    +0.102 HD
ENDBRANCH  11  12
ENDBRANCH  10  11
ENDBRANCH   5  10
ENDBRANCH   2   5
BRANCH   3  14
ATOM     14  C   UNL     1      35.909 -22.384 -16.911  0.00  0.00    +0.085 C 
BRANCH  14  15
ATOM     15  C   UNL     1      36.660 -21.639 -18.014  0.00  0.00    +0.010 C 
BRANCH  15  16
ATOM     16  C   UNL     1      35.879 -21.604 -19.330  0.00  0.00    +0.001 C 
BRANCH  16  17
ATOM     17  C   UNL     1      34.418 -22.003 -19.117  0.00  0.00    +0.000 C 
ATOM     18  C   UNL     1      33.470 -21.043 -19.818  0.00  0.00    +0.000 C 
ENDBRANCH  16  17
ENDBRANCH  15  16
ENDBRANCH  14  15
ENDBRANCH   3  14
TORSDOF 10
ENDMDL
MODEL 4
REMARK VINA RESULT:      -6.3      7.536      9.197
REMARK  Name = 24860536
REMARK  10 active torsions:
REMARK  status: ('A' for Active; 'I' for Inactive)
REMARK    1  A    between atoms: N_2  and  CA_5
REMARK    2  A    between atoms: C_3  and  C_14
REMARK    3  A    between atoms: CA_5  and  C_7
REMARK    4  A    between atoms: CA_5  and  C_10
REMARK    5  A    between atoms: C_7  and  O_8
REMARK    6  A    between atoms: C_10  and  C_11
REMARK    7  A    between atoms: C_11  and  S_12
REMARK    8  A    between atoms: C_14  and  C_15
REMARK    9  A    between atoms: C_15  and  C_16
REMARK   10  A    between atoms: C_16  and  C_17
REMARK                            x       y       z     vdW  Elec       q    Type
REMARK                         _______ _______ _______ _____ _____    ______ ____
ROOT
ATOM      1  O   UNL     1      34.940 -15.831 -19.942  0.00  0.00    -0.275 OA
ATOM      2  N   UNL     1      34.303 -17.225 -21.684  0.00  0.00    -0.297 N 
ATOM      3  C   UNL     1      34.454 -15.996 -21.058  0.00  0.00    +0.223 C 
ATOM      4  H   UNL     1      33.900 -17.256 -22.581  0.00  0.00    +0.150 HD
ENDROOT
BRANCH   2   5
ATOM      5  CA  UNL     1      34.720 -18.459 -21.061  0.00  0.00    +0.172 C 
BRANCH   5   7
ATOM      6  OXT UNL     1      36.898 -19.323 -20.452  0.00  0.00    -0.248 OA
ATOM      7  C   UNL     1      36.198 -18.746 -21.277  0.00  0.00    +0.332 C 
BRANCH   7   8
ATOM      8  O   UNL     1      36.700 -18.263 -22.440  0.00  0.00    -0.479 OA
ATOM      9  H   UNL     1      37.172 -18.830 -23.018  0.00  0.00    +0.295 HD
ENDBRANCH   7   8
ENDBRANCH   5   7
BRANCH   5  10
ATOM     10  C   UNL     1      33.834 -19.637 -21.489  0.00  0.00    +0.042 C 
BRANCH  10  11
ATOM     11  C   UNL     1      32.895 -20.131 -20.386  0.00  0.00    +0.056 C 
BRANCH  11  12
ATOM     12  S   UNL     1      33.609 -21.578 -19.549  0.00  0.00    -0.168 S 
ATOM     13  H   UNL     1      32.703 -22.088 -18.673  0.00  0.00    +0.102 HD
ENDBRANCH  11  12
ENDBRANCH  10  11
ENDBRANCH   5  10
ENDBRANCH   2   5
BRANCH   3  14
ATOM     14  C   UNL     1      33.964 -14.855 -21.934  0.00  0.00    +0.085 C 
BRANCH  14  15
ATOM     15  C   UNL     1      34.526 -14.886 -23.354  0.00  0.00    +0.010 C 
BRANCH  15  16
ATOM     16  C   UNL     1      33.431 -14.756 -24.417  0.00  0.00    +0.001 C 
BRANCH  16  17
ATOM     17  C   UNL     1      33.632 -15.767 -25.545  0.00  0.00    +0.000 C 
ATOM     18  C   UNL     1      34.680 -16.807 -25.182  0.00  0.00    +0.000 C 
ENDBRANCH  16  17
ENDBRANCH  15  16
ENDBRANCH  14  15
ENDBRANCH   3  14
TORSDOF 10
ENDMDL
MODEL 5
REMARK VINA RESULT:      -6.3      8.078     11.329
REMARK  Name = 24860536
REMARK  10 active torsions:
REMARK  status: ('A' for Active; 'I' for Inactive)
REMARK    1  A    between atoms: N_2  and  CA_5
REMARK    2  A    between atoms: C_3  and  C_14
REMARK    3  A    between atoms: CA_5  and  C_7
REMARK    4  A    between atoms: CA_5  and  C_10
REMARK    5  A    between atoms: C_7  and  O_8
REMARK    6  A    between atoms: C_10  and  C_11
REMARK    7  A    between atoms: C_11  and  S_12
REMARK    8  A    between atoms: C_14  and  C_15
REMARK    9  A    between atoms: C_15  and  C_16
REMARK   10  A    between atoms: C_16  and  C_17
REMARK                            x       y       z     vdW  Elec       q    Type
REMARK                         _______ _______ _______ _____ _____    ______ ____
ROOT
ATOM      1  O   UNL     1      35.362 -17.014 -20.497  0.00  0.00    -0.275 OA
ATOM      2  N   UNL     1      34.154 -16.710 -22.454  0.00  0.00    -0.297 N 
ATOM      3  C   UNL     1      34.852 -17.461 -21.520  0.00  0.00    +0.223 C 
ATOM      4  H   UNL     1      33.779 -17.160 -23.245  0.00  0.00    +0.150 HD
ENDROOT
BRANCH   2   5
ATOM      5  CA  UNL     1      33.956 -15.288 -22.300  0.00  0.00    +0.172 C 
BRANCH   5   7
ATOM      6  OXT UNL     1      32.284 -15.545 -20.567  0.00  0.00    -0.248 OA
ATOM      7  C   UNL     1      32.658 -14.958 -21.577  0.00  0.00    +0.332 C 
BRANCH   7   8
ATOM      8  O   UNL     1      31.913 -13.995 -22.171  0.00  0.00    -0.479 OA
ATOM      9  H   UNL     1      31.671 -13.227 -21.690  0.00  0.00    +0.295 HD
ENDBRANCH   7   8
ENDBRANCH   5   7
BRANCH   5  10
ATOM     10  C   UNL     1      34.073 -14.551 -23.641  0.00  0.00    +0.042 C 
BRANCH  10  11
ATOM     11  C   UNL     1      33.773 -15.436 -24.854  0.00  0.00    +0.056 C 
BRANCH  11  12
ATOM     12  S   UNL     1      32.967 -14.464 -26.161  0.00  0.00    -0.168 S 
ATOM     13  H   UNL     1      33.536 -14.759 -27.361  0.00  0.00    +0.102 HD
ENDBRANCH  11  12
ENDBRANCH  10  11
ENDBRANCH   5  10
ENDBRANCH   2   5
BRANCH   3  14
ATOM     14  C   UNL     1      34.892 -18.932 -21.900  0.00  0.00    +0.085 C 
BRANCH  14  15
ATOM     15  C   UNL     1      34.850 -19.879 -20.702  0.00  0.00    +0.010 C 
BRANCH  15  16
ATOM     16  C   UNL     1      33.427 -20.331 -20.366  0.00  0.00    +0.001 C 
BRANCH  16  17
ATOM     17  C   UNL     1      33.437 -21.558 -19.454  0.00  0.00    +0.000 C 
ATOM     18  C   UNL     1      34.855 -21.989 -19.114  0.00  0.00    +0.000 C 
ENDBRANCH  16  17
ENDBRANCH  15  16
ENDBRANCH  14  15
ENDBRANCH   3  14
TORSDOF 10
ENDMDL
MODEL 6
REMARK VINA RESULT:      -6.2     10.167     12.944
REMARK  Name = 24860536
REMARK  10 active torsions:
REMARK  status: ('A' for Active; 'I' for Inactive)
REMARK    1  A    between atoms: N_2  and  CA_5
REMARK    2  A    between atoms: C_3  and  C_14
REMARK    3  A    between atoms: CA_5  and  C_7
REMARK    4  A    between atoms: CA_5  and  C_10
REMARK    5  A    between atoms: C_7  and  O_8
REMARK    6  A    between atoms: C_10  and  C_11
REMARK    7  A    between atoms: C_11  and  S_12
REMARK    8  A    between atoms: C_14  and  C_15
REMARK    9  A    between atoms: C_15  and  C_16
REMARK   10  A    between atoms: C_16  and  C_17
REMARK                            x       y       z     vdW  Elec       q    Type
REMARK                         _______ _______ _______ _____ _____    ______ ____
ROOT
ATOM      1  O   UNL     1      32.559 -15.265 -21.680  0.00  0.00    -0.275 OA
ATOM      2  N   UNL     1      34.118 -15.201 -23.396  0.00  0.00    -0.297 N 
ATOM      3  C   UNL     1      33.656 -15.567 -22.141  0.00  0.00    +0.223 C 
ATOM      4  H   UNL     1      35.015 -15.492 -23.678  0.00  0.00    +0.150 HD
ENDROOT
BRANCH   2   5
ATOM      5  CA  UNL     1      33.323 -14.407 -24.304  0.00  0.00    +0.172 C 
BRANCH   5   7
ATOM      6  OXT UNL     1      33.966 -15.925 -26.077  0.00  0.00    -0.248 OA
ATOM      7  C   UNL     1      33.213 -15.042 -25.683  0.00  0.00    +0.332 C 
BRANCH   7   8
ATOM      8  O   UNL     1      32.243 -14.514 -26.468  0.00  0.00    -0.479 OA
ATOM      9  H   UNL     1      32.431 -14.294 -27.360  0.00  0.00    +0.295 HD
ENDBRANCH   7   8
ENDBRANCH   5   7
BRANCH   5  10
ATOM     10  C   UNL     1      33.822 -12.957 -24.373  0.00  0.00    +0.042 C 
BRANCH  10  11
ATOM     11  C   UNL     1      33.119 -12.020 -23.389  0.00  0.00    +0.056 C 
BRANCH  11  12
ATOM     12  S   UNL     1      33.442 -10.286 -23.825  0.00  0.00    -0.168 S 
ATOM     13  H   UNL     1      33.337 -10.130 -25.172  0.00  0.00    +0.102 HD
ENDBRANCH  11  12
ENDBRANCH  10  11
ENDBRANCH   5  10
ENDBRANCH   2   5
BRANCH   3  14
ATOM     14  C   UNL     1      34.669 -16.422 -21.397  0.00  0.00    +0.085 C 
BRANCH  14  15
ATOM     15  C   UNL     1      35.372 -17.452 -22.280  0.00  0.00    +0.010 C 
BRANCH  15  16
ATOM     16  C   UNL     1      34.591 -18.766 -22.377  0.00  0.00    +0.001 C 
BRANCH  16  17
ATOM     17  C   UNL     1      34.492 -19.452 -21.014  0.00  0.00    +0.000 C 
ATOM     18  C   UNL     1      33.055 -19.821 -20.679  0.00  0.00    +0.000 C 
ENDBRANCH  16  17
ENDBRANCH  15  16
ENDBRANCH  14  15
ENDBRANCH   3  14
TORSDOF 10
ENDMDL
MODEL 7
REMARK VINA RESULT:      -6.2      8.509     11.649
REMARK  Name = 24860536
REMARK  10 active torsions:
REMARK  status: ('A' for Active; 'I' for Inactive)
REMARK    1  A    between atoms: N_2  and  CA_5
REMARK    2  A    between atoms: C_3  and  C_14
REMARK    3  A    between atoms: CA_5  and  C_7
REMARK    4  A    between atoms: CA_5  and  C_10
REMARK    5  A    between atoms: C_7  and  O_8
REMARK    6  A    between atoms: C_10  and  C_11
REMARK    7  A    between atoms: C_11  and  S_12
REMARK    8  A    between atoms: C_14  and  C_15
REMARK    9  A    between atoms: C_15  and  C_16
REMARK   10  A    between atoms: C_16  and  C_17
REMARK                            x       y       z     vdW  Elec       q    Type
REMARK                         _______ _______ _______ _____ _____    ______ ____
ROOT
ATOM      1  O   UNL     1      33.396 -16.488 -21.195  0.00  0.00    -0.275 OA
ATOM      2  N   UNL     1      34.664 -16.653 -23.131  0.00  0.00    -0.297 N 
ATOM      3  C   UNL     1      34.355 -16.946 -21.811  0.00  0.00    +0.223 C 
ATOM      4  H   UNL     1      35.456 -17.071 -23.540  0.00  0.00    +0.150 HD
ENDROOT
BRANCH   2   5
ATOM      5  CA  UNL     1      33.859 -15.756 -23.926  0.00  0.00    +0.172 C 
BRANCH   5   7
ATOM      6  OXT UNL     1      33.123 -15.651 -26.230  0.00  0.00    -0.248 OA
ATOM      7  C   UNL     1      33.931 -16.076 -25.412  0.00  0.00    +0.332 C 
BRANCH   7   8
ATOM      8  O   UNL     1      34.934 -16.919 -25.757  0.00  0.00    -0.479 OA
ATOM      9  H   UNL     1      35.359 -16.826 -26.587  0.00  0.00    +0.295 HD
ENDBRANCH   7   8
ENDBRANCH   5   7
BRANCH   5  10
ATOM     10  C   UNL     1      34.193 -14.287 -23.634  0.00  0.00    +0.042 C 
BRANCH  10  11
ATOM     11  C   UNL     1      32.972 -13.365 -23.652  0.00  0.00    +0.056 C 
BRANCH  11  12
ATOM     12  S   UNL     1      32.292 -13.184 -21.977  0.00  0.00    -0.168 S 
ATOM     13  H   UNL     1      32.228 -11.864 -21.653  0.00  0.00    +0.102 HD
ENDBRANCH  11  12
ENDBRANCH  10  11
ENDBRANCH   5  10
ENDBRANCH   2   5
BRANCH   3  14
ATOM     14  C   UNL     1      35.339 -17.936 -21.210  0.00  0.00    +0.085 C 
BRANCH  14  15
ATOM     15  C   UNL     1      35.006 -19.396 -21.513  0.00  0.00    +0.010 C 
BRANCH  15  16
ATOM     16  C   UNL     1      33.791 -19.893 -20.725  0.00  0.00    +0.001 C 
BRANCH  16  17
ATOM     17  C   UNL     1      34.159 -21.075 -19.828  0.00  0.00    +0.000 C 
ATOM     18  C   UNL     1      35.663 -21.294 -19.783  0.00  0.00    +0.000 C 
ENDBRANCH  16  17
ENDBRANCH  15  16
ENDBRANCH  14  15
ENDBRANCH   3  14
TORSDOF 10
ENDMDL
MODEL 8
REMARK VINA RESULT:      -6.2      8.455     10.434
REMARK  Name = 24860536
REMARK  10 active torsions:
REMARK  status: ('A' for Active; 'I' for Inactive)
REMARK    1  A    between atoms: N_2  and  CA_5
REMARK    2  A    between atoms: C_3  and  C_14
REMARK    3  A    between atoms: CA_5  and  C_7
REMARK    4  A    between atoms: CA_5  and  C_10
REMARK    5  A    between atoms: C_7  and  O_8
REMARK    6  A    between atoms: C_10  and  C_11
REMARK    7  A    between atoms: C_11  and  S_12
REMARK    8  A    between atoms: C_14  and  C_15
REMARK    9  A    between atoms: C_15  and  C_16
REMARK   10  A    between atoms: C_16  and  C_17
REMARK                            x       y       z     vdW  Elec       q    Type
REMARK                         _______ _______ _______ _____ _____    ______ ____
ROOT
ATOM      1  O   UNL     1      34.898 -15.052 -20.367  0.00  0.00    -0.275 OA
ATOM      2  N   UNL     1      33.846 -16.878 -21.338  0.00  0.00    -0.297 N 
ATOM      3  C   UNL     1      33.879 -15.625 -20.743  0.00  0.00    +0.223 C 
ATOM      4  H   UNL     1      32.978 -17.256 -21.606  0.00  0.00    +0.150 HD
ENDROOT
BRANCH   2   5
ATOM      5  CA  UNL     1      35.046 -17.644 -21.578  0.00  0.00    +0.172 C 
BRANCH   5   7
ATOM      6  OXT UNL     1      35.567 -18.616 -23.733  0.00  0.00    -0.248 OA
ATOM      7  C   UNL     1      35.473 -17.610 -23.038  0.00  0.00    +0.332 C 
BRANCH   7   8
ATOM      8  O   UNL     1      35.796 -16.378 -23.500  0.00  0.00    -0.479 OA
ATOM      9  H   UNL     1      35.119 -15.768 -23.720  0.00  0.00    +0.295 HD
ENDBRANCH   7   8
ENDBRANCH   5   7
BRANCH   5  10
ATOM     10  C   UNL     1      34.918 -19.079 -21.046  0.00  0.00    +0.042 C 
BRANCH  10  11
ATOM     11  C   UNL     1      33.469 -19.551 -20.901  0.00  0.00    +0.056 C 
BRANCH  11  12
ATOM     12  S   UNL     1      33.389 -21.030 -19.850  0.00  0.00    -0.168 S 
ATOM     13  H   UNL     1      34.630 -21.315 -19.371  0.00  0.00    +0.102 HD
ENDBRANCH  11  12
ENDBRANCH  10  11
ENDBRANCH   5  10
ENDBRANCH   2   5
BRANCH   3  14
ATOM     14  C   UNL     1      32.490 -15.020 -20.631  0.00  0.00    +0.085 C 
BRANCH  14  15
ATOM     15  C   UNL     1      32.493 -13.519 -20.347  0.00  0.00    +0.010 C 
BRANCH  15  16
ATOM     16  C   UNL     1      31.982 -12.700 -21.536  0.00  0.00    +0.001 C 
BRANCH  16  17
ATOM     17  C   UNL     1      31.025 -11.599 -21.078  0.00  0.00    +0.000 C 
ATOM     18  C   UNL     1      31.375 -11.099 -19.685  0.00  0.00    +0.000 C 
ENDBRANCH  16  17
ENDBRANCH  15  16
ENDBRANCH  14  15
ENDBRANCH   3  14
TORSDOF 10
ENDMDL
MODEL 9
REMARK VINA RESULT:      -6.1     10.213     12.491
REMARK  Name = 24860536
REMARK  10 active torsions:
REMARK  status: ('A' for Active; 'I' for Inactive)
REMARK    1  A    between atoms: N_2  and  CA_5
REMARK    2  A    between atoms: C_3  and  C_14
REMARK    3  A    between atoms: CA_5  and  C_7
REMARK    4  A    between atoms: CA_5  and  C_10
REMARK    5  A    between atoms: C_7  and  O_8
REMARK    6  A    between atoms: C_10  and  C_11
REMARK    7  A    between atoms: C_11  and  S_12
REMARK    8  A    between atoms: C_14  and  C_15
REMARK    9  A    between atoms: C_15  and  C_16
REMARK   10  A    between atoms: C_16  and  C_17
REMARK                            x       y       z     vdW  Elec       q    Type
REMARK                         _______ _______ _______ _____ _____    ______ ____
ROOT
ATOM      1  O   UNL     1      34.113 -13.330 -23.958  0.00  0.00    -0.275 OA
ATOM      2  N   UNL     1      33.659 -15.447 -23.126  0.00  0.00    -0.297 N 
ATOM      3  C   UNL     1      33.457 -14.080 -23.240  0.00  0.00    +0.223 C 
ATOM      4  H   UNL     1      33.080 -15.966 -22.522  0.00  0.00    +0.150 HD
ENDROOT
BRANCH   2   5
ATOM      5  CA  UNL     1      34.691 -16.134 -23.866  0.00  0.00    +0.172 C 
BRANCH   5   7
ATOM      6  OXT UNL     1      34.028 -17.843 -25.448  0.00  0.00    -0.248 OA
ATOM      7  C   UNL     1      34.193 -16.652 -25.208  0.00  0.00    +0.332 C 
BRANCH   7   8
ATOM      8  O   UNL     1      33.996 -15.691 -26.143  0.00  0.00    -0.479 OA
ATOM      9  H   UNL     1      34.319 -15.813 -27.014  0.00  0.00    +0.295 HD
ENDBRANCH   7   8
ENDBRANCH   5   7
BRANCH   5  10
ATOM     10  C   UNL     1      35.348 -17.240 -23.028  0.00  0.00    +0.042 C 
BRANCH  10  11
ATOM     11  C   UNL     1      34.800 -17.336 -21.602  0.00  0.00    +0.056 C 
BRANCH  11  12
ATOM     12  S   UNL     1      34.168 -19.008 -21.279  0.00  0.00    -0.168 S 
ATOM     13  H   UNL     1      35.135 -19.750 -20.676  0.00  0.00    +0.102 HD
ENDBRANCH  11  12
ENDBRANCH  10  11
ENDBRANCH   5  10
ENDBRANCH   2   5
BRANCH   3  14
ATOM     14  C   UNL     1      32.294 -13.610 -22.382  0.00  0.00    +0.085 C 
BRANCH  14  15
ATOM     15  C   UNL     1      32.093 -12.095 -22.395  0.00  0.00    +0.010 C 
BRANCH  15  16
ATOM     16  C   UNL     1      31.119 -11.628 -21.309  0.00  0.00    +0.001 C 
BRANCH  16  17
ATOM     17  C   UNL     1      31.743 -11.744 -19.919  0.00  0.00    +0.000 C 
ATOM     18  C   UNL     1      31.318 -10.595 -19.018  0.00  0.00    +0.000 C 
ENDBRANCH  16  17
ENDBRANCH  15  16
ENDBRANCH  14  15
ENDBRANCH   3  14
TORSDOF 10
ENDMDL
