MODEL 1
REMARK VINA RESULT:      -8.2      0.000      0.000
REMARK  Name = 2342
REMARK  7 active torsions:
REMARK  status: ('A' for Active; 'I' for Inactive)
REMARK    1  A    between atoms: C_3  and  C_18
REMARK    2  A    between atoms: C_5  and  O_27
REMARK    3  A    between atoms: C_13  and  O_23
REMARK    4  A    between atoms: C_14  and  O_25
REMARK    5  A    between atoms: N_17  and  C_19
REMARK    6  A    between atoms: N_17  and  C_21
REMARK    7  A    between atoms: O_27  and  C_29
REMARK                            x       y       z     vdW  Elec       q    Type
REMARK                         _______ _______ _______ _____ _____    ______ ____
ROOT
ATOM      1  N   UNL     1      33.419  -9.404 -24.101  0.00  0.00    +0.391 N 
ATOM      2  C   UNL     1      33.104 -10.328 -22.980  0.00  0.00    -0.031 C 
ATOM      3  C   UNL     1      32.092  -7.581 -23.127  0.00  0.00    +0.096 C 
ATOM      4  C   UNL     1      31.708  -9.953 -22.420  0.00  0.00    +0.028 C 
ATOM      5  C   UNL     1      31.638  -8.485 -21.982  0.00  0.00    +0.174 C 
ATOM      6  C   UNL     1      33.463  -8.004 -23.661  0.00  0.00    -0.064 C 
ATOM      7  C   UNL     1      34.676  -9.784 -24.752  0.00  0.00    -0.072 C 
ATOM      8  C   UNL     1      33.198 -11.800 -23.387  0.00  0.00    -0.042 C 
ATOM      9  C   UNL     1      34.485 -11.122 -25.461  0.00  0.00    +0.003 C 
ATOM     10  C   UNL     1      33.885 -12.169 -24.560  0.00  0.00    -0.027 C 
ATOM     11  C   UNL     1      32.690 -12.819 -22.565  0.00  0.00    +0.033 C 
ATOM     12  C   UNL     1      33.986 -13.520 -24.925  0.00  0.00    +0.035 C 
ATOM     13  C   UNL     1      32.806 -14.162 -22.929  0.00  0.00    +0.172 C 
ATOM     14  C   UNL     1      33.446 -14.513 -24.112  0.00  0.00    +0.172 C 
ATOM     15  H   UNL     1      32.666  -9.487 -24.783  0.00  0.00    -0.079 HD
ENDROOT
BRANCH   3  18
ATOM     16  O   UNL     1      32.363  -5.890 -21.500  0.00  0.00    -0.275 OA
ATOM     17  N   UNL     1      31.876  -5.185 -23.661  0.00  0.00    -0.280 N 
ATOM     18  C   UNL     1      32.125  -6.148 -22.684  0.00  0.00    +0.227 C 
BRANCH  17  19
ATOM     19  C   UNL     1      31.878  -3.758 -23.367  0.00  0.00    +0.093 C 
ATOM     20  C   UNL     1      30.840  -3.021 -24.189  0.00  0.00    +0.023 C 
ENDBRANCH  17  19
BRANCH  17  21
ATOM     21  C   UNL     1      31.598  -5.536 -25.052  0.00  0.00    +0.093 C 
ATOM     22  C   UNL     1      32.780  -5.230 -25.949  0.00  0.00    +0.023 C 
ENDBRANCH  17  21
ENDBRANCH   3  18
BRANCH  13  23
ATOM     23  O   UNL     1      32.289 -15.123 -22.111  0.00  0.00    -0.468 OA
ATOM     24  C   UNL     1      32.805 -15.189 -20.784  0.00  0.00    +0.253 C 
ENDBRANCH  13  23
BRANCH  14  25
ATOM     25  O   UNL     1      33.561 -15.818 -24.479  0.00  0.00    -0.468 OA
ATOM     26  C   UNL     1      34.798 -16.467 -24.187  0.00  0.00    +0.253 C 
ENDBRANCH  14  25
BRANCH   5  27
ATOM     27  O   UNL     1      32.493  -8.300 -20.853  0.00  0.00    -0.452 OA
BRANCH  27  29
ATOM     28  O   UNL     1      31.463  -7.790 -18.848  0.00  0.00    -0.250 OA
ATOM     29  C   UNL     1      31.937  -8.592 -19.641  0.00  0.00    +0.317 C 
ATOM     30  C   UNL     1      31.987 -10.072 -19.408  0.00  0.00    +0.121 C 
ENDBRANCH  27  29
ENDBRANCH   5  27
TORSDOF 7
ENDMDL
MODEL 2
REMARK VINA RESULT:      -7.9      2.842      5.950
REMARK  Name = 2342
REMARK  7 active torsions:
REMARK  status: ('A' for Active; 'I' for Inactive)
REMARK    1  A    between atoms: C_3  and  C_18
REMARK    2  A    between atoms: C_5  and  O_27
REMARK    3  A    between atoms: C_13  and  O_23
REMARK    4  A    between atoms: C_14  and  O_25
REMARK    5  A    between atoms: N_17  and  C_19
REMARK    6  A    between atoms: N_17  and  C_21
REMARK    7  A    between atoms: O_27  and  C_29
REMARK                            x       y       z     vdW  Elec       q    Type
REMARK                         _______ _______ _______ _____ _____    ______ ____
ROOT
ATOM      1  N   UNL     1      33.219 -14.070 -21.762  0.00  0.00    +0.391 N 
ATOM      2  C   UNL     1      33.467 -14.918 -22.958  0.00  0.00    -0.031 C 
ATOM      3  C   UNL     1      33.488 -11.988 -23.037  0.00  0.00    +0.096 C 
ATOM      4  C   UNL     1      34.411 -14.144 -23.914  0.00  0.00    +0.028 C 
ATOM      5  C   UNL     1      33.844 -12.773 -24.298  0.00  0.00    +0.174 C 
ATOM      6  C   UNL     1      32.573 -12.800 -22.116  0.00  0.00    -0.064 C 
ATOM      7  C   UNL     1      32.427 -14.795 -20.764  0.00  0.00    -0.072 C 
ATOM      8  C   UNL     1      34.004 -16.304 -22.595  0.00  0.00    -0.042 C 
ATOM      9  C   UNL     1      33.266 -15.938 -20.199  0.00  0.00    +0.003 C 
ATOM     10  C   UNL     1      33.876 -16.792 -21.279  0.00  0.00    -0.027 C 
ATOM     11  C   UNL     1      34.547 -17.156 -23.571  0.00  0.00    +0.033 C 
ATOM     12  C   UNL     1      34.353 -18.070 -20.951  0.00  0.00    +0.035 C 
ATOM     13  C   UNL     1      35.008 -18.431 -23.238  0.00  0.00    +0.172 C 
ATOM     14  C   UNL     1      34.919 -18.885 -21.927  0.00  0.00    +0.172 C 
ATOM     15  H   UNL     1      34.127 -13.849 -21.355  0.00  0.00    -0.079 HD
ENDROOT
BRANCH   3  18
ATOM     16  O   UNL     1      31.631 -10.536 -23.195  0.00  0.00    -0.275 OA
ATOM     17  N   UNL     1      33.667  -9.705 -23.948  0.00  0.00    -0.280 N 
ATOM     18  C   UNL     1      32.840 -10.683 -23.396  0.00  0.00    +0.227 C 
BRANCH  17  19
ATOM     19  C   UNL     1      33.167  -8.394 -24.342  0.00  0.00    +0.093 C 
ATOM     20  C   UNL     1      33.912  -7.281 -23.633  0.00  0.00    +0.023 C 
ENDBRANCH  17  19
BRANCH  17  21
ATOM     21  C   UNL     1      35.094  -9.923 -24.171  0.00  0.00    +0.093 C 
ATOM     22  C   UNL     1      35.409 -10.075 -25.645  0.00  0.00    +0.023 C 
ENDBRANCH  17  21
ENDBRANCH   3  18
BRANCH  13  23
ATOM     23  O   UNL     1      35.541 -19.224 -24.210  0.00  0.00    -0.468 OA
ATOM     24  C   UNL     1      34.624 -19.906 -25.063  0.00  0.00    +0.253 C 
ENDBRANCH  13  23
BRANCH  14  25
ATOM     25  O   UNL     1      35.369 -20.124 -21.589  0.00  0.00    -0.468 OA
ATOM     26  C   UNL     1      35.231 -20.514 -20.223  0.00  0.00    +0.253 C 
ENDBRANCH  14  25
BRANCH   5  27
ATOM     27  O   UNL     1      32.675 -12.964 -25.096  0.00  0.00    -0.452 OA
BRANCH  27  29
ATOM     28  O   UNL     1      32.505 -14.887 -26.366  0.00  0.00    -0.250 OA
ATOM     29  C   UNL     1      32.846 -13.721 -26.218  0.00  0.00    +0.317 C 
ATOM     30  C   UNL     1      33.526 -12.906 -27.277  0.00  0.00    +0.121 C 
ENDBRANCH  27  29
ENDBRANCH   5  27
TORSDOF 7
ENDMDL
MODEL 3
REMARK VINA RESULT:      -7.6      3.201      8.540
REMARK  Name = 2342
REMARK  7 active torsions:
REMARK  status: ('A' for Active; 'I' for Inactive)
REMARK    1  A    between atoms: C_3  and  C_18
REMARK    2  A    between atoms: C_5  and  O_27
REMARK    3  A    between atoms: C_13  and  O_23
REMARK    4  A    between atoms: C_14  and  O_25
REMARK    5  A    between atoms: N_17  and  C_19
REMARK    6  A    between atoms: N_17  and  C_21
REMARK    7  A    between atoms: O_27  and  C_29
REMARK                            x       y       z     vdW  Elec       q    Type
REMARK                         _______ _______ _______ _____ _____    ______ ____
ROOT
ATOM      1  N   UNL     1      31.371  -4.811 -23.023  0.00  0.00    +0.391 N 
ATOM      2  C   UNL     1      32.264  -5.129 -24.168  0.00  0.00    -0.031 C 
ATOM      3  C   UNL     1      31.613  -7.056 -22.058  0.00  0.00    +0.096 C 
ATOM      4  C   UNL     1      32.144  -6.645 -24.470  0.00  0.00    +0.028 C 
ATOM      5  C   UNL     1      32.467  -7.504 -23.243  0.00  0.00    +0.174 C 
ATOM      6  C   UNL     1      31.748  -5.551 -21.812  0.00  0.00    -0.064 C 
ATOM      7  C   UNL     1      31.349  -3.368 -22.764  0.00  0.00    -0.072 C 
ATOM      8  C   UNL     1      31.979  -4.261 -25.395  0.00  0.00    -0.042 C 
ATOM      9  C   UNL     1      30.664  -2.664 -23.933  0.00  0.00    +0.003 C 
ATOM     10  C   UNL     1      31.237  -3.070 -25.264  0.00  0.00    -0.027 C 
ATOM     11  C   UNL     1      32.521  -4.572 -26.653  0.00  0.00    +0.033 C 
ATOM     12  C   UNL     1      30.991  -2.264 -26.386  0.00  0.00    +0.035 C 
ATOM     13  C   UNL     1      32.282  -3.758 -27.762  0.00  0.00    +0.172 C 
ATOM     14  C   UNL     1      31.510  -2.609 -27.632  0.00  0.00    +0.172 C 
ATOM     15  H   UNL     1      30.430  -5.106 -23.282  0.00  0.00    -0.079 HD
ENDROOT
BRANCH   3  18
ATOM     16  O   UNL     1      32.439  -7.209 -19.849  0.00  0.00    -0.275 OA
ATOM     17  N   UNL     1      31.798  -9.202 -20.860  0.00  0.00    -0.280 N 
ATOM     18  C   UNL     1      31.988  -7.821 -20.822  0.00  0.00    +0.227 C 
BRANCH  17  19
ATOM     19  C   UNL     1      32.119 -10.064 -19.729  0.00  0.00    +0.093 C 
ATOM     20  C   UNL     1      30.868 -10.626 -19.087  0.00  0.00    +0.023 C 
ENDBRANCH  17  19
BRANCH  17  21
ATOM     21  C   UNL     1      31.261  -9.885 -22.035  0.00  0.00    +0.093 C 
ATOM     22  C   UNL     1      32.155 -11.029 -22.467  0.00  0.00    +0.023 C 
ENDBRANCH  17  21
ENDBRANCH   3  18
BRANCH  13  23
ATOM     23  O   UNL     1      32.815  -4.100 -28.969  0.00  0.00    -0.468 OA
ATOM     24  C   UNL     1      34.180  -3.755 -29.195  0.00  0.00    +0.253 C 
ENDBRANCH  13  23
BRANCH  14  25
ATOM     25  O   UNL     1      31.266  -1.810 -28.706  0.00  0.00    -0.468 OA
ATOM     26  C   UNL     1      29.929  -1.786 -29.205  0.00  0.00    +0.253 C 
ENDBRANCH  14  25
BRANCH   5  27
ATOM     27  O   UNL     1      33.851  -7.354 -22.926  0.00  0.00    -0.452 OA
BRANCH  27  29
ATOM     28  O   UNL     1      35.285  -6.730 -24.627  0.00  0.00    -0.250 OA
ATOM     29  C   UNL     1      34.718  -7.581 -23.955  0.00  0.00    +0.317 C 
ATOM     30  C   UNL     1      34.888  -9.057 -24.155  0.00  0.00    +0.121 C 
ENDBRANCH  27  29
ENDBRANCH   5  27
TORSDOF 7
ENDMDL
MODEL 4
REMARK VINA RESULT:      -7.5      1.387      1.880
REMARK  Name = 2342
REMARK  7 active torsions:
REMARK  status: ('A' for Active; 'I' for Inactive)
REMARK    1  A    between atoms: C_3  and  C_18
REMARK    2  A    between atoms: C_5  and  O_27
REMARK    3  A    between atoms: C_13  and  O_23
REMARK    4  A    between atoms: C_14  and  O_25
REMARK    5  A    between atoms: N_17  and  C_19
REMARK    6  A    between atoms: N_17  and  C_21
REMARK    7  A    between atoms: O_27  and  C_29
REMARK                            x       y       z     vdW  Elec       q    Type
REMARK                         _______ _______ _______ _____ _____    ______ ____
ROOT
ATOM      1  N   UNL     1      32.840 -10.881 -24.479  0.00  0.00    +0.391 N 
ATOM      2  C   UNL     1      33.056 -11.547 -23.167  0.00  0.00    -0.031 C 
ATOM      3  C   UNL     1      31.515  -9.072 -23.477  0.00  0.00    +0.096 C 
ATOM      4  C   UNL     1      31.837 -11.237 -22.260  0.00  0.00    +0.028 C 
ATOM      5  C   UNL     1      31.605  -9.731 -22.101  0.00  0.00    +0.174 C 
ATOM      6  C   UNL     1      32.729  -9.424 -24.342  0.00  0.00    -0.064 C 
ATOM      7  C   UNL     1      33.903 -11.234 -25.424  0.00  0.00    -0.072 C 
ATOM      8  C   UNL     1      33.320 -13.047 -23.305  0.00  0.00    -0.042 C 
ATOM      9  C   UNL     1      33.786 -12.716 -25.774  0.00  0.00    +0.003 C 
ATOM     10  C   UNL     1      33.696 -13.589 -24.550  0.00  0.00    -0.027 C 
ATOM     11  C   UNL     1      33.287 -13.901 -22.191  0.00  0.00    +0.033 C 
ATOM     12  C   UNL     1      33.956 -14.963 -24.673  0.00  0.00    +0.035 C 
ATOM     13  C   UNL     1      33.559 -15.264 -22.319  0.00  0.00    +0.172 C 
ATOM     14  C   UNL     1      33.885 -15.798 -23.561  0.00  0.00    +0.172 C 
ATOM     15  H   UNL     1      31.953 -11.223 -24.849  0.00  0.00    -0.079 HD
ENDROOT
BRANCH   3  18
ATOM     16  O   UNL     1      30.343  -7.108 -22.885  0.00  0.00    -0.275 OA
ATOM     17  N   UNL     1      32.484  -6.821 -23.744  0.00  0.00    -0.280 N 
ATOM     18  C   UNL     1      31.388  -7.584 -23.339  0.00  0.00    +0.227 C 
BRANCH  17  19
ATOM     19  C   UNL     1      32.493  -5.366 -23.664  0.00  0.00    +0.093 C 
ATOM     20  C   UNL     1      32.001  -4.737 -24.951  0.00  0.00    +0.023 C 
ENDBRANCH  17  19
BRANCH  17  21
ATOM     21  C   UNL     1      33.702  -7.427 -24.277  0.00  0.00    +0.093 C 
ATOM     22  C   UNL     1      34.847  -7.329 -23.290  0.00  0.00    +0.023 C 
ENDBRANCH  17  21
ENDBRANCH   3  18
BRANCH  13  23
ATOM     23  O   UNL     1      33.506 -16.063 -21.216  0.00  0.00    -0.468 OA
ATOM     24  C   UNL     1      34.650 -16.071 -20.367  0.00  0.00    +0.253 C 
ENDBRANCH  13  23
BRANCH  14  25
ATOM     25  O   UNL     1      34.147 -17.125 -23.700  0.00  0.00    -0.468 OA
ATOM     26  C   UNL     1      34.547 -17.575 -24.994  0.00  0.00    +0.253 C 
ENDBRANCH  14  25
BRANCH   5  27
ATOM     27  O   UNL     1      32.695  -9.171 -21.367  0.00  0.00    -0.452 OA
BRANCH  27  29
ATOM     28  O   UNL     1      32.108  -9.464 -19.152  0.00  0.00    -0.250 OA
ATOM     29  C   UNL     1      32.399  -8.752 -20.103  0.00  0.00    +0.317 C 
ATOM     30  C   UNL     1      32.484  -7.256 -20.036  0.00  0.00    +0.121 C 
ENDBRANCH  27  29
ENDBRANCH   5  27
TORSDOF 7
ENDMDL
MODEL 5
REMARK VINA RESULT:      -7.5      2.681      5.569
REMARK  Name = 2342
REMARK  7 active torsions:
REMARK  status: ('A' for Active; 'I' for Inactive)
REMARK    1  A    between atoms: C_3  and  C_18
REMARK    2  A    between atoms: C_5  and  O_27
REMARK    3  A    between atoms: C_13  and  O_23
REMARK    4  A    between atoms: C_14  and  O_25
REMARK    5  A    between atoms: N_17  and  C_19
REMARK    6  A    between atoms: N_17  and  C_21
REMARK    7  A    between atoms: O_27  and  C_29
REMARK                            x       y       z     vdW  Elec       q    Type
REMARK                         _______ _______ _______ _____ _____    ______ ____
ROOT
ATOM      1  N   UNL     1      32.908 -13.377 -21.897  0.00  0.00    +0.391 N 
ATOM      2  C   UNL     1      33.347 -14.271 -23.001  0.00  0.00    -0.031 C 
ATOM      3  C   UNL     1      33.360 -11.347 -23.203  0.00  0.00    +0.096 C 
ATOM      4  C   UNL     1      34.425 -13.525 -23.829  0.00  0.00    +0.028 C 
ATOM      5  C   UNL     1      33.916 -12.179 -24.357  0.00  0.00    +0.174 C 
ATOM      6  C   UNL     1      32.317 -12.132 -22.402  0.00  0.00    -0.064 C 
ATOM      7  C   UNL     1      31.975 -14.070 -21.005  0.00  0.00    -0.072 C 
ATOM      8  C   UNL     1      33.831 -15.633 -22.498  0.00  0.00    -0.042 C 
ATOM      9  C   UNL     1      32.722 -15.177 -20.266  0.00  0.00    +0.003 C 
ATOM     10  C   UNL     1      33.501 -16.067 -21.199  0.00  0.00    -0.027 C 
ATOM     11  C   UNL     1      34.527 -16.517 -23.338  0.00  0.00    +0.033 C 
ATOM     12  C   UNL     1      33.929 -17.323 -20.743  0.00  0.00    +0.035 C 
ATOM     13  C   UNL     1      34.938 -17.771 -22.881  0.00  0.00    +0.172 C 
ATOM     14  C   UNL     1      34.647 -18.171 -21.582  0.00  0.00    +0.172 C 
ATOM     15  H   UNL     1      33.739 -13.127 -21.362  0.00  0.00    -0.079 HD
ENDROOT
BRANCH   3  18
ATOM     16  O   UNL     1      32.909  -9.774 -24.907  0.00  0.00    -0.275 OA
ATOM     17  N   UNL     1      32.084  -9.279 -22.791  0.00  0.00    -0.280 N 
ATOM     18  C   UNL     1      32.768 -10.068 -23.716  0.00  0.00    +0.227 C 
BRANCH  17  19
ATOM     19  C   UNL     1      31.460  -8.013 -23.155  0.00  0.00    +0.093 C 
ATOM     20  C   UNL     1      32.498  -6.956 -23.474  0.00  0.00    +0.023 C 
ENDBRANCH  17  19
BRANCH  17  21
ATOM     21  C   UNL     1      31.941  -9.666 -21.389  0.00  0.00    +0.093 C 
ATOM     22  C   UNL     1      32.366  -8.547 -20.460  0.00  0.00    +0.023 C 
ENDBRANCH  17  21
ENDBRANCH   3  18
BRANCH  13  23
ATOM     23  O   UNL     1      35.623 -18.597 -23.722  0.00  0.00    -0.468 OA
ATOM     24  C   UNL     1      34.852 -19.372 -24.637  0.00  0.00    +0.253 C 
ENDBRANCH  13  23
BRANCH  14  25
ATOM     25  O   UNL     1      35.047 -19.389 -21.124  0.00  0.00    -0.468 OA
ATOM     26  C   UNL     1      34.043 -20.231 -20.560  0.00  0.00    +0.253 C 
ENDBRANCH  14  25
BRANCH   5  27
ATOM     27  O   UNL     1      32.888 -12.420 -25.319  0.00  0.00    -0.452 OA
BRANCH  27  29
ATOM     28  O   UNL     1      34.048 -12.563 -27.313  0.00  0.00    -0.250 OA
ATOM     29  C   UNL     1      33.292 -13.030 -26.471  0.00  0.00    +0.317 C 
ATOM     30  C   UNL     1      32.667 -14.389 -26.567  0.00  0.00    +0.121 C 
ENDBRANCH  27  29
ENDBRANCH   5  27
TORSDOF 7
ENDMDL
MODEL 6
REMARK VINA RESULT:      -7.4      2.108      3.304
REMARK  Name = 2342
REMARK  7 active torsions:
REMARK  status: ('A' for Active; 'I' for Inactive)
REMARK    1  A    between atoms: C_3  and  C_18
REMARK    2  A    between atoms: C_5  and  O_27
REMARK    3  A    between atoms: C_13  and  O_23
REMARK    4  A    between atoms: C_14  and  O_25
REMARK    5  A    between atoms: N_17  and  C_19
REMARK    6  A    between atoms: N_17  and  C_21
REMARK    7  A    between atoms: O_27  and  C_29
REMARK                            x       y       z     vdW  Elec       q    Type
REMARK                         _______ _______ _______ _____ _____    ______ ____
ROOT
ATOM      1  N   UNL     1      33.657  -7.578 -24.865  0.00  0.00    +0.391 N 
ATOM      2  C   UNL     1      32.795  -7.935 -23.708  0.00  0.00    -0.031 C 
ATOM      3  C   UNL     1      32.391  -5.524 -25.327  0.00  0.00    +0.096 C 
ATOM      4  C   UNL     1      31.376  -7.367 -23.968  0.00  0.00    +0.028 C 
ATOM      5  C   UNL     1      31.397  -5.855 -24.214  0.00  0.00    +0.174 C 
ATOM      6  C   UNL     1      33.770  -6.124 -25.037  0.00  0.00    -0.064 C 
ATOM      7  C   UNL     1      34.983  -8.189 -24.736  0.00  0.00    -0.072 C 
ATOM      8  C   UNL     1      32.784  -9.439 -23.425  0.00  0.00    -0.042 C 
ATOM      9  C   UNL     1      34.847  -9.704 -24.872  0.00  0.00    +0.003 C 
ATOM     10  C   UNL     1      33.787 -10.269 -23.964  0.00  0.00    -0.027 C 
ATOM     11  C   UNL     1      31.841 -10.012 -22.556  0.00  0.00    +0.033 C 
ATOM     12  C   UNL     1      33.787 -11.645 -23.690  0.00  0.00    +0.035 C 
ATOM     13  C   UNL     1      31.856 -11.380 -22.279  0.00  0.00    +0.172 C 
ATOM     14  C   UNL     1      32.823 -12.199 -22.852  0.00  0.00    +0.172 C 
ATOM     15  H   UNL     1      33.211  -7.951 -25.703  0.00  0.00    -0.079 HD
ENDROOT
BRANCH   3  18
ATOM     16  O   UNL     1      32.113  -3.291 -24.609  0.00  0.00    -0.275 OA
ATOM     17  N   UNL     1      33.033  -3.597 -26.722  0.00  0.00    -0.280 N 
ATOM     18  C   UNL     1      32.497  -4.040 -25.512  0.00  0.00    +0.227 C 
BRANCH  17  19
ATOM     19  C   UNL     1      33.192  -2.182 -27.032  0.00  0.00    +0.093 C 
ATOM     20  C   UNL     1      34.654  -1.806 -27.169  0.00  0.00    +0.023 C 
ENDBRANCH  17  19
BRANCH  17  21
ATOM     21  C   UNL     1      33.474  -4.520 -27.765  0.00  0.00    +0.093 C 
ATOM     22  C   UNL     1      32.643  -4.372 -29.023  0.00  0.00    +0.023 C 
ENDBRANCH  17  21
ENDBRANCH   3  18
BRANCH  13  23
ATOM     23  O   UNL     1      30.917 -11.902 -21.440  0.00  0.00    -0.468 OA
ATOM     24  C   UNL     1      30.709 -11.227 -20.202  0.00  0.00    +0.253 C 
ENDBRANCH  13  23
BRANCH  14  25
ATOM     25  O   UNL     1      32.845 -13.535 -22.593  0.00  0.00    -0.468 OA
ATOM     26  C   UNL     1      34.111 -14.188 -22.664  0.00  0.00    +0.253 C 
ENDBRANCH  14  25
BRANCH   5  27
ATOM     27  O   UNL     1      31.785  -5.196 -23.008  0.00  0.00    -0.452 OA
BRANCH  27  29
ATOM     28  O   UNL     1      29.792  -5.072 -21.846  0.00  0.00    -0.250 OA
ATOM     29  C   UNL     1      30.966  -5.402 -21.936  0.00  0.00    +0.317 C 
ATOM     30  C   UNL     1      31.724  -6.108 -20.852  0.00  0.00    +0.121 C 
ENDBRANCH  27  29
ENDBRANCH   5  27
TORSDOF 7
ENDMDL
MODEL 7
REMARK VINA RESULT:      -7.2      2.517      8.388
REMARK  Name = 2342
REMARK  7 active torsions:
REMARK  status: ('A' for Active; 'I' for Inactive)
REMARK    1  A    between atoms: C_3  and  C_18
REMARK    2  A    between atoms: C_5  and  O_27
REMARK    3  A    between atoms: C_13  and  O_23
REMARK    4  A    between atoms: C_14  and  O_25
REMARK    5  A    between atoms: N_17  and  C_19
REMARK    6  A    between atoms: N_17  and  C_21
REMARK    7  A    between atoms: O_27  and  C_29
REMARK                            x       y       z     vdW  Elec       q    Type
REMARK                         _______ _______ _______ _____ _____    ______ ____
ROOT
ATOM      1  N   UNL     1      31.891  -7.837 -22.075  0.00  0.00    +0.391 N 
ATOM      2  C   UNL     1      32.476  -7.474 -23.392  0.00  0.00    -0.031 C 
ATOM      3  C   UNL     1      31.898 -10.236 -22.601  0.00  0.00    +0.096 C 
ATOM      4  C   UNL     1      32.026  -8.532 -24.432  0.00  0.00    +0.028 C 
ATOM      5  C   UNL     1      32.414  -9.954 -24.011  0.00  0.00    +0.174 C 
ATOM      6  C   UNL     1      32.349  -9.154 -21.616  0.00  0.00    -0.064 C 
ATOM      7  C   UNL     1      32.182  -6.808 -21.073  0.00  0.00    -0.072 C 
ATOM      8  C   UNL     1      32.127  -6.046 -23.817  0.00  0.00    -0.042 C 
ATOM      9  C   UNL     1      31.428  -5.532 -21.437  0.00  0.00    +0.003 C 
ATOM     10  C   UNL     1      31.654  -5.119 -22.867  0.00  0.00    -0.027 C 
ATOM     11  C   UNL     1      32.354  -5.598 -25.129  0.00  0.00    +0.033 C 
ATOM     12  C   UNL     1      31.350  -3.805 -23.253  0.00  0.00    +0.035 C 
ATOM     13  C   UNL     1      32.061  -4.285 -25.502  0.00  0.00    +0.172 C 
ATOM     14  C   UNL     1      31.551  -3.390 -24.568  0.00  0.00    +0.172 C 
ATOM     15  H   UNL     1      30.880  -7.890 -22.197  0.00  0.00    -0.079 HD
ENDROOT
BRANCH   3  18
ATOM     16  O   UNL     1      33.160 -12.221 -22.824  0.00  0.00    -0.275 OA
ATOM     17  N   UNL     1      31.823 -12.046 -20.930  0.00  0.00    -0.280 N 
ATOM     18  C   UNL     1      32.354 -11.587 -22.136  0.00  0.00    +0.227 C 
BRANCH  17  19
ATOM     19  C   UNL     1      32.181 -13.340 -20.363  0.00  0.00    +0.093 C 
ATOM     20  C   UNL     1      32.333 -14.394 -21.441  0.00  0.00    +0.023 C 
ENDBRANCH  17  19
BRANCH  17  21
ATOM     21  C   UNL     1      30.870 -11.262 -20.148  0.00  0.00    +0.093 C 
ATOM     22  C   UNL     1      31.419 -10.933 -18.774  0.00  0.00    +0.023 C 
ENDBRANCH  17  21
ENDBRANCH   3  18
BRANCH  13  23
ATOM     23  O   UNL     1      32.283  -3.890 -26.787  0.00  0.00    -0.468 OA
ATOM     24  C   UNL     1      33.266  -4.611 -27.525  0.00  0.00    +0.253 C 
ENDBRANCH  13  23
BRANCH  14  25
ATOM     25  O   UNL     1      31.257  -2.109 -24.920  0.00  0.00    -0.468 OA
ATOM     26  C   UNL     1      29.908  -1.833 -25.298  0.00  0.00    +0.253 C 
ENDBRANCH  14  25
BRANCH   5  27
ATOM     27  O   UNL     1      33.837 -10.071 -24.038  0.00  0.00    -0.452 OA
BRANCH  27  29
ATOM     28  O   UNL     1      33.860 -11.613 -25.758  0.00  0.00    -0.250 OA
ATOM     29  C   UNL     1      34.357 -10.679 -25.143  0.00  0.00    +0.317 C 
ATOM     30  C   UNL     1      35.655 -10.027 -25.513  0.00  0.00    +0.121 C 
ENDBRANCH  27  29
ENDBRANCH   5  27
TORSDOF 7
ENDMDL
MODEL 8
REMARK VINA RESULT:      -7.2      2.351      8.125
REMARK  Name = 2342
REMARK  7 active torsions:
REMARK  status: ('A' for Active; 'I' for Inactive)
REMARK    1  A    between atoms: C_3  and  C_18
REMARK    2  A    between atoms: C_5  and  O_27
REMARK    3  A    between atoms: C_13  and  O_23
REMARK    4  A    between atoms: C_14  and  O_25
REMARK    5  A    between atoms: N_17  and  C_19
REMARK    6  A    between atoms: N_17  and  C_21
REMARK    7  A    between atoms: O_27  and  C_29
REMARK                            x       y       z     vdW  Elec       q    Type
REMARK                         _______ _______ _______ _____ _____    ______ ____
ROOT
ATOM      1  N   UNL     1      31.638  -8.217 -21.627  0.00  0.00    +0.391 N 
ATOM      2  C   UNL     1      32.435  -7.950 -22.853  0.00  0.00    -0.031 C 
ATOM      3  C   UNL     1      31.694 -10.647 -21.977  0.00  0.00    +0.096 C 
ATOM      4  C   UNL     1      32.144  -9.077 -23.876  0.00  0.00    +0.028 C 
ATOM      5  C   UNL     1      32.437 -10.467 -23.301  0.00  0.00    +0.174 C 
ATOM      6  C   UNL     1      31.996  -9.500 -21.009  0.00  0.00    -0.064 C 
ATOM      7  C   UNL     1      31.779  -7.120 -20.664  0.00  0.00    -0.072 C 
ATOM      8  C   UNL     1      32.181  -6.555 -23.427  0.00  0.00    -0.042 C 
ATOM      9  C   UNL     1      31.113  -5.870 -21.234  0.00  0.00    +0.003 C 
ATOM     10  C   UNL     1      31.574  -5.561 -22.633  0.00  0.00    -0.027 C 
ATOM     11  C   UNL     1      32.625  -6.201 -24.712  0.00  0.00    +0.033 C 
ATOM     12  C   UNL     1      31.357  -4.276 -23.154  0.00  0.00    +0.035 C 
ATOM     13  C   UNL     1      32.417  -4.916 -25.218  0.00  0.00    +0.172 C 
ATOM     14  C   UNL     1      31.775  -3.956 -24.443  0.00  0.00    +0.172 C 
ATOM     15  H   UNL     1      30.660  -8.275 -21.908  0.00  0.00    -0.079 HD
ENDROOT
BRANCH   3  18
ATOM     16  O   UNL     1      32.212 -12.024 -20.129  0.00  0.00    -0.275 OA
ATOM     17  N   UNL     1      32.172 -13.053 -22.213  0.00  0.00    -0.280 N 
ATOM     18  C   UNL     1      32.048 -11.964 -21.351  0.00  0.00    +0.227 C 
BRANCH  17  19
ATOM     19  C   UNL     1      32.511 -14.388 -21.738  0.00  0.00    +0.093 C 
ATOM     20  C   UNL     1      33.966 -14.477 -21.326  0.00  0.00    +0.023 C 
ENDBRANCH  17  19
BRANCH  17  21
ATOM     21  C   UNL     1      31.969 -12.935 -23.656  0.00  0.00    +0.093 C 
ATOM     22  C   UNL     1      32.728 -14.007 -24.411  0.00  0.00    +0.023 C 
ENDBRANCH  17  21
ENDBRANCH   3  18
BRANCH  13  23
ATOM     23  O   UNL     1      32.851  -4.614 -26.474  0.00  0.00    -0.468 OA
ATOM     24  C   UNL     1      34.165  -5.041 -26.825  0.00  0.00    +0.253 C 
ENDBRANCH  13  23
BRANCH  14  25
ATOM     25  O   UNL     1      31.562  -2.702 -24.927  0.00  0.00    -0.468 OA
ATOM     26  C   UNL     1      30.841  -1.799 -24.090  0.00  0.00    +0.253 C 
ENDBRANCH  14  25
BRANCH   5  27
ATOM     27  O   UNL     1      33.843 -10.591 -23.086  0.00  0.00    -0.452 OA
BRANCH  27  29
ATOM     28  O   UNL     1      35.352  -9.145 -24.071  0.00  0.00    -0.250 OA
ATOM     29  C   UNL     1      34.635 -10.135 -24.100  0.00  0.00    +0.317 C 
ATOM     30  C   UNL     1      34.503 -11.041 -25.288  0.00  0.00    +0.121 C 
ENDBRANCH  27  29
ENDBRANCH   5  27
TORSDOF 7
ENDMDL
MODEL 9
REMARK VINA RESULT:      -6.5     13.915     17.025
REMARK  Name = 2342
REMARK  7 active torsions:
REMARK  status: ('A' for Active; 'I' for Inactive)
REMARK    1  A    between atoms: C_3  and  C_18
REMARK    2  A    between atoms: C_5  and  O_27
REMARK    3  A    between atoms: C_13  and  O_23
REMARK    4  A    between atoms: C_14  and  O_25
REMARK    5  A    between atoms: N_17  and  C_19
REMARK    6  A    between atoms: N_17  and  C_21
REMARK    7  A    between atoms: O_27  and  C_29
REMARK                            x       y       z     vdW  Elec       q    Type
REMARK                         _______ _______ _______ _____ _____    ______ ____
ROOT
ATOM      1  N   UNL     1      33.096 -23.458 -14.380  0.00  0.00    +0.391 N 
ATOM      2  C   UNL     1      32.518 -23.035 -15.682  0.00  0.00    -0.031 C 
ATOM      3  C   UNL     1      35.225 -24.125 -15.409  0.00  0.00    +0.096 C 
ATOM      4  C   UNL     1      33.155 -23.899 -16.800  0.00  0.00    +0.028 C 
ATOM      5  C   UNL     1      34.685 -23.803 -16.801  0.00  0.00    +0.174 C 
ATOM      6  C   UNL     1      34.551 -23.263 -14.337  0.00  0.00    -0.064 C 
ATOM      7  C   UNL     1      32.446 -22.759 -13.268  0.00  0.00    -0.072 C 
ATOM      8  C   UNL     1      30.989 -23.093 -15.693  0.00  0.00    -0.042 C 
ATOM      9  C   UNL     1      30.998 -23.231 -13.163  0.00  0.00    +0.003 C 
ATOM     10  C   UNL     1      30.273 -23.158 -14.480  0.00  0.00    -0.027 C 
ATOM     11  C   UNL     1      30.262 -22.990 -16.890  0.00  0.00    +0.033 C 
ATOM     12  C   UNL     1      28.871 -23.194 -14.489  0.00  0.00    +0.035 C 
ATOM     13  C   UNL     1      28.866 -23.014 -16.889  0.00  0.00    +0.172 C 
ATOM     14  C   UNL     1      28.170 -23.124 -15.691  0.00  0.00    +0.172 C 
ATOM     15  H   UNL     1      32.919 -24.457 -14.280  0.00  0.00    -0.079 HD
ENDROOT
BRANCH   3  18
ATOM     16  O   UNL     1      37.193 -22.852 -15.700  0.00  0.00    -0.275 OA
ATOM     17  N   UNL     1      37.469 -25.033 -14.946  0.00  0.00    -0.280 N 
ATOM     18  C   UNL     1      36.713 -23.939 -15.367  0.00  0.00    +0.227 C 
BRANCH  17  19
ATOM     19  C   UNL     1      38.923 -24.989 -14.859  0.00  0.00    +0.093 C 
ATOM     20  C   UNL     1      39.410 -25.430 -13.494  0.00  0.00    +0.023 C 
ENDBRANCH  17  19
BRANCH  17  21
ATOM     21  C   UNL     1      36.857 -26.303 -14.561  0.00  0.00    +0.093 C 
ATOM     22  C   UNL     1      36.823 -27.276 -15.722  0.00  0.00    +0.023 C 
ENDBRANCH  17  21
ENDBRANCH   3  18
BRANCH  13  23
ATOM     23  O   UNL     1      28.195 -22.924 -18.072  0.00  0.00    -0.468 OA
ATOM     24  C   UNL     1      27.065 -22.056 -18.112  0.00  0.00    +0.253 C 
ENDBRANCH  13  23
BRANCH  14  25
ATOM     25  O   UNL     1      26.809 -23.153 -15.677  0.00  0.00    -0.468 OA
ATOM     26  C   UNL     1      26.138 -21.931 -15.373  0.00  0.00    +0.253 C 
ENDBRANCH  14  25
BRANCH   5  27
ATOM     27  O   UNL     1      35.064 -22.477 -17.172  0.00  0.00    -0.452 OA
BRANCH  27  29
ATOM     28  O   UNL     1      34.638 -22.764 -19.425  0.00  0.00    -0.250 OA
ATOM     29  C   UNL     1      35.282 -22.279 -18.505  0.00  0.00    +0.317 C 
ATOM     30  C   UNL     1      36.450 -21.358 -18.692  0.00  0.00    +0.121 C 
ENDBRANCH  27  29
ENDBRANCH   5  27
TORSDOF 7
ENDMDL
