MODEL 1
REMARK VINA RESULT:     -10.5      0.000      0.000
REMARK  Name = 5362124
REMARK  11 active torsions:
REMARK  status: ('A' for Active; 'I' for Inactive)
REMARK    1  A    between atoms: N_1  and  C_6
REMARK    2  A    between atoms: N_1  and  C_21
REMARK    3  A    between atoms: N_5  and  C_16
REMARK    4  A    between atoms: C_16  and  C_18
REMARK    5  A    between atoms: C_18  and  O_19
REMARK    6  A    between atoms: C_21  and  C_23
REMARK    7  A    between atoms: C_21  and  C_27
REMARK    8  A    between atoms: C_23  and  O_24
REMARK    9  A    between atoms: O_24  and  C_25
REMARK   10  A    between atoms: C_27  and  C_28
REMARK   11  A    between atoms: C_28  and  C_29
REMARK                            x       y       z     vdW  Elec       q    Type
REMARK                         _______ _______ _______ _____ _____    ______ ____
ROOT
ATOM      1  N   UNL     1      33.687 -24.304 -15.920  0.00  0.00    +0.399 N 
ATOM      2  H   UNL     1      33.042 -24.409 -15.137  0.00  0.00    -0.083 HD
ATOM      3  H   UNL     1      33.610 -25.102 -16.551  0.00  0.00    -0.083 HD
ENDROOT
BRANCH   1   6
ATOM      4  O   UNL     1      33.981 -23.919 -13.280  0.00  0.00    -0.277 OA
ATOM      5  N   UNL     1      36.190 -24.652 -13.236  0.00  0.00    -0.250 N 
ATOM      6  C   UNL     1      35.059 -24.239 -15.409  0.00  0.00    +0.018 C 
ATOM      7  C   UNL     1      35.764 -23.010 -15.974  0.00  0.00    -0.008 C 
ATOM      8  C   UNL     1      37.056 -22.661 -15.244  0.00  0.00    +0.026 C 
ATOM      9  C   UNL     1      35.014 -24.224 -13.883  0.00  0.00    +0.210 C 
ATOM     10  C   UNL     1      37.881 -23.870 -14.887  0.00  0.00    -0.009 C 
ATOM     11  C   UNL     1      37.469 -24.774 -13.882  0.00  0.00    +0.050 C 
ATOM     12  C   UNL     1      39.129 -24.042 -15.509  0.00  0.00    -0.003 C 
ATOM     13  C   UNL     1      38.357 -25.793 -13.490  0.00  0.00    +0.015 C 
ATOM     14  C   UNL     1      39.978 -25.080 -15.130  0.00  0.00    -0.000 C 
ATOM     15  C   UNL     1      39.597 -25.948 -14.115  0.00  0.00    +0.001 C 
BRANCH   5  16
ATOM     16  C   UNL     1      36.109 -25.020 -11.822  0.00  0.00    +0.208 C 
BRANCH  16  18
ATOM     17  O   UNL     1      37.187 -22.940 -11.269  0.00  0.00    -0.248 OA
ATOM     18  C   UNL     1      36.530 -23.906 -10.900  0.00  0.00    +0.335 C 
BRANCH  18  19
ATOM     19  O   UNL     1      36.114 -24.074  -9.623  0.00  0.00    -0.479 OA
ATOM     20  H   UNL     1      35.440 -24.696  -9.428  0.00  0.00    +0.295 HD
ENDBRANCH  18  19
ENDBRANCH  16  18
ENDBRANCH   5  16
ENDBRANCH   1   6
BRANCH   1  21
ATOM     21  C   UNL     1      33.355 -23.094 -16.654  0.00  0.00    +0.041 C 
BRANCH  21  23
ATOM     22  O   UNL     1      31.055 -22.485 -17.209  0.00  0.00    -0.252 OA
ATOM     23  C   UNL     1      31.898 -22.771 -16.367  0.00  0.00    +0.297 C 
BRANCH  23  24
ATOM     24  O   UNL     1      31.676 -22.859 -15.020  0.00  0.00    -0.450 OA
BRANCH  24  25
ATOM     25  C   UNL     1      30.399 -23.378 -14.636  0.00  0.00    +0.208 C 
ATOM     26  C   UNL     1      30.591 -24.731 -13.985  0.00  0.00    +0.051 C 
ENDBRANCH  24  25
ENDBRANCH  23  24
ENDBRANCH  21  23
BRANCH  21  27
ATOM     27  C   UNL     1      33.556 -23.274 -18.167  0.00  0.00    -0.006 C 
BRANCH  27  28
ATOM     28  C   UNL     1      34.776 -22.552 -18.757  0.00  0.00    +0.025 C 
BRANCH  28  29
ATOM     29  C   UNL     1      34.424 -21.360 -19.610  0.00  0.00    -0.022 C 
ATOM     30  C   UNL     1      35.433 -20.626 -20.234  0.00  0.00    -0.004 C 
ATOM     31  C   UNL     1      33.089 -20.992 -19.779  0.00  0.00    -0.004 C 
ATOM     32  C   UNL     1      35.107 -19.524 -21.024  0.00  0.00    -0.000 C 
ATOM     33  C   UNL     1      32.763 -19.890 -20.568  0.00  0.00    -0.000 C 
ATOM     34  C   UNL     1      33.773 -19.155 -21.191  0.00  0.00    -0.000 C 
ENDBRANCH  28  29
ENDBRANCH  27  28
ENDBRANCH  21  27
ENDBRANCH   1  21
TORSDOF 11
ENDMDL
MODEL 2
REMARK VINA RESULT:      -9.4     11.269     15.607
REMARK  Name = 5362124
REMARK  11 active torsions:
REMARK  status: ('A' for Active; 'I' for Inactive)
REMARK    1  A    between atoms: N_1  and  C_6
REMARK    2  A    between atoms: N_1  and  C_21
REMARK    3  A    between atoms: N_5  and  C_16
REMARK    4  A    between atoms: C_16  and  C_18
REMARK    5  A    between atoms: C_18  and  O_19
REMARK    6  A    between atoms: C_21  and  C_23
REMARK    7  A    between atoms: C_21  and  C_27
REMARK    8  A    between atoms: C_23  and  O_24
REMARK    9  A    between atoms: O_24  and  C_25
REMARK   10  A    between atoms: C_27  and  C_28
REMARK   11  A    between atoms: C_28  and  C_29
REMARK                            x       y       z     vdW  Elec       q    Type
REMARK                         _______ _______ _______ _____ _____    ______ ____
ROOT
ATOM      1  N   UNL     1      31.507 -10.180 -22.246  0.00  0.00    +0.399 N 
ATOM      2  H   UNL     1      31.540 -10.589 -21.313  0.00  0.00    -0.083 HD
ATOM      3  H   UNL     1      30.542 -10.110 -22.569  0.00  0.00    -0.083 HD
ENDROOT
BRANCH   1   6
ATOM      4  O   UNL     1      32.682 -12.359 -21.210  0.00  0.00    -0.277 OA
ATOM      5  N   UNL     1      32.938 -13.420 -23.266  0.00  0.00    -0.250 N 
ATOM      6  C   UNL     1      32.253 -11.034 -23.174  0.00  0.00    +0.018 C 
ATOM      7  C   UNL     1      33.456 -10.274 -23.725  0.00  0.00    -0.008 C 
ATOM      8  C   UNL     1      34.478 -11.172 -24.414  0.00  0.00    +0.026 C 
ATOM      9  C   UNL     1      32.665 -12.310 -22.443  0.00  0.00    +0.210 C 
ATOM     10  C   UNL     1      33.848 -12.245 -25.263  0.00  0.00    -0.009 C 
ATOM     11  C   UNL     1      33.166 -13.339 -24.683  0.00  0.00    +0.050 C 
ATOM     12  C   UNL     1      34.027 -12.195 -26.656  0.00  0.00    -0.003 C 
ATOM     13  C   UNL     1      32.738 -14.384 -25.523  0.00  0.00    +0.015 C 
ATOM     14  C   UNL     1      33.563 -13.224 -27.472  0.00  0.00    -0.000 C 
ATOM     15  C   UNL     1      32.928 -14.322 -26.905  0.00  0.00    +0.001 C 
BRANCH   5  16
ATOM     16  C   UNL     1      32.969 -14.748 -22.651  0.00  0.00    +0.208 C 
BRANCH  16  18
ATOM     17  O   UNL     1      35.150 -15.709 -22.988  0.00  0.00    -0.248 OA
ATOM     18  C   UNL     1      34.354 -15.168 -22.231  0.00  0.00    +0.335 C 
BRANCH  18  19
ATOM     19  O   UNL     1      34.634 -14.891 -20.936  0.00  0.00    -0.479 OA
ATOM     20  H   UNL     1      35.346 -15.325 -20.507  0.00  0.00    +0.295 HD
ENDBRANCH  18  19
ENDBRANCH  16  18
ENDBRANCH   5  16
ENDBRANCH   1   6
BRANCH   1  21
ATOM     21  C   UNL     1      32.083  -8.845 -22.203  0.00  0.00    +0.041 C 
BRANCH  21  23
ATOM     22  O   UNL     1      32.997  -7.589 -20.317  0.00  0.00    -0.252 OA
ATOM     23  C   UNL     1      32.262  -8.472 -20.740  0.00  0.00    +0.297 C 
BRANCH  23  24
ATOM     24  O   UNL     1      31.464  -9.276 -19.973  0.00  0.00    -0.450 OA
BRANCH  24  25
ATOM     25  C   UNL     1      32.121  -9.953 -18.896  0.00  0.00    +0.208 C 
ATOM     26  C   UNL     1      31.260 -11.112 -18.443  0.00  0.00    +0.051 C 
ENDBRANCH  24  25
ENDBRANCH  23  24
ENDBRANCH  21  23
BRANCH  21  27
ATOM     27  C   UNL     1      31.177  -7.813 -22.892  0.00  0.00    -0.006 C 
BRANCH  27  28
ATOM     28  C   UNL     1      31.706  -6.371 -22.890  0.00  0.00    +0.025 C 
BRANCH  28  29
ATOM     29  C   UNL     1      32.513  -6.018 -24.113  0.00  0.00    -0.022 C 
ATOM     30  C   UNL     1      32.006  -5.113 -25.046  0.00  0.00    -0.004 C 
ATOM     31  C   UNL     1      33.768  -6.594 -24.312  0.00  0.00    -0.004 C 
ATOM     32  C   UNL     1      32.753  -4.786 -26.177  0.00  0.00    -0.000 C 
ATOM     33  C   UNL     1      34.514  -6.267 -25.443  0.00  0.00    -0.000 C 
ATOM     34  C   UNL     1      34.007  -5.362 -26.376  0.00  0.00    -0.000 C 
ENDBRANCH  28  29
ENDBRANCH  27  28
ENDBRANCH  21  27
ENDBRANCH   1  21
TORSDOF 11
ENDMDL
MODEL 3
REMARK VINA RESULT:      -9.3      7.807     13.362
REMARK  Name = 5362124
REMARK  11 active torsions:
REMARK  status: ('A' for Active; 'I' for Inactive)
REMARK    1  A    between atoms: N_1  and  C_6
REMARK    2  A    between atoms: N_1  and  C_21
REMARK    3  A    between atoms: N_5  and  C_16
REMARK    4  A    between atoms: C_16  and  C_18
REMARK    5  A    between atoms: C_18  and  O_19
REMARK    6  A    between atoms: C_21  and  C_23
REMARK    7  A    between atoms: C_21  and  C_27
REMARK    8  A    between atoms: C_23  and  O_24
REMARK    9  A    between atoms: O_24  and  C_25
REMARK   10  A    between atoms: C_27  and  C_28
REMARK   11  A    between atoms: C_28  and  C_29
REMARK                            x       y       z     vdW  Elec       q    Type
REMARK                         _______ _______ _______ _____ _____    ______ ____
ROOT
ATOM      1  N   UNL     1      33.741 -15.687 -23.140  0.00  0.00    +0.399 N 
ATOM      2  H   UNL     1      32.948 -16.233 -23.475  0.00  0.00    -0.083 HD
ATOM      3  H   UNL     1      33.681 -15.561 -22.129  0.00  0.00    -0.083 HD
ENDROOT
BRANCH   1   6
ATOM      4  O   UNL     1      32.032 -13.874 -22.141  0.00  0.00    -0.277 OA
ATOM      5  N   UNL     1      33.107 -12.056 -23.118  0.00  0.00    -0.250 N 
ATOM      6  C   UNL     1      33.724 -14.370 -23.780  0.00  0.00    +0.018 C 
ATOM      7  C   UNL     1      33.225 -14.498 -25.216  0.00  0.00    -0.008 C 
ATOM      8  C   UNL     1      32.842 -13.164 -25.847  0.00  0.00    +0.026 C 
ATOM      9  C   UNL     1      32.852 -13.431 -22.950  0.00  0.00    +0.210 C 
ATOM     10  C   UNL     1      33.799 -12.051 -25.510  0.00  0.00    -0.009 C 
ATOM     11  C   UNL     1      33.863 -11.502 -24.209  0.00  0.00    +0.050 C 
ATOM     12  C   UNL     1      34.574 -11.493 -26.540  0.00  0.00    -0.003 C 
ATOM     13  C   UNL     1      34.664 -10.364 -23.999  0.00  0.00    +0.015 C 
ATOM     14  C   UNL     1      35.388 -10.387 -26.301  0.00  0.00    -0.000 C 
ATOM     15  C   UNL     1      35.425  -9.817 -25.035  0.00  0.00    +0.001 C 
BRANCH   5  16
ATOM     16  C   UNL     1      32.594 -11.127 -22.111  0.00  0.00    +0.208 C 
BRANCH  16  18
ATOM     17  O   UNL     1      31.055  -9.517 -23.024  0.00  0.00    -0.248 OA
ATOM     18  C   UNL     1      31.230 -10.585 -22.452  0.00  0.00    +0.335 C 
BRANCH  18  19
ATOM     19  O   UNL     1      30.215 -11.392 -22.064  0.00  0.00    -0.479 OA
ATOM     20  H   UNL     1      30.009 -11.482 -21.154  0.00  0.00    +0.295 HD
ENDBRANCH  18  19
ENDBRANCH  16  18
ENDBRANCH   5  16
ENDBRANCH   1   6
BRANCH   1  21
ATOM     21  C   UNL     1      34.974 -16.393 -23.451  0.00  0.00    +0.041 C 
BRANCH  21  23
ATOM     22  O   UNL     1      35.309 -16.816 -25.833  0.00  0.00    -0.252 OA
ATOM     23  C   UNL     1      34.768 -17.110 -24.775  0.00  0.00    +0.297 C 
BRANCH  23  24
ATOM     24  O   UNL     1      33.887 -18.140 -24.593  0.00  0.00    -0.450 OA
BRANCH  24  25
ATOM     25  C   UNL     1      34.121 -19.303 -25.394  0.00  0.00    +0.208 C 
ATOM     26  C   UNL     1      35.120 -20.195 -24.690  0.00  0.00    +0.051 C 
ENDBRANCH  24  25
ENDBRANCH  23  24
ENDBRANCH  21  23
BRANCH  21  27
ATOM     27  C   UNL     1      35.334 -17.414 -22.361  0.00  0.00    -0.006 C 
BRANCH  27  28
ATOM     28  C   UNL     1      34.166 -17.866 -21.473  0.00  0.00    +0.025 C 
BRANCH  28  29
ATOM     29  C   UNL     1      34.363 -19.226 -20.852  0.00  0.00    -0.022 C 
ATOM     30  C   UNL     1      35.649 -19.749 -20.712  0.00  0.00    -0.004 C 
ATOM     31  C   UNL     1      33.260 -19.961 -20.417  0.00  0.00    -0.004 C 
ATOM     32  C   UNL     1      35.831 -21.006 -20.138  0.00  0.00    -0.000 C 
ATOM     33  C   UNL     1      33.443 -21.218 -19.843  0.00  0.00    -0.000 C 
ATOM     34  C   UNL     1      34.729 -21.742 -19.704  0.00  0.00    -0.000 C 
ENDBRANCH  28  29
ENDBRANCH  27  28
ENDBRANCH  21  27
ENDBRANCH   1  21
TORSDOF 11
ENDMDL
MODEL 4
REMARK VINA RESULT:      -9.0     11.359     15.749
REMARK  Name = 5362124
REMARK  11 active torsions:
REMARK  status: ('A' for Active; 'I' for Inactive)
REMARK    1  A    between atoms: N_1  and  C_6
REMARK    2  A    between atoms: N_1  and  C_21
REMARK    3  A    between atoms: N_5  and  C_16
REMARK    4  A    between atoms: C_16  and  C_18
REMARK    5  A    between atoms: C_18  and  O_19
REMARK    6  A    between atoms: C_21  and  C_23
REMARK    7  A    between atoms: C_21  and  C_27
REMARK    8  A    between atoms: C_23  and  O_24
REMARK    9  A    between atoms: O_24  and  C_25
REMARK   10  A    between atoms: C_27  and  C_28
REMARK   11  A    between atoms: C_28  and  C_29
REMARK                            x       y       z     vdW  Elec       q    Type
REMARK                         _______ _______ _______ _____ _____    ______ ____
ROOT
ATOM      1  N   UNL     1      33.245  -9.549 -23.659  0.00  0.00    +0.399 N 
ATOM      2  H   UNL     1      32.330  -9.203 -23.946  0.00  0.00    -0.083 HD
ATOM      3  H   UNL     1      33.902  -9.501 -24.439  0.00  0.00    -0.083 HD
ENDROOT
BRANCH   1   6
ATOM      4  O   UNL     1      33.184 -11.406 -25.596  0.00  0.00    -0.277 OA
ATOM      5  N   UNL     1      33.709 -13.170 -24.170  0.00  0.00    -0.250 N 
ATOM      6  C   UNL     1      33.121 -10.945 -23.234  0.00  0.00    +0.018 C 
ATOM      7  C   UNL     1      31.769 -11.163 -22.561  0.00  0.00    -0.008 C 
ATOM      8  C   UNL     1      31.401 -12.634 -22.400  0.00  0.00    +0.026 C 
ATOM      9  C   UNL     1      33.310 -11.848 -24.450  0.00  0.00    +0.210 C 
ATOM     10  C   UNL     1      32.565 -13.495 -21.982  0.00  0.00    -0.009 C 
ATOM     11  C   UNL     1      33.627 -13.781 -22.870  0.00  0.00    +0.050 C 
ATOM     12  C   UNL     1      32.538 -14.095 -20.713  0.00  0.00    -0.003 C 
ATOM     13  C   UNL     1      34.602 -14.714 -22.472  0.00  0.00    +0.015 C 
ATOM     14  C   UNL     1      33.534 -14.990 -20.326  0.00  0.00    -0.000 C 
ATOM     15  C   UNL     1      34.559 -15.306 -21.208  0.00  0.00    +0.001 C 
BRANCH   5  16
ATOM     16  C   UNL     1      34.265 -13.972 -25.260  0.00  0.00    +0.208 C 
BRANCH  16  18
ATOM     17  O   UNL     1      33.444 -16.142 -25.900  0.00  0.00    -0.248 OA
ATOM     18  C   UNL     1      33.266 -14.932 -25.852  0.00  0.00    +0.335 C 
BRANCH  18  19
ATOM     19  O   UNL     1      32.152 -14.327 -26.327  0.00  0.00    -0.479 OA
ATOM     20  H   UNL     1      31.933 -13.460 -26.046  0.00  0.00    +0.295 HD
ENDBRANCH  18  19
ENDBRANCH  16  18
ENDBRANCH   5  16
ENDBRANCH   1   6
BRANCH   1  21
ATOM     21  C   UNL     1      33.750  -8.725 -22.573  0.00  0.00    +0.041 C 
BRANCH  21  23
ATOM     22  O   UNL     1      31.527  -7.772 -22.225  0.00  0.00    -0.252 OA
ATOM     23  C   UNL     1      32.553  -8.256 -21.762  0.00  0.00    +0.297 C 
BRANCH  23  24
ATOM     24  O   UNL     1      32.801  -8.467 -20.434  0.00  0.00    -0.450 OA
BRANCH  24  25
ATOM     25  C   UNL     1      31.680  -8.898 -19.656  0.00  0.00    +0.208 C 
ATOM     26  C   UNL     1      31.938 -10.302 -19.153  0.00  0.00    +0.051 C 
ENDBRANCH  24  25
ENDBRANCH  23  24
ENDBRANCH  21  23
BRANCH  21  27
ATOM     27  C   UNL     1      34.527  -7.507 -23.097  0.00  0.00    -0.006 C 
BRANCH  27  28
ATOM     28  C   UNL     1      34.691  -7.440 -24.622  0.00  0.00    +0.025 C 
BRANCH  28  29
ATOM     29  C   UNL     1      33.987  -6.269 -25.259  0.00  0.00    -0.022 C 
ATOM     30  C   UNL     1      34.572  -5.605 -26.338  0.00  0.00    -0.004 C 
ATOM     31  C   UNL     1      32.749  -5.850 -24.772  0.00  0.00    -0.004 C 
ATOM     32  C   UNL     1      33.921  -4.522 -26.927  0.00  0.00    -0.000 C 
ATOM     33  C   UNL     1      32.098  -4.766 -25.361  0.00  0.00    -0.000 C 
ATOM     34  C   UNL     1      32.684  -4.102 -26.439  0.00  0.00    -0.000 C 
ENDBRANCH  28  29
ENDBRANCH  27  28
ENDBRANCH  21  27
ENDBRANCH   1  21
TORSDOF 11
ENDMDL
MODEL 5
REMARK VINA RESULT:      -8.8      5.092     10.620
REMARK  Name = 5362124
REMARK  11 active torsions:
REMARK  status: ('A' for Active; 'I' for Inactive)
REMARK    1  A    between atoms: N_1  and  C_6
REMARK    2  A    between atoms: N_1  and  C_21
REMARK    3  A    between atoms: N_5  and  C_16
REMARK    4  A    between atoms: C_16  and  C_18
REMARK    5  A    between atoms: C_18  and  O_19
REMARK    6  A    between atoms: C_21  and  C_23
REMARK    7  A    between atoms: C_21  and  C_27
REMARK    8  A    between atoms: C_23  and  O_24
REMARK    9  A    between atoms: O_24  and  C_25
REMARK   10  A    between atoms: C_27  and  C_28
REMARK   11  A    between atoms: C_28  and  C_29
REMARK                            x       y       z     vdW  Elec       q    Type
REMARK                         _______ _______ _______ _____ _____    ______ ____
ROOT
ATOM      1  N   UNL     1      34.106 -19.648 -21.583  0.00  0.00    +0.399 N 
ATOM      2  H   UNL     1      34.861 -20.007 -22.167  0.00  0.00    -0.083 HD
ATOM      3  H   UNL     1      33.207 -20.002 -21.910  0.00  0.00    -0.083 HD
ENDROOT
BRANCH   1   6
ATOM      4  O   UNL     1      35.648 -18.517 -23.467  0.00  0.00    -0.277 OA
ATOM      5  N   UNL     1      34.539 -16.471 -23.401  0.00  0.00    -0.250 N 
ATOM      6  C   UNL     1      34.092 -18.185 -21.659  0.00  0.00    +0.018 C 
ATOM      7  C   UNL     1      34.688 -17.594 -20.385  0.00  0.00    -0.008 C 
ATOM      8  C   UNL     1      35.037 -16.115 -20.508  0.00  0.00    +0.026 C 
ATOM      9  C   UNL     1      34.858 -17.751 -22.907  0.00  0.00    +0.210 C 
ATOM     10  C   UNL     1      34.001 -15.321 -21.259  0.00  0.00    -0.009 C 
ATOM     11  C   UNL     1      33.825 -15.471 -22.654  0.00  0.00    +0.050 C 
ATOM     12  C   UNL     1      33.263 -14.347 -20.566  0.00  0.00    -0.003 C 
ATOM     13  C   UNL     1      32.951 -14.591 -23.319  0.00  0.00    +0.015 C 
ATOM     14  C   UNL     1      32.378 -13.509 -21.240  0.00  0.00    -0.000 C 
ATOM     15  C   UNL     1      32.229 -13.624 -22.616  0.00  0.00    +0.001 C 
BRANCH   5  16
ATOM     16  C   UNL     1      34.936 -16.137 -24.769  0.00  0.00    +0.208 C 
BRANCH  16  18
ATOM     17  O   UNL     1      33.397 -15.760 -26.581  0.00  0.00    -0.248 OA
ATOM     18  C   UNL     1      33.910 -16.546 -25.794  0.00  0.00    +0.335 C 
BRANCH  18  19
ATOM     19  O   UNL     1      33.608 -17.864 -25.762  0.00  0.00    -0.479 OA
ATOM     20  H   UNL     1      33.769 -18.401 -26.514  0.00  0.00    +0.295 HD
ENDBRANCH  18  19
ENDBRANCH  16  18
ENDBRANCH   5  16
ENDBRANCH   1   6
BRANCH   1  21
ATOM     21  C   UNL     1      34.312 -20.088 -20.212  0.00  0.00    +0.041 C 
BRANCH  21  23
ATOM     22  O   UNL     1      36.059 -21.572 -21.057  0.00  0.00    -0.252 OA
ATOM     23  C   UNL     1      35.628 -20.848 -20.169  0.00  0.00    +0.297 C 
BRANCH  23  24
ATOM     24  O   UNL     1      36.256 -20.587 -18.983  0.00  0.00    -0.450 OA
BRANCH  24  25
ATOM     25  C   UNL     1      36.865 -21.714 -18.345  0.00  0.00    +0.208 C 
ATOM     26  C   UNL     1      37.171 -21.362 -16.905  0.00  0.00    +0.051 C 
ENDBRANCH  24  25
ENDBRANCH  23  24
ENDBRANCH  21  23
BRANCH  21  27
ATOM     27  C   UNL     1      33.173 -21.001 -19.732  0.00  0.00    -0.006 C 
BRANCH  27  28
ATOM     28  C   UNL     1      33.608 -22.393 -19.250  0.00  0.00    +0.025 C 
BRANCH  28  29
ATOM     29  C   UNL     1      33.136 -22.729 -17.858  0.00  0.00    -0.022 C 
ATOM     30  C   UNL     1      31.793 -22.564 -17.517  0.00  0.00    -0.004 C 
ATOM     31  C   UNL     1      34.042 -23.207 -16.910  0.00  0.00    -0.004 C 
ATOM     32  C   UNL     1      31.357 -22.875 -16.229  0.00  0.00    -0.000 C 
ATOM     33  C   UNL     1      33.606 -23.518 -15.623  0.00  0.00    -0.000 C 
ATOM     34  C   UNL     1      32.263 -23.352 -15.282  0.00  0.00    -0.000 C 
ENDBRANCH  28  29
ENDBRANCH  27  28
ENDBRANCH  21  27
ENDBRANCH   1  21
TORSDOF 11
ENDMDL
MODEL 6
REMARK VINA RESULT:      -8.6      7.706     11.722
REMARK  Name = 5362124
REMARK  11 active torsions:
REMARK  status: ('A' for Active; 'I' for Inactive)
REMARK    1  A    between atoms: N_1  and  C_6
REMARK    2  A    between atoms: N_1  and  C_21
REMARK    3  A    between atoms: N_5  and  C_16
REMARK    4  A    between atoms: C_16  and  C_18
REMARK    5  A    between atoms: C_18  and  O_19
REMARK    6  A    between atoms: C_21  and  C_23
REMARK    7  A    between atoms: C_21  and  C_27
REMARK    8  A    between atoms: C_23  and  O_24
REMARK    9  A    between atoms: O_24  and  C_25
REMARK   10  A    between atoms: C_27  and  C_28
REMARK   11  A    between atoms: C_28  and  C_29
REMARK                            x       y       z     vdW  Elec       q    Type
REMARK                         _______ _______ _______ _____ _____    ______ ____
ROOT
ATOM      1  N   UNL     1      33.969 -14.787 -21.052  0.00  0.00    +0.399 N 
ATOM      2  H   UNL     1      34.638 -14.477 -21.756  0.00  0.00    -0.083 HD
ATOM      3  H   UNL     1      34.289 -14.525 -20.119  0.00  0.00    -0.083 HD
ENDROOT
BRANCH   1   6
ATOM      4  O   UNL     1      34.511 -15.950 -23.410  0.00  0.00    -0.277 OA
ATOM      5  N   UNL     1      34.802 -18.073 -22.500  0.00  0.00    -0.250 N 
ATOM      6  C   UNL     1      33.846 -16.246 -21.114  0.00  0.00    +0.018 C 
ATOM      7  C   UNL     1      32.391 -16.653 -20.903  0.00  0.00    -0.008 C 
ATOM      8  C   UNL     1      32.102 -18.098 -21.293  0.00  0.00    +0.026 C 
ATOM      9  C   UNL     1      34.388 -16.727 -22.458  0.00  0.00    +0.210 C 
ATOM     10  C   UNL     1      33.189 -19.054 -20.876  0.00  0.00    -0.009 C 
ATOM     11  C   UNL     1      34.453 -19.057 -21.511  0.00  0.00    +0.050 C 
ATOM     12  C   UNL     1      32.900 -20.019 -19.897  0.00  0.00    -0.003 C 
ATOM     13  C   UNL     1      35.367 -20.075 -21.182  0.00  0.00    +0.015 C 
ATOM     14  C   UNL     1      33.835 -20.997 -19.562  0.00  0.00    -0.000 C 
ATOM     15  C   UNL     1      35.063 -21.030 -20.211  0.00  0.00    +0.001 C 
BRANCH   5  16
ATOM     16  C   UNL     1      35.661 -18.500 -23.605  0.00  0.00    +0.208 C 
BRANCH  16  18
ATOM     17  O   UNL     1      34.857 -20.245 -25.056  0.00  0.00    -0.248 OA
ATOM     18  C   UNL     1      34.885 -19.054 -24.772  0.00  0.00    +0.335 C 
BRANCH  18  19
ATOM     19  O   UNL     1      34.223 -18.108 -25.478  0.00  0.00    -0.479 OA
ATOM     20  H   UNL     1      33.989 -17.297 -25.071  0.00  0.00    +0.295 HD
ENDBRANCH  18  19
ENDBRANCH  16  18
ENDBRANCH   5  16
ENDBRANCH   1   6
BRANCH   1  21
ATOM     21  C   UNL     1      32.684 -14.154 -21.301  0.00  0.00    +0.041 C 
BRANCH  21  23
ATOM     22  O   UNL     1      31.884 -14.051 -23.607  0.00  0.00    -0.252 OA
ATOM     23  C   UNL     1      32.678 -13.688 -22.748  0.00  0.00    +0.297 C 
BRANCH  23  24
ATOM     24  O   UNL     1      33.695 -12.793 -22.935  0.00  0.00    -0.450 OA
BRANCH  24  25
ATOM     25  C   UNL     1      33.861 -12.315 -24.274  0.00  0.00    +0.208 C 
ATOM     26  C   UNL     1      34.258 -10.856 -24.232  0.00  0.00    +0.051 C 
ENDBRANCH  24  25
ENDBRANCH  23  24
ENDBRANCH  21  23
BRANCH  21  27
ATOM     27  C   UNL     1      32.453 -12.952 -20.372  0.00  0.00    -0.006 C 
BRANCH  27  28
ATOM     28  C   UNL     1      31.225 -12.092 -20.704  0.00  0.00    +0.025 C 
BRANCH  28  29
ATOM     29  C   UNL     1      31.543 -10.634 -20.919  0.00  0.00    -0.022 C 
ATOM     30  C   UNL     1      31.883  -9.826 -19.834  0.00  0.00    -0.004 C 
ATOM     31  C   UNL     1      31.499 -10.093 -22.204  0.00  0.00    -0.004 C 
ATOM     32  C   UNL     1      32.177  -8.478 -20.033  0.00  0.00    -0.000 C 
ATOM     33  C   UNL     1      31.794  -8.745 -22.404  0.00  0.00    -0.000 C 
ATOM     34  C   UNL     1      32.132  -7.937 -21.318  0.00  0.00    -0.000 C 
ENDBRANCH  28  29
ENDBRANCH  27  28
ENDBRANCH  21  27
ENDBRANCH   1  21
TORSDOF 11
ENDMDL
MODEL 7
REMARK VINA RESULT:      -8.5      8.136     13.314
REMARK  Name = 5362124
REMARK  11 active torsions:
REMARK  status: ('A' for Active; 'I' for Inactive)
REMARK    1  A    between atoms: N_1  and  C_6
REMARK    2  A    between atoms: N_1  and  C_21
REMARK    3  A    between atoms: N_5  and  C_16
REMARK    4  A    between atoms: C_16  and  C_18
REMARK    5  A    between atoms: C_18  and  O_19
REMARK    6  A    between atoms: C_21  and  C_23
REMARK    7  A    between atoms: C_21  and  C_27
REMARK    8  A    between atoms: C_23  and  O_24
REMARK    9  A    between atoms: O_24  and  C_25
REMARK   10  A    between atoms: C_27  and  C_28
REMARK   11  A    between atoms: C_28  and  C_29
REMARK                            x       y       z     vdW  Elec       q    Type
REMARK                         _______ _______ _______ _____ _____    ______ ____
ROOT
ATOM      1  N   UNL     1      32.690 -14.088 -21.323  0.00  0.00    +0.399 N 
ATOM      2  H   UNL     1      31.695 -14.114 -21.101  0.00  0.00    -0.083 HD
ATOM      3  H   UNL     1      33.229 -13.822 -20.498  0.00  0.00    -0.083 HD
ENDROOT
BRANCH   1   6
ATOM      4  O   UNL     1      30.941 -12.058 -21.486  0.00  0.00    -0.277 OA
ATOM      5  N   UNL     1      32.349 -10.710 -22.758  0.00  0.00    -0.250 N 
ATOM      6  C   UNL     1      32.923 -13.097 -22.376  0.00  0.00    +0.018 C 
ATOM      7  C   UNL     1      32.760 -13.748 -23.746  0.00  0.00    -0.008 C 
ATOM      8  C   UNL     1      32.636 -12.744 -24.886  0.00  0.00    +0.026 C 
ATOM      9  C   UNL     1      31.957 -11.931 -22.176  0.00  0.00    +0.210 C 
ATOM     10  C   UNL     1      33.572 -11.572 -24.749  0.00  0.00    -0.009 C 
ATOM     11  C   UNL     1      33.377 -10.583 -23.757  0.00  0.00    +0.050 C 
ATOM     12  C   UNL     1      34.604 -11.419 -25.689  0.00  0.00    -0.003 C 
ATOM     13  C   UNL     1      34.192  -9.437 -23.781  0.00  0.00    +0.015 C 
ATOM     14  C   UNL     1      35.423 -10.292 -25.673  0.00  0.00    -0.000 C 
ATOM     15  C   UNL     1      35.211  -9.298 -24.726  0.00  0.00    +0.001 C 
BRANCH   5  16
ATOM     16  C   UNL     1      31.690  -9.484 -22.308  0.00  0.00    +0.208 C 
BRANCH  16  18
ATOM     17  O   UNL     1      32.961  -8.010 -20.891  0.00  0.00    -0.248 OA
ATOM     18  C   UNL     1      32.222  -8.981 -20.990  0.00  0.00    +0.335 C 
BRANCH  18  19
ATOM     19  O   UNL     1      31.807  -9.708 -19.927  0.00  0.00    -0.479 OA
ATOM     20  H   UNL     1      32.436 -10.111 -19.360  0.00  0.00    +0.295 HD
ENDBRANCH  18  19
ENDBRANCH  16  18
ENDBRANCH   5  16
ENDBRANCH   1   6
BRANCH   1  21
ATOM     21  C   UNL     1      33.119 -15.407 -21.757  0.00  0.00    +0.041 C 
BRANCH  21  23
ATOM     22  O   UNL     1      31.333 -16.281 -20.337  0.00  0.00    -0.252 OA
ATOM     23  C   UNL     1      32.427 -16.428 -20.868  0.00  0.00    +0.297 C 
BRANCH  23  24
ATOM     24  O   UNL     1      33.217 -17.539 -20.761  0.00  0.00    -0.450 OA
BRANCH  24  25
ATOM     25  C   UNL     1      32.545 -18.793 -20.910  0.00  0.00    +0.208 C 
ATOM     26  C   UNL     1      33.489 -19.909 -20.518  0.00  0.00    +0.051 C 
ENDBRANCH  24  25
ENDBRANCH  23  24
ENDBRANCH  21  23
BRANCH  21  27
ATOM     27  C   UNL     1      34.642 -15.575 -21.645  0.00  0.00    -0.006 C 
BRANCH  27  28
ATOM     28  C   UNL     1      35.377 -15.797 -22.975  0.00  0.00    +0.025 C 
BRANCH  28  29
ATOM     29  C   UNL     1      35.091 -17.132 -23.613  0.00  0.00    -0.022 C 
ATOM     30  C   UNL     1      34.359 -17.197 -24.799  0.00  0.00    -0.004 C 
ATOM     31  C   UNL     1      35.559 -18.304 -23.019  0.00  0.00    -0.004 C 
ATOM     32  C   UNL     1      34.095 -18.432 -25.389  0.00  0.00    -0.000 C 
ATOM     33  C   UNL     1      35.295 -19.539 -23.609  0.00  0.00    -0.000 C 
ATOM     34  C   UNL     1      34.562 -19.604 -24.795  0.00  0.00    -0.000 C 
ENDBRANCH  28  29
ENDBRANCH  27  28
ENDBRANCH  21  27
ENDBRANCH   1  21
TORSDOF 11
ENDMDL
MODEL 8
REMARK VINA RESULT:      -8.5      2.134      3.052
REMARK  Name = 5362124
REMARK  11 active torsions:
REMARK  status: ('A' for Active; 'I' for Inactive)
REMARK    1  A    between atoms: N_1  and  C_6
REMARK    2  A    between atoms: N_1  and  C_21
REMARK    3  A    between atoms: N_5  and  C_16
REMARK    4  A    between atoms: C_16  and  C_18
REMARK    5  A    between atoms: C_18  and  O_19
REMARK    6  A    between atoms: C_21  and  C_23
REMARK    7  A    between atoms: C_21  and  C_27
REMARK    8  A    between atoms: C_23  and  O_24
REMARK    9  A    between atoms: O_24  and  C_25
REMARK   10  A    between atoms: C_27  and  C_28
REMARK   11  A    between atoms: C_28  and  C_29
REMARK                            x       y       z     vdW  Elec       q    Type
REMARK                         _______ _______ _______ _____ _____    ______ ____
ROOT
ATOM      1  N   UNL     1      34.517 -24.252 -16.613  0.00  0.00    +0.399 N 
ATOM      2  H   UNL     1      33.676 -24.827 -16.649  0.00  0.00    -0.083 HD
ATOM      3  H   UNL     1      35.194 -24.572 -17.306  0.00  0.00    -0.083 HD
ENDROOT
BRANCH   1   6
ATOM      4  O   UNL     1      35.768 -26.554 -16.031  0.00  0.00    -0.277 OA
ATOM      5  N   UNL     1      36.960 -25.663 -14.240  0.00  0.00    -0.250 N 
ATOM      6  C   UNL     1      35.118 -24.360 -15.282  0.00  0.00    +0.018 C 
ATOM      7  C   UNL     1      34.027 -24.331 -14.216  0.00  0.00    -0.008 C 
ATOM      8  C   UNL     1      34.507 -24.783 -12.842  0.00  0.00    +0.026 C 
ATOM      9  C   UNL     1      35.947 -25.641 -15.220  0.00  0.00    +0.210 C 
ATOM     10  C   UNL     1      35.876 -24.261 -12.490  0.00  0.00    -0.009 C 
ATOM     11  C   UNL     1      37.037 -24.743 -13.137  0.00  0.00    +0.050 C 
ATOM     12  C   UNL     1      35.998 -23.344 -11.433  0.00  0.00    -0.003 C 
ATOM     13  C   UNL     1      38.294 -24.331 -12.656  0.00  0.00    +0.015 C 
ATOM     14  C   UNL     1      37.252 -22.923 -10.996  0.00  0.00    -0.000 C 
ATOM     15  C   UNL     1      38.398 -23.423 -11.601  0.00  0.00    +0.001 C 
BRANCH   5  16
ATOM     16  C   UNL     1      38.017 -26.667 -14.358  0.00  0.00    +0.208 C 
BRANCH  16  18
ATOM     17  O   UNL     1      40.417 -26.555 -14.508  0.00  0.00    -0.248 OA
ATOM     18  C   UNL     1      39.328 -26.088 -14.821  0.00  0.00    +0.335 C 
BRANCH  18  19
ATOM     19  O   UNL     1      39.189 -25.000 -15.614  0.00  0.00    -0.479 OA
ATOM     20  H   UNL     1      39.781 -24.278 -15.527  0.00  0.00    +0.295 HD
ENDBRANCH  18  19
ENDBRANCH  16  18
ENDBRANCH   5  16
ENDBRANCH   1   6
BRANCH   1  21
ATOM     21  C   UNL     1      34.165 -22.872 -16.906  0.00  0.00    +0.041 C 
BRANCH  21  23
ATOM     22  O   UNL     1      32.350 -22.201 -18.397  0.00  0.00    -0.252 OA
ATOM     23  C   UNL     1      32.745 -22.868 -17.449  0.00  0.00    +0.297 C 
BRANCH  23  24
ATOM     24  O   UNL     1      31.982 -23.734 -16.715  0.00  0.00    -0.450 OA
BRANCH  24  25
ATOM     25  C   UNL     1      30.706 -23.236 -16.302  0.00  0.00    +0.208 C 
ATOM     26  C   UNL     1      30.812 -22.722 -14.882  0.00  0.00    +0.051 C 
ENDBRANCH  24  25
ENDBRANCH  23  24
ENDBRANCH  21  23
BRANCH  21  27
ATOM     27  C   UNL     1      35.115 -22.251 -17.942  0.00  0.00    -0.006 C 
BRANCH  27  28
ATOM     28  C   UNL     1      34.568 -22.181 -19.375  0.00  0.00    +0.025 C 
BRANCH  28  29
ATOM     29  C   UNL     1      34.873 -20.883 -20.080  0.00  0.00    -0.022 C 
ATOM     30  C   UNL     1      36.194 -20.451 -20.205  0.00  0.00    -0.004 C 
ATOM     31  C   UNL     1      33.836 -20.115 -20.608  0.00  0.00    -0.004 C 
ATOM     32  C   UNL     1      36.476 -19.252 -20.857  0.00  0.00    -0.000 C 
ATOM     33  C   UNL     1      34.118 -18.916 -21.260  0.00  0.00    -0.000 C 
ATOM     34  C   UNL     1      35.438 -18.483 -21.385  0.00  0.00    -0.000 C 
ENDBRANCH  28  29
ENDBRANCH  27  28
ENDBRANCH  21  27
ENDBRANCH   1  21
TORSDOF 11
ENDMDL
MODEL 9
REMARK VINA RESULT:      -8.5      1.647      4.583
REMARK  Name = 5362124
REMARK  11 active torsions:
REMARK  status: ('A' for Active; 'I' for Inactive)
REMARK    1  A    between atoms: N_1  and  C_6
REMARK    2  A    between atoms: N_1  and  C_21
REMARK    3  A    between atoms: N_5  and  C_16
REMARK    4  A    between atoms: C_16  and  C_18
REMARK    5  A    between atoms: C_18  and  O_19
REMARK    6  A    between atoms: C_21  and  C_23
REMARK    7  A    between atoms: C_21  and  C_27
REMARK    8  A    between atoms: C_23  and  O_24
REMARK    9  A    between atoms: O_24  and  C_25
REMARK   10  A    between atoms: C_27  and  C_28
REMARK   11  A    between atoms: C_28  and  C_29
REMARK                            x       y       z     vdW  Elec       q    Type
REMARK                         _______ _______ _______ _____ _____    ______ ____
ROOT
ATOM      1  N   UNL     1      34.723 -22.221 -17.076  0.00  0.00    +0.399 N 
ATOM      2  H   UNL     1      35.182 -21.427 -17.522  0.00  0.00    -0.083 HD
ATOM      3  H   UNL     1      33.952 -21.900 -16.489  0.00  0.00    -0.083 HD
ENDROOT
BRANCH   1   6
ATOM      4  O   UNL     1      34.154 -22.401 -14.458  0.00  0.00    -0.277 OA
ATOM      5  N   UNL     1      35.644 -24.147 -14.070  0.00  0.00    -0.250 N 
ATOM      6  C   UNL     1      35.692 -22.927 -16.234  0.00  0.00    +0.018 C 
ATOM      7  C   UNL     1      37.010 -22.159 -16.206  0.00  0.00    -0.008 C 
ATOM      8  C   UNL     1      37.954 -22.614 -15.099  0.00  0.00    +0.026 C 
ATOM      9  C   UNL     1      35.098 -23.100 -14.839  0.00  0.00    +0.210 C 
ATOM     10  C   UNL     1      37.984 -24.110 -14.920  0.00  0.00    -0.009 C 
ATOM     11  C   UNL     1      36.884 -24.809 -14.373  0.00  0.00    +0.050 C 
ATOM     12  C   UNL     1      39.168 -24.802 -15.224  0.00  0.00    -0.003 C 
ATOM     13  C   UNL     1      37.034 -26.179 -14.089  0.00  0.00    +0.015 C 
ATOM     14  C   UNL     1      39.282 -26.167 -14.967  0.00  0.00    -0.000 C 
ATOM     15  C   UNL     1      38.220 -26.852 -14.391  0.00  0.00    +0.001 C 
BRANCH   5  16
ATOM     16  C   UNL     1      34.896 -24.612 -12.902  0.00  0.00    +0.208 C 
BRANCH  16  18
ATOM     17  O   UNL     1      36.281 -23.255 -11.476  0.00  0.00    -0.248 OA
ATOM     18  C   UNL     1      35.545 -24.226 -11.598  0.00  0.00    +0.335 C 
BRANCH  18  19
ATOM     19  O   UNL     1      35.238 -25.056 -10.575  0.00  0.00    -0.479 OA
ATOM     20  H   UNL     1      34.934 -24.704  -9.760  0.00  0.00    +0.295 HD
ENDBRANCH  18  19
ENDBRANCH  16  18
ENDBRANCH   5  16
ENDBRANCH   1   6
BRANCH   1  21
ATOM     21  C   UNL     1      34.193 -23.106 -18.100  0.00  0.00    +0.041 C 
BRANCH  21  23
ATOM     22  O   UNL     1      32.969 -22.080 -19.949  0.00  0.00    -0.252 OA
ATOM     23  C   UNL     1      34.028 -22.287 -19.370  0.00  0.00    +0.297 C 
BRANCH  23  24
ATOM     24  O   UNL     1      35.251 -21.812 -19.759  0.00  0.00    -0.450 OA
BRANCH  24  25
ATOM     25  C   UNL     1      35.250 -20.507 -20.344  0.00  0.00    +0.208 C 
ATOM     26  C   UNL     1      36.658 -19.953 -20.320  0.00  0.00    +0.051 C 
ENDBRANCH  24  25
ENDBRANCH  23  24
ENDBRANCH  21  23
BRANCH  21  27
ATOM     27  C   UNL     1      32.837 -23.701 -17.691  0.00  0.00    -0.006 C 
BRANCH  27  28
ATOM     28  C   UNL     1      31.943 -22.779 -16.849  0.00  0.00    +0.025 C 
BRANCH  28  29
ATOM     29  C   UNL     1      30.864 -23.507 -16.088  0.00  0.00    -0.022 C 
ATOM     30  C   UNL     1      31.207 -24.422 -15.093  0.00  0.00    -0.004 C 
ATOM     31  C   UNL     1      29.521 -23.264 -16.378  0.00  0.00    -0.004 C 
ATOM     32  C   UNL     1      30.209 -25.094 -14.389  0.00  0.00    -0.000 C 
ATOM     33  C   UNL     1      28.523 -23.936 -15.675  0.00  0.00    -0.000 C 
ATOM     34  C   UNL     1      28.866 -24.852 -14.680  0.00  0.00    -0.000 C 
ENDBRANCH  28  29
ENDBRANCH  27  28
ENDBRANCH  21  27
ENDBRANCH   1  21
TORSDOF 11
ENDMDL
