MODEL 1
REMARK VINA RESULT:     -10.3      0.000      0.000
REMARK  Name = 9547935
REMARK  3 active torsions:
REMARK  status: ('A' for Active; 'I' for Inactive)
REMARK    1  A    between atoms: N_4  and  N_17
REMARK    2  A    between atoms: C_5  and  C_11
REMARK    3  A    between atoms: N_17  and  C_19
REMARK                            x       y       z     vdW  Elec       q    Type
REMARK                         _______ _______ _______ _____ _____    ______ ____
ROOT
ATOM      1  O   UNL     1      34.259 -20.006 -22.639  0.00  0.00    -0.427 OA
ATOM      2  O   UNL     1      34.965 -17.185 -20.671  0.00  0.00    -0.269 OA
ATOM      3  O   UNL     1      34.866 -19.330 -24.737  0.00  0.00    -0.224 OA
ATOM      4  N   UNL     1      35.009 -17.954 -22.873  0.00  0.00    -0.118 N 
ATOM      5  C   UNL     1      34.177 -19.406 -21.313  0.00  0.00    +0.228 C 
ATOM      6  C   UNL     1      34.767 -18.024 -21.535  0.00  0.00    +0.290 C 
ATOM      7  C   UNL     1      32.686 -19.265 -20.994  0.00  0.00    +0.058 C 
ATOM      8  C   UNL     1      34.730 -19.093 -23.547  0.00  0.00    +0.428 C 
ENDROOT
BRANCH   5  11
ATOM      9  F   UNL     1      33.098 -21.480 -19.698  0.00  0.00    -0.204 F 
ATOM     10  F   UNL     1      37.267 -22.424 -17.669  0.00  0.00    -0.204 F 
ATOM     11  C   UNL     1      35.006 -20.219 -20.332  0.00  0.00    +0.050 C 
ATOM     12  C   UNL     1      34.407 -21.224 -19.571  0.00  0.00    +0.142 C 
ATOM     13  C   UNL     1      36.371 -19.961 -20.193  0.00  0.00    +0.004 C 
ATOM     14  C   UNL     1      35.171 -21.967 -18.672  0.00  0.00    +0.059 C 
ATOM     15  C   UNL     1      37.134 -20.705 -19.293  0.00  0.00    +0.030 C 
ATOM     16  C   UNL     1      36.534 -21.709 -18.533  0.00  0.00    +0.142 C 
ENDBRANCH   5  11
BRANCH   4  17
ATOM     17  N   UNL     1      35.538 -16.855 -23.467  0.00  0.00    -0.251 N 
ATOM     18  H   UNL     1      36.514 -16.749 -23.531  0.00  0.00    +0.171 HD
BRANCH  17  19
ATOM     19  C   UNL     1      34.687 -15.872 -23.986  0.00  0.00    +0.062 C 
ATOM     20  C   UNL     1      34.422 -14.708 -23.254  0.00  0.00    +0.016 C 
ATOM     21  C   UNL     1      34.092 -16.042 -25.242  0.00  0.00    +0.016 C 
ATOM     22  C   UNL     1      33.574 -13.728 -23.771  0.00  0.00    +0.001 C 
ATOM     23  C   UNL     1      33.244 -15.061 -25.759  0.00  0.00    +0.001 C 
ATOM     24  C   UNL     1      32.985 -13.905 -25.023  0.00  0.00    +0.000 C 
ENDBRANCH  17  19
ENDBRANCH   4  17
TORSDOF 3
ENDMDL
MODEL 2
REMARK VINA RESULT:     -10.2      0.985      1.409
REMARK  Name = 9547935
REMARK  3 active torsions:
REMARK  status: ('A' for Active; 'I' for Inactive)
REMARK    1  A    between atoms: N_4  and  N_17
REMARK    2  A    between atoms: C_5  and  C_11
REMARK    3  A    between atoms: N_17  and  C_19
REMARK                            x       y       z     vdW  Elec       q    Type
REMARK                         _______ _______ _______ _____ _____    ______ ____
ROOT
ATOM      1  O   UNL     1      34.300 -19.995 -22.671  0.00  0.00    -0.427 OA
ATOM      2  O   UNL     1      34.886 -17.202 -20.625  0.00  0.00    -0.269 OA
ATOM      3  O   UNL     1      34.948 -19.260 -24.737  0.00  0.00    -0.224 OA
ATOM      4  N   UNL     1      35.007 -17.922 -22.841  0.00  0.00    -0.118 N 
ATOM      5  C   UNL     1      34.168 -19.426 -21.336  0.00  0.00    +0.228 C 
ATOM      6  C   UNL     1      34.731 -18.027 -21.512  0.00  0.00    +0.290 C 
ATOM      7  C   UNL     1      32.666 -19.327 -21.055  0.00  0.00    +0.058 C 
ATOM      8  C   UNL     1      34.774 -19.052 -23.546  0.00  0.00    +0.428 C 
ENDROOT
BRANCH   5  11
ATOM      9  F   UNL     1      36.992 -19.208 -21.095  0.00  0.00    -0.204 F 
ATOM     10  F   UNL     1      37.210 -22.455 -17.660  0.00  0.00    -0.204 F 
ATOM     11  C   UNL     1      34.989 -20.241 -20.349  0.00  0.00    +0.050 C 
ATOM     12  C   UNL     1      36.374 -20.080 -20.286  0.00  0.00    +0.142 C 
ATOM     13  C   UNL     1      34.356 -21.150 -19.500  0.00  0.00    +0.004 C 
ATOM     14  C   UNL     1      37.123 -20.828 -19.379  0.00  0.00    +0.059 C 
ATOM     15  C   UNL     1      35.105 -21.898 -18.593  0.00  0.00    +0.030 C 
ATOM     16  C   UNL     1      36.490 -21.737 -18.532  0.00  0.00    +0.142 C 
ENDBRANCH   5  11
BRANCH   4  17
ATOM     17  N   UNL     1      35.526 -16.798 -23.397  0.00  0.00    -0.251 N 
ATOM     18  H   UNL     1      36.501 -16.667 -23.428  0.00  0.00    +0.171 HD
BRANCH  17  19
ATOM     19  C   UNL     1      34.667 -15.827 -23.924  0.00  0.00    +0.062 C 
ATOM     20  C   UNL     1      34.378 -14.667 -23.194  0.00  0.00    +0.016 C 
ATOM     21  C   UNL     1      34.087 -16.005 -25.186  0.00  0.00    +0.016 C 
ATOM     22  C   UNL     1      33.522 -13.699 -23.720  0.00  0.00    +0.001 C 
ATOM     23  C   UNL     1      33.231 -15.036 -25.711  0.00  0.00    +0.001 C 
ATOM     24  C   UNL     1      32.948 -13.883 -24.977  0.00  0.00    +0.000 C 
ENDBRANCH  17  19
ENDBRANCH   4  17
TORSDOF 3
ENDMDL
MODEL 3
REMARK VINA RESULT:      -9.7      1.660      3.073
REMARK  Name = 9547935
REMARK  3 active torsions:
REMARK  status: ('A' for Active; 'I' for Inactive)
REMARK    1  A    between atoms: N_4  and  N_17
REMARK    2  A    between atoms: C_5  and  C_11
REMARK    3  A    between atoms: N_17  and  C_19
REMARK                            x       y       z     vdW  Elec       q    Type
REMARK                         _______ _______ _______ _____ _____    ______ ____
ROOT
ATOM      1  O   UNL     1      35.628 -17.184 -20.527  0.00  0.00    -0.427 OA
ATOM      2  O   UNL     1      33.605 -18.330 -23.158  0.00  0.00    -0.269 OA
ATOM      3  O   UNL     1      34.784 -15.102 -20.102  0.00  0.00    -0.224 OA
ATOM      4  N   UNL     1      33.965 -16.483 -21.779  0.00  0.00    -0.118 N 
ATOM      5  C   UNL     1      35.392 -18.248 -21.495  0.00  0.00    +0.228 C 
ATOM      6  C   UNL     1      34.199 -17.728 -22.278  0.00  0.00    +0.290 C 
ATOM      7  C   UNL     1      36.617 -18.274 -22.414  0.00  0.00    +0.058 C 
ATOM      8  C   UNL     1      34.775 -16.135 -20.754  0.00  0.00    +0.428 C 
ENDROOT
BRANCH   5  11
ATOM      9  F   UNL     1      37.370 -19.961 -20.384  0.00  0.00    -0.204 F 
ATOM     10  F   UNL     1      34.164 -23.051 -18.782  0.00  0.00    -0.204 F 
ATOM     11  C   UNL     1      35.065 -19.541 -20.765  0.00  0.00    +0.050 C 
ATOM     12  C   UNL     1      36.090 -20.332 -20.245  0.00  0.00    +0.142 C 
ATOM     13  C   UNL     1      33.735 -19.936 -20.613  0.00  0.00    +0.004 C 
ATOM     14  C   UNL     1      35.785 -21.518 -19.577  0.00  0.00    +0.059 C 
ATOM     15  C   UNL     1      33.431 -21.122 -19.945  0.00  0.00    +0.030 C 
ATOM     16  C   UNL     1      34.456 -21.913 -19.426  0.00  0.00    +0.142 C 
ENDBRANCH   5  11
BRANCH   4  17
ATOM     17  N   UNL     1      32.967 -15.684 -22.235  0.00  0.00    -0.251 N 
ATOM     18  H   UNL     1      32.054 -15.784 -21.882  0.00  0.00    +0.171 HD
BRANCH  17  19
ATOM     19  C   UNL     1      33.244 -14.720 -23.212  0.00  0.00    +0.062 C 
ATOM     20  C   UNL     1      33.357 -15.090 -24.558  0.00  0.00    +0.016 C 
ATOM     21  C   UNL     1      33.411 -13.377 -22.854  0.00  0.00    +0.016 C 
ATOM     22  C   UNL     1      33.633 -14.129 -25.532  0.00  0.00    +0.001 C 
ATOM     23  C   UNL     1      33.687 -12.417 -23.828  0.00  0.00    +0.001 C 
ATOM     24  C   UNL     1      33.798 -12.794 -25.167  0.00  0.00    +0.000 C 
ENDBRANCH  17  19
ENDBRANCH   4  17
TORSDOF 3
ENDMDL
MODEL 4
REMARK VINA RESULT:      -9.4      8.175     12.151
REMARK  Name = 9547935
REMARK  3 active torsions:
REMARK  status: ('A' for Active; 'I' for Inactive)
REMARK    1  A    between atoms: N_4  and  N_17
REMARK    2  A    between atoms: C_5  and  C_11
REMARK    3  A    between atoms: N_17  and  C_19
REMARK                            x       y       z     vdW  Elec       q    Type
REMARK                         _______ _______ _______ _____ _____    ______ ____
ROOT
ATOM      1  O   UNL     1      34.466  -8.102 -23.514  0.00  0.00    -0.427 OA
ATOM      2  O   UNL     1      31.119  -9.143 -23.303  0.00  0.00    -0.269 OA
ATOM      3  O   UNL     1      35.530  -9.962 -24.312  0.00  0.00    -0.224 OA
ATOM      4  N   UNL     1      33.253  -9.900 -23.865  0.00  0.00    -0.118 N 
ATOM      5  C   UNL     1      33.116  -7.750 -23.095  0.00  0.00    +0.228 C 
ATOM      6  C   UNL     1      32.326  -9.006 -23.423  0.00  0.00    +0.290 C 
ATOM      7  C   UNL     1      33.166  -7.578 -21.574  0.00  0.00    +0.058 C 
ATOM      8  C   UNL     1      34.510  -9.406 -23.936  0.00  0.00    +0.428 C 
ENDROOT
BRANCH   5  11
ATOM      9  F   UNL     1      30.753  -6.304 -22.460  0.00  0.00    -0.204 F 
ATOM     10  F   UNL     1      31.306  -3.303 -26.075  0.00  0.00    -0.204 F 
ATOM     11  C   UNL     1      32.626  -6.554 -23.896  0.00  0.00    +0.050 C 
ATOM     12  C   UNL     1      31.455  -5.892 -23.524  0.00  0.00    +0.142 C 
ATOM     13  C   UNL     1      33.351  -6.115 -25.005  0.00  0.00    +0.004 C 
ATOM     14  C   UNL     1      31.010  -4.795 -24.260  0.00  0.00    +0.059 C 
ATOM     15  C   UNL     1      32.905  -5.018 -25.741  0.00  0.00    +0.030 C 
ATOM     16  C   UNL     1      31.734  -4.357 -25.369  0.00  0.00    +0.142 C 
ENDBRANCH   5  11
BRANCH   4  17
ATOM     17  N   UNL     1      32.932 -11.160 -24.253  0.00  0.00    -0.251 N 
ATOM     18  H   UNL     1      32.634 -11.332 -25.175  0.00  0.00    +0.171 HD
BRANCH  17  19
ATOM     19  C   UNL     1      33.025 -12.212 -23.334  0.00  0.00    +0.062 C 
ATOM     20  C   UNL     1      34.003 -13.201 -23.489  0.00  0.00    +0.016 C 
ATOM     21  C   UNL     1      32.141 -12.285 -22.251  0.00  0.00    +0.016 C 
ATOM     22  C   UNL     1      34.096 -14.250 -22.573  0.00  0.00    +0.001 C 
ATOM     23  C   UNL     1      32.235 -13.334 -21.335  0.00  0.00    +0.001 C 
ATOM     24  C   UNL     1      33.212 -14.316 -21.497  0.00  0.00    +0.000 C 
ENDBRANCH  17  19
ENDBRANCH   4  17
TORSDOF 3
ENDMDL
MODEL 5
REMARK VINA RESULT:      -9.4      2.792      7.060
REMARK  Name = 9547935
REMARK  3 active torsions:
REMARK  status: ('A' for Active; 'I' for Inactive)
REMARK    1  A    between atoms: N_4  and  N_17
REMARK    2  A    between atoms: C_5  and  C_11
REMARK    3  A    between atoms: N_17  and  C_19
REMARK                            x       y       z     vdW  Elec       q    Type
REMARK                         _______ _______ _______ _____ _____    ______ ____
ROOT
ATOM      1  O   UNL     1      36.351 -17.548 -21.616  0.00  0.00    -0.427 OA
ATOM      2  O   UNL     1      33.239 -19.173 -21.550  0.00  0.00    -0.269 OA
ATOM      3  O   UNL     1      37.827 -19.254 -21.247  0.00  0.00    -0.224 OA
ATOM      4  N   UNL     1      35.526 -19.559 -21.298  0.00  0.00    -0.118 N 
ATOM      5  C   UNL     1      34.903 -17.388 -21.661  0.00  0.00    +0.228 C 
ATOM      6  C   UNL     1      34.405 -18.814 -21.501  0.00  0.00    +0.290 C 
ATOM      7  C   UNL     1      34.519 -16.584 -20.415  0.00  0.00    +0.058 C 
ATOM      8  C   UNL     1      36.679 -18.855 -21.365  0.00  0.00    +0.428 C 
ENDROOT
BRANCH   5  11
ATOM      9  F   UNL     1      35.354 -18.690 -24.146  0.00  0.00    -0.204 F 
ATOM     10  F   UNL     1      33.374 -15.187 -26.636  0.00  0.00    -0.204 F 
ATOM     11  C   UNL     1      34.494 -16.798 -23.000  0.00  0.00    +0.050 C 
ATOM     12  C   UNL     1      34.747 -17.496 -24.182  0.00  0.00    +0.142 C 
ATOM     13  C   UNL     1      33.860 -15.555 -23.049  0.00  0.00    +0.004 C 
ATOM     14  C   UNL     1      34.370 -16.951 -25.409  0.00  0.00    +0.059 C 
ATOM     15  C   UNL     1      33.483 -15.011 -24.276  0.00  0.00    +0.030 C 
ATOM     16  C   UNL     1      33.737 -15.709 -25.457  0.00  0.00    +0.142 C 
ENDBRANCH   5  11
BRANCH   4  17
ATOM     17  N   UNL     1      35.491 -20.901 -21.104  0.00  0.00    -0.251 N 
ATOM     18  H   UNL     1      35.527 -21.514 -21.874  0.00  0.00    +0.171 HD
BRANCH  17  19
ATOM     19  C   UNL     1      35.401 -21.410 -19.803  0.00  0.00    +0.062 C 
ATOM     20  C   UNL     1      36.502 -21.344 -18.941  0.00  0.00    +0.016 C 
ATOM     21  C   UNL     1      34.210 -21.989 -19.350  0.00  0.00    +0.016 C 
ATOM     22  C   UNL     1      36.413 -21.851 -17.643  0.00  0.00    +0.001 C 
ATOM     23  C   UNL     1      34.121 -22.495 -18.052  0.00  0.00    +0.001 C 
ATOM     24  C   UNL     1      35.223 -22.426 -17.200  0.00  0.00    +0.000 C 
ENDBRANCH  17  19
ENDBRANCH   4  17
TORSDOF 3
ENDMDL
MODEL 6
REMARK VINA RESULT:      -9.3      1.625      2.890
REMARK  Name = 9547935
REMARK  3 active torsions:
REMARK  status: ('A' for Active; 'I' for Inactive)
REMARK    1  A    between atoms: N_4  and  N_17
REMARK    2  A    between atoms: C_5  and  C_11
REMARK    3  A    between atoms: N_17  and  C_19
REMARK                            x       y       z     vdW  Elec       q    Type
REMARK                         _______ _______ _______ _____ _____    ______ ____
ROOT
ATOM      1  O   UNL     1      35.676 -17.565 -20.531  0.00  0.00    -0.427 OA
ATOM      2  O   UNL     1      34.748 -19.149 -23.525  0.00  0.00    -0.269 OA
ATOM      3  O   UNL     1      34.891 -15.437 -20.814  0.00  0.00    -0.224 OA
ATOM      4  N   UNL     1      34.683 -17.088 -22.432  0.00  0.00    -0.118 N 
ATOM      5  C   UNL     1      35.754 -18.782 -21.329  0.00  0.00    +0.228 C 
ATOM      6  C   UNL     1      34.999 -18.403 -22.591  0.00  0.00    +0.290 C 
ATOM      7  C   UNL     1      37.233 -18.977 -21.675  0.00  0.00    +0.058 C 
ATOM      8  C   UNL     1      35.058 -16.569 -21.241  0.00  0.00    +0.428 C 
ENDROOT
BRANCH   5  11
ATOM      9  F   UNL     1      32.951 -18.907 -20.881  0.00  0.00    -0.204 F 
ATOM     10  F   UNL     1      33.239 -23.033 -18.584  0.00  0.00    -0.204 F 
ATOM     11  C   UNL     1      35.075 -19.924 -20.590  0.00  0.00    +0.050 C 
ATOM     12  C   UNL     1      33.692 -19.918 -20.408  0.00  0.00    +0.142 C 
ATOM     13  C   UNL     1      35.837 -20.983 -20.094  0.00  0.00    +0.004 C 
ATOM     14  C   UNL     1      33.072 -20.967 -19.730  0.00  0.00    +0.059 C 
ATOM     15  C   UNL     1      35.218 -22.032 -19.416  0.00  0.00    +0.030 C 
ATOM     16  C   UNL     1      33.834 -22.025 -19.234  0.00  0.00    +0.142 C 
ENDBRANCH   5  11
BRANCH   4  17
ATOM     17  N   UNL     1      34.002 -16.378 -23.366  0.00  0.00    -0.251 N 
ATOM     18  H   UNL     1      33.833 -16.765 -24.255  0.00  0.00    +0.171 HD
BRANCH  17  19
ATOM     19  C   UNL     1      33.543 -15.091 -23.059  0.00  0.00    +0.062 C 
ATOM     20  C   UNL     1      34.062 -13.977 -23.729  0.00  0.00    +0.016 C 
ATOM     21  C   UNL     1      32.561 -14.906 -22.078  0.00  0.00    +0.016 C 
ATOM     22  C   UNL     1      33.604 -12.695 -23.422  0.00  0.00    +0.001 C 
ATOM     23  C   UNL     1      32.104 -13.624 -21.772  0.00  0.00    +0.001 C 
ATOM     24  C   UNL     1      32.626 -12.518 -22.445  0.00  0.00    +0.000 C 
ENDBRANCH  17  19
ENDBRANCH   4  17
TORSDOF 3
ENDMDL
MODEL 7
REMARK VINA RESULT:      -9.3      9.074     10.559
REMARK  Name = 9547935
REMARK  3 active torsions:
REMARK  status: ('A' for Active; 'I' for Inactive)
REMARK    1  A    between atoms: N_4  and  N_17
REMARK    2  A    between atoms: C_5  and  C_11
REMARK    3  A    between atoms: N_17  and  C_19
REMARK                            x       y       z     vdW  Elec       q    Type
REMARK                         _______ _______ _______ _____ _____    ______ ____
ROOT
ATOM      1  O   UNL     1      36.105 -23.229 -13.204  0.00  0.00    -0.427 OA
ATOM      2  O   UNL     1      35.304 -25.288 -15.933  0.00  0.00    -0.269 OA
ATOM      3  O   UNL     1      34.261 -23.413 -11.866  0.00  0.00    -0.224 OA
ATOM      4  N   UNL     1      34.448 -24.483 -13.917  0.00  0.00    -0.118 N 
ATOM      5  C   UNL     1      36.514 -23.705 -14.519  0.00  0.00    +0.228 C 
ATOM      6  C   UNL     1      35.361 -24.609 -14.920  0.00  0.00    +0.290 C 
ATOM      7  C   UNL     1      36.527 -22.480 -15.438  0.00  0.00    +0.058 C 
ATOM      8  C   UNL     1      34.852 -23.691 -12.898  0.00  0.00    +0.428 C 
ENDROOT
BRANCH   5  11
ATOM      9  F   UNL     1      37.059 -25.545 -12.423  0.00  0.00    -0.204 F 
ATOM     10  F   UNL     1      41.363 -26.575 -14.094  0.00  0.00    -0.204 F 
ATOM     11  C   UNL     1      37.818 -24.478 -14.402  0.00  0.00    +0.050 C 
ATOM     12  C   UNL     1      38.015 -25.366 -13.344  0.00  0.00    +0.142 C 
ATOM     13  C   UNL     1      38.820 -24.301 -15.357  0.00  0.00    +0.004 C 
ATOM     14  C   UNL     1      39.212 -26.073 -13.240  0.00  0.00    +0.059 C 
ATOM     15  C   UNL     1      40.017 -25.008 -15.253  0.00  0.00    +0.030 C 
ATOM     16  C   UNL     1      40.214 -25.895 -14.194  0.00  0.00    +0.142 C 
ENDBRANCH   5  11
BRANCH   4  17
ATOM     17  N   UNL     1      33.262 -25.142 -13.916  0.00  0.00    -0.251 N 
ATOM     18  H   UNL     1      33.196 -26.041 -13.522  0.00  0.00    +0.171 HD
BRANCH  17  19
ATOM     19  C   UNL     1      32.133 -24.535 -14.481  0.00  0.00    +0.062 C 
ATOM     20  C   UNL     1      30.851 -25.003 -14.172  0.00  0.00    +0.016 C 
ATOM     21  C   UNL     1      32.276 -23.454 -15.359  0.00  0.00    +0.016 C 
ATOM     22  C   UNL     1      29.726 -24.398 -14.734  0.00  0.00    +0.001 C 
ATOM     23  C   UNL     1      31.151 -22.849 -15.920  0.00  0.00    +0.001 C 
ATOM     24  C   UNL     1      29.876 -23.322 -15.608  0.00  0.00    +0.000 C 
ENDBRANCH  17  19
ENDBRANCH   4  17
TORSDOF 3
ENDMDL
MODEL 8
REMARK VINA RESULT:      -9.3      2.300      3.333
REMARK  Name = 9547935
REMARK  3 active torsions:
REMARK  status: ('A' for Active; 'I' for Inactive)
REMARK    1  A    between atoms: N_4  and  N_17
REMARK    2  A    between atoms: C_5  and  C_11
REMARK    3  A    between atoms: N_17  and  C_19
REMARK                            x       y       z     vdW  Elec       q    Type
REMARK                         _______ _______ _______ _____ _____    ______ ____
ROOT
ATOM      1  O   UNL     1      36.957 -21.070 -20.120  0.00  0.00    -0.427 OA
ATOM      2  O   UNL     1      33.507 -20.488 -19.820  0.00  0.00    -0.269 OA
ATOM      3  O   UNL     1      37.725 -19.128 -21.049  0.00  0.00    -0.224 OA
ATOM      4  N   UNL     1      35.483 -19.510 -20.586  0.00  0.00    -0.118 N 
ATOM      5  C   UNL     1      35.664 -21.636 -19.759  0.00  0.00    +0.228 C 
ATOM      6  C   UNL     1      34.708 -20.490 -20.044  0.00  0.00    +0.290 C 
ATOM      7  C   UNL     1      35.394 -22.767 -20.755  0.00  0.00    +0.058 C 
ATOM      8  C   UNL     1      36.800 -19.812 -20.639  0.00  0.00    +0.428 C 
ENDROOT
BRANCH   5  11
ATOM      9  F   UNL     1      33.528 -23.029 -18.505  0.00  0.00    -0.204 F 
ATOM     10  F   UNL     1      35.670 -23.044 -14.286  0.00  0.00    -0.204 F 
ATOM     11  C   UNL     1      35.662 -22.015 -18.287  0.00  0.00    +0.050 C 
ATOM     12  C   UNL     1      34.577 -22.700 -17.740  0.00  0.00    +0.142 C 
ATOM     13  C   UNL     1      36.751 -21.678 -17.481  0.00  0.00    +0.004 C 
ATOM     14  C   UNL     1      34.579 -23.047 -16.389  0.00  0.00    +0.059 C 
ATOM     15  C   UNL     1      36.753 -22.025 -16.130  0.00  0.00    +0.030 C 
ATOM     16  C   UNL     1      35.667 -22.710 -15.583  0.00  0.00    +0.142 C 
ENDBRANCH   5  11
BRANCH   4  17
ATOM     17  N   UNL     1      34.982 -18.313 -20.983  0.00  0.00    -0.251 N 
ATOM     18  H   UNL     1      34.703 -17.647 -20.314  0.00  0.00    +0.171 HD
BRANCH  17  19
ATOM     19  C   UNL     1      34.862 -18.033 -22.350  0.00  0.00    +0.062 C 
ATOM     20  C   UNL     1      34.969 -16.716 -22.813  0.00  0.00    +0.016 C 
ATOM     21  C   UNL     1      34.635 -19.066 -23.267  0.00  0.00    +0.016 C 
ATOM     22  C   UNL     1      34.849 -16.437 -24.175  0.00  0.00    +0.001 C 
ATOM     23  C   UNL     1      34.516 -18.786 -24.628  0.00  0.00    +0.001 C 
ATOM     24  C   UNL     1      34.623 -17.471 -25.082  0.00  0.00    +0.000 C 
ENDBRANCH  17  19
ENDBRANCH   4  17
TORSDOF 3
ENDMDL
MODEL 9
REMARK VINA RESULT:      -9.2      8.635     12.603
REMARK  Name = 9547935
REMARK  3 active torsions:
REMARK  status: ('A' for Active; 'I' for Inactive)
REMARK    1  A    between atoms: N_4  and  N_17
REMARK    2  A    between atoms: C_5  and  C_11
REMARK    3  A    between atoms: N_17  and  C_19
REMARK                            x       y       z     vdW  Elec       q    Type
REMARK                         _______ _______ _______ _____ _____    ______ ____
ROOT
ATOM      1  O   UNL     1      32.649  -6.499 -21.748  0.00  0.00    -0.427 OA
ATOM      2  O   UNL     1      30.444  -8.148 -23.928  0.00  0.00    -0.269 OA
ATOM      3  O   UNL     1      33.113  -8.100 -20.183  0.00  0.00    -0.224 OA
ATOM      4  N   UNL     1      31.659  -8.450 -21.959  0.00  0.00    -0.118 N 
ATOM      5  C   UNL     1      31.783  -6.374 -22.913  0.00  0.00    +0.228 C 
ATOM      6  C   UNL     1      31.186  -7.765 -23.037  0.00  0.00    +0.290 C 
ATOM      7  C   UNL     1      30.676  -5.391 -22.525  0.00  0.00    +0.058 C 
ATOM      8  C   UNL     1      32.519  -7.745 -21.190  0.00  0.00    +0.428 C 
ENDROOT
BRANCH   5  11
ATOM      9  F   UNL     1      34.338  -7.494 -23.455  0.00  0.00    -0.204 F 
ATOM     10  F   UNL     1      34.865  -5.017 -27.452  0.00  0.00    -0.204 F 
ATOM     11  C   UNL     1      32.614  -6.010 -24.133  0.00  0.00    +0.050 C 
ATOM     12  C   UNL     1      33.862  -6.602 -24.334  0.00  0.00    +0.142 C 
ATOM     13  C   UNL     1      32.128  -5.083 -25.056  0.00  0.00    +0.004 C 
ATOM     14  C   UNL     1      34.622  -6.266 -25.454  0.00  0.00    +0.059 C 
ATOM     15  C   UNL     1      32.887  -4.747 -26.176  0.00  0.00    +0.030 C 
ATOM     16  C   UNL     1      34.135  -5.339 -26.376  0.00  0.00    +0.142 C 
ENDBRANCH   5  11
BRANCH   4  17
ATOM     17  N   UNL     1      31.339  -9.745 -21.713  0.00  0.00    -0.251 N 
ATOM     18  H   UNL     1      30.617  -9.964 -21.081  0.00  0.00    +0.171 HD
BRANCH  17  19
ATOM     19  C   UNL     1      32.042 -10.767 -22.362  0.00  0.00    +0.062 C 
ATOM     20  C   UNL     1      31.826 -12.105 -22.014  0.00  0.00    +0.016 C 
ATOM     21  C   UNL     1      32.969 -10.461 -23.366  0.00  0.00    +0.016 C 
ATOM     22  C   UNL     1      32.527 -13.124 -22.661  0.00  0.00    +0.001 C 
ATOM     23  C   UNL     1      33.669 -11.479 -24.013  0.00  0.00    +0.001 C 
ATOM     24  C   UNL     1      33.448 -12.811 -23.660  0.00  0.00    +0.000 C 
ENDBRANCH  17  19
ENDBRANCH   4  17
TORSDOF 3
ENDMDL
