MODEL 1
REMARK VINA RESULT:      -9.4      0.000      0.000
REMARK  Name = 5327097
REMARK  4 active torsions:
REMARK  status: ('A' for Active; 'I' for Inactive)
REMARK    1  A    between atoms: C_1  and  N_8
REMARK    2  A    between atoms: C_2  and  S_17
REMARK    3  A    between atoms: C_10  and  C_14
REMARK    4  A    between atoms: S_17  and  N_20
REMARK                            x       y       z     vdW  Elec       q    Type
REMARK                         _______ _______ _______ _____ _____    ______ ____
ROOT
ATOM      1  C   UNL     1      34.665 -19.168 -21.295  0.00  0.00    +0.050 C 
ATOM      2  C   UNL     1      34.250 -21.390 -19.659  0.00  0.00    +0.122 C 
ATOM      3  C   UNL     1      35.755 -19.850 -20.756  0.00  0.00    +0.016 C 
ATOM      4  C   UNL     1      33.367 -19.596 -21.015  0.00  0.00    +0.016 C 
ATOM      5  C   UNL     1      35.548 -20.961 -19.938  0.00  0.00    +0.021 C 
ATOM      6  C   UNL     1      33.160 -20.707 -20.197  0.00  0.00    +0.021 C 
ENDROOT
BRANCH   1   8
ATOM      7  S   UNL     1      34.651 -15.679 -23.316  0.00  0.00    -0.056 S 
ATOM      8  N   UNL     1      34.874 -18.046 -22.122  0.00  0.00    -0.293 N 
ATOM      9  N   UNL     1      33.590 -16.367 -21.062  0.00  0.00    -0.223 NA
ATOM     10  C   UNL     1      33.702 -14.516 -22.488  0.00  0.00    +0.029 C 
ATOM     11  C   UNL     1      34.339 -16.789 -22.050  0.00  0.00    +0.163 C 
ATOM     12  C   UNL     1      33.224 -15.060 -21.314  0.00  0.00    +0.103 C 
ATOM     13  H   UNL     1      35.502 -18.189 -22.867  0.00  0.00    +0.154 HD
BRANCH  10  14
ATOM     14  C   UNL     1      33.506 -13.167 -23.052  0.00  0.00    +0.030 C 
ATOM     15  C   UNL     1      32.224 -12.470 -22.537  0.00  0.00    +0.005 C 
ATOM     16  C   UNL     1      33.512 -13.146 -24.600  0.00  0.00    +0.005 C 
ENDBRANCH  10  14
ENDBRANCH   1   8
BRANCH   2  17
ATOM     17  S   UNL     1      33.991 -22.780 -18.634  0.00  0.00    +0.057 S 
ATOM     18  O   UNL     1      33.943 -23.968 -19.476  0.00  0.00    -0.153 OA
ATOM     19  O   UNL     1      34.930 -22.717 -17.524  0.00  0.00    -0.153 OA
BRANCH  17  20
ATOM     20  N   UNL     1      32.420 -22.460 -18.044  0.00  0.00    -0.203 NA
ATOM     21  H   UNL     1      32.449 -21.652 -17.422  0.00  0.00    +0.144 HD
ATOM     22  H   UNL     1      32.077 -23.272 -17.531  0.00  0.00    +0.144 HD
ENDBRANCH  17  20
ENDBRANCH   2  17
TORSDOF 4
ENDMDL
MODEL 2
REMARK VINA RESULT:      -8.8      2.489      3.459
REMARK  Name = 5327097
REMARK  4 active torsions:
REMARK  status: ('A' for Active; 'I' for Inactive)
REMARK    1  A    between atoms: C_1  and  N_8
REMARK    2  A    between atoms: C_2  and  S_17
REMARK    3  A    between atoms: C_10  and  C_14
REMARK    4  A    between atoms: S_17  and  N_20
REMARK                            x       y       z     vdW  Elec       q    Type
REMARK                         _______ _______ _______ _____ _____    ______ ____
ROOT
ATOM      1  C   UNL     1      35.452 -21.312 -19.715  0.00  0.00    +0.050 C 
ATOM      2  C   UNL     1      35.850 -22.428 -17.189  0.00  0.00    +0.122 C 
ATOM      3  C   UNL     1      34.427 -22.033 -19.101  0.00  0.00    +0.016 C 
ATOM      4  C   UNL     1      36.676 -21.151 -19.066  0.00  0.00    +0.016 C 
ATOM      5  C   UNL     1      34.625 -22.591 -17.838  0.00  0.00    +0.021 C 
ATOM      6  C   UNL     1      36.875 -21.709 -17.803  0.00  0.00    +0.021 C 
ENDROOT
BRANCH   1   8
ATOM      7  S   UNL     1      34.782 -19.051 -22.985  0.00  0.00    -0.056 S 
ATOM      8  N   UNL     1      35.250 -20.748 -20.991  0.00  0.00    -0.293 N 
ATOM      9  N   UNL     1      35.540 -18.435 -20.591  0.00  0.00    -0.223 NA
ATOM     10  C   UNL     1      35.010 -17.392 -22.618  0.00  0.00    +0.029 C 
ATOM     11  C   UNL     1      35.232 -19.436 -21.379  0.00  0.00    +0.163 C 
ATOM     12  C   UNL     1      35.412 -17.260 -21.304  0.00  0.00    +0.103 C 
ATOM     13  H   UNL     1      35.100 -21.398 -21.715  0.00  0.00    +0.154 HD
BRANCH  10  14
ATOM     14  C   UNL     1      34.781 -16.356 -23.643  0.00  0.00    +0.030 C 
ATOM     15  C   UNL     1      33.719 -15.311 -23.228  0.00  0.00    +0.005 C 
ATOM     16  C   UNL     1      34.408 -16.940 -25.027  0.00  0.00    +0.005 C 
ENDBRANCH  10  14
ENDBRANCH   1   8
BRANCH   2  17
ATOM     17  S   UNL     1      36.099 -23.128 -15.608  0.00  0.00    +0.057 S 
ATOM     18  O   UNL     1      35.975 -24.574 -15.721  0.00  0.00    -0.153 OA
ATOM     19  O   UNL     1      37.303 -22.548 -15.031  0.00  0.00    -0.153 OA
BRANCH  17  20
ATOM     20  N   UNL     1      34.741 -22.522 -14.767  0.00  0.00    -0.203 NA
ATOM     21  H   UNL     1      34.653 -23.003 -13.872  0.00  0.00    +0.144 HD
ATOM     22  H   UNL     1      33.899 -22.681 -15.322  0.00  0.00    +0.144 HD
ENDBRANCH  17  20
ENDBRANCH   2  17
TORSDOF 4
ENDMDL
MODEL 3
REMARK VINA RESULT:      -8.7      5.097      7.589
REMARK  Name = 5327097
REMARK  4 active torsions:
REMARK  status: ('A' for Active; 'I' for Inactive)
REMARK    1  A    between atoms: C_1  and  N_8
REMARK    2  A    between atoms: C_2  and  S_17
REMARK    3  A    between atoms: C_10  and  C_14
REMARK    4  A    between atoms: S_17  and  N_20
REMARK                            x       y       z     vdW  Elec       q    Type
REMARK                         _______ _______ _______ _____ _____    ______ ____
ROOT
ATOM      1  C   UNL     1      34.744 -23.625 -15.617  0.00  0.00    +0.050 C 
ATOM      2  C   UNL     1      35.730 -24.557 -13.179  0.00  0.00    +0.122 C 
ATOM      3  C   UNL     1      33.886 -23.770 -14.527  0.00  0.00    +0.016 C 
ATOM      4  C   UNL     1      36.096 -23.947 -15.488  0.00  0.00    +0.016 C 
ATOM      5  C   UNL     1      34.378 -24.236 -13.308  0.00  0.00    +0.021 C 
ATOM      6  C   UNL     1      36.588 -24.413 -14.269  0.00  0.00    +0.021 C 
ENDROOT
BRANCH   1   8
ATOM      7  S   UNL     1      33.925 -21.822 -19.128  0.00  0.00    -0.056 S 
ATOM      8  N   UNL     1      34.247 -23.154 -16.848  0.00  0.00    -0.293 N 
ATOM      9  N   UNL     1      36.120 -22.055 -17.784  0.00  0.00    -0.223 NA
ATOM     10  C   UNL     1      35.327 -21.050 -19.742  0.00  0.00    +0.029 C 
ATOM     11  C   UNL     1      34.854 -22.390 -17.808  0.00  0.00    +0.163 C 
ATOM     12  C   UNL     1      36.392 -21.285 -18.897  0.00  0.00    +0.103 C 
ATOM     13  H   UNL     1      33.318 -23.414 -17.050  0.00  0.00    +0.154 HD
BRANCH  10  14
ATOM     14  C   UNL     1      35.272 -20.281 -21.000  0.00  0.00    +0.030 C 
ATOM     15  C   UNL     1      36.311 -19.136 -21.061  0.00  0.00    +0.005 C 
ATOM     16  C   UNL     1      33.866 -19.712 -21.307  0.00  0.00    +0.005 C 
ENDBRANCH  10  14
ENDBRANCH   1   8
BRANCH   2  17
ATOM     17  S   UNL     1      36.347 -25.141 -11.653  0.00  0.00    +0.057 S 
ATOM     18  O   UNL     1      35.301 -25.000 -10.650  0.00  0.00    -0.153 OA
ATOM     19  O   UNL     1      36.968 -26.440 -11.872  0.00  0.00    -0.153 OA
BRANCH  17  20
ATOM     20  N   UNL     1      37.572 -23.993 -11.337  0.00  0.00    -0.203 NA
ATOM     21  H   UNL     1      37.244 -23.330 -10.635  0.00  0.00    +0.144 HD
ATOM     22  H   UNL     1      37.800 -23.493 -12.197  0.00  0.00    +0.144 HD
ENDBRANCH  17  20
ENDBRANCH   2  17
TORSDOF 4
ENDMDL
MODEL 4
REMARK VINA RESULT:      -8.6      4.342      8.007
REMARK  Name = 5327097
REMARK  4 active torsions:
REMARK  status: ('A' for Active; 'I' for Inactive)
REMARK    1  A    between atoms: C_1  and  N_8
REMARK    2  A    between atoms: C_2  and  S_17
REMARK    3  A    between atoms: C_10  and  C_14
REMARK    4  A    between atoms: S_17  and  N_20
REMARK                            x       y       z     vdW  Elec       q    Type
REMARK                         _______ _______ _______ _____ _____    ______ ____
ROOT
ATOM      1  C   UNL     1      35.018 -17.265 -22.343  0.00  0.00    +0.050 C 
ATOM      2  C   UNL     1      33.883 -15.048 -23.599  0.00  0.00    +0.122 C 
ATOM      3  C   UNL     1      34.633 -16.157 -21.588  0.00  0.00    +0.016 C 
ATOM      4  C   UNL     1      34.836 -17.263 -23.726  0.00  0.00    +0.016 C 
ATOM      5  C   UNL     1      34.065 -15.048 -22.216  0.00  0.00    +0.021 C 
ATOM      6  C   UNL     1      34.268 -16.155 -24.354  0.00  0.00    +0.021 C 
ENDROOT
BRANCH   1   8
ATOM      7  S   UNL     1      35.994 -20.518 -20.170  0.00  0.00    -0.056 S 
ATOM      8  N   UNL     1      35.591 -18.386 -21.709  0.00  0.00    -0.293 N 
ATOM      9  N   UNL     1      33.706 -19.509 -20.828  0.00  0.00    -0.223 NA
ATOM     10  C   UNL     1      34.579 -21.277 -19.567  0.00  0.00    +0.029 C 
ATOM     11  C   UNL     1      35.002 -19.375 -20.970  0.00  0.00    +0.163 C 
ATOM     12  C   UNL     1      33.464 -20.604 -20.021  0.00  0.00    +0.103 C 
ATOM     13  H   UNL     1      36.567 -18.470 -21.813  0.00  0.00    +0.154 HD
BRANCH  10  14
ATOM     14  C   UNL     1      34.676 -22.469 -18.703  0.00  0.00    +0.030 C 
ATOM     15  C   UNL     1      33.323 -22.876 -18.073  0.00  0.00    +0.005 C 
ATOM     16  C   UNL     1      35.738 -22.328 -17.586  0.00  0.00    +0.005 C 
ENDBRANCH  10  14
ENDBRANCH   1   8
BRANCH   2  17
ATOM     17  S   UNL     1      33.172 -13.659 -24.385  0.00  0.00    +0.057 S 
ATOM     18  O   UNL     1      34.173 -12.603 -24.444  0.00  0.00    -0.153 OA
ATOM     19  O   UNL     1      32.518 -14.104 -25.607  0.00  0.00    -0.153 OA
BRANCH  17  20
ATOM     20  N   UNL     1      31.974 -13.220 -23.249  0.00  0.00    -0.203 NA
ATOM     21  H   UNL     1      32.132 -12.260 -22.942  0.00  0.00    +0.144 HD
ATOM     22  H   UNL     1      32.024 -13.845 -22.444  0.00  0.00    +0.144 HD
ENDBRANCH  17  20
ENDBRANCH   2  17
TORSDOF 4
ENDMDL
MODEL 5
REMARK VINA RESULT:      -8.4      6.035      9.551
REMARK  Name = 5327097
REMARK  4 active torsions:
REMARK  status: ('A' for Active; 'I' for Inactive)
REMARK    1  A    between atoms: C_1  and  N_8
REMARK    2  A    between atoms: C_2  and  S_17
REMARK    3  A    between atoms: C_10  and  C_14
REMARK    4  A    between atoms: S_17  and  N_20
REMARK                            x       y       z     vdW  Elec       q    Type
REMARK                         _______ _______ _______ _____ _____    ______ ____
ROOT
ATOM      1  C   UNL     1      33.191 -12.503 -23.633  0.00  0.00    +0.050 C 
ATOM      2  C   UNL     1      32.561  -9.936 -22.744  0.00  0.00    +0.122 C 
ATOM      3  C   UNL     1      33.846 -11.397 -24.175  0.00  0.00    +0.016 C 
ATOM      4  C   UNL     1      32.221 -12.326 -22.647  0.00  0.00    +0.016 C 
ATOM      5  C   UNL     1      33.531 -10.113 -23.731  0.00  0.00    +0.021 C 
ATOM      6  C   UNL     1      31.906 -11.042 -22.203  0.00  0.00    +0.021 C 
ENDROOT
BRANCH   1   8
ATOM      7  S   UNL     1      34.502 -16.262 -24.276  0.00  0.00    -0.056 S 
ATOM      8  N   UNL     1      33.511 -13.801 -24.082  0.00  0.00    -0.293 N 
ATOM      9  N   UNL     1      34.289 -14.858 -22.115  0.00  0.00    -0.223 NA
ATOM     10  C   UNL     1      35.048 -16.961 -22.808  0.00  0.00    +0.029 C 
ATOM     11  C   UNL     1      34.064 -14.854 -23.406  0.00  0.00    +0.163 C 
ATOM     12  C   UNL     1      34.855 -16.070 -21.772  0.00  0.00    +0.103 C 
ATOM     13  H   UNL     1      33.303 -13.978 -25.029  0.00  0.00    +0.154 HD
BRANCH  10  14
ATOM     14  C   UNL     1      35.618 -18.321 -22.790  0.00  0.00    +0.030 C 
ATOM     15  C   UNL     1      34.933 -19.283 -23.790  0.00  0.00    +0.005 C 
ATOM     16  C   UNL     1      35.616 -18.964 -21.382  0.00  0.00    +0.005 C 
ENDBRANCH  10  14
ENDBRANCH   1   8
BRANCH   2  17
ATOM     17  S   UNL     1      32.165  -8.328 -22.188  0.00  0.00    +0.057 S 
ATOM     18  O   UNL     1      31.131  -7.783 -23.056  0.00  0.00    -0.153 OA
ATOM     19  O   UNL     1      31.950  -8.376 -20.749  0.00  0.00    -0.153 OA
BRANCH  17  20
ATOM     20  N   UNL     1      33.632  -7.508 -22.497  0.00  0.00    -0.203 NA
ATOM     21  H   UNL     1      33.615  -6.596 -22.038  0.00  0.00    +0.144 HD
ATOM     22  H   UNL     1      33.745  -7.380 -23.502  0.00  0.00    +0.144 HD
ENDBRANCH  17  20
ENDBRANCH   2  17
TORSDOF 4
ENDMDL
MODEL 6
REMARK VINA RESULT:      -8.4      6.313      9.617
REMARK  Name = 5327097
REMARK  4 active torsions:
REMARK  status: ('A' for Active; 'I' for Inactive)
REMARK    1  A    between atoms: C_1  and  N_8
REMARK    2  A    between atoms: C_2  and  S_17
REMARK    3  A    between atoms: C_10  and  C_14
REMARK    4  A    between atoms: S_17  and  N_20
REMARK                            x       y       z     vdW  Elec       q    Type
REMARK                         _______ _______ _______ _____ _____    ______ ____
ROOT
ATOM      1  C   UNL     1      33.259 -12.467 -23.812  0.00  0.00    +0.050 C 
ATOM      2  C   UNL     1      32.786  -9.867 -22.916  0.00  0.00    +0.122 C 
ATOM      3  C   UNL     1      32.311 -12.234 -22.815  0.00  0.00    +0.016 C 
ATOM      4  C   UNL     1      33.970 -11.399 -24.360  0.00  0.00    +0.016 C 
ATOM      5  C   UNL     1      32.074 -10.935 -22.367  0.00  0.00    +0.021 C 
ATOM      6  C   UNL     1      33.734 -10.100 -23.912  0.00  0.00    +0.021 C 
ENDROOT
BRANCH   1   8
ATOM      7  S   UNL     1      34.374 -16.281 -24.493  0.00  0.00    -0.056 S 
ATOM      8  N   UNL     1      33.497 -13.780 -24.265  0.00  0.00    -0.293 N 
ATOM      9  N   UNL     1      34.350 -14.852 -22.338  0.00  0.00    -0.223 NA
ATOM     10  C   UNL     1      34.980 -16.990 -23.054  0.00  0.00    +0.029 C 
ATOM     11  C   UNL     1      34.048 -14.849 -23.613  0.00  0.00    +0.163 C 
ATOM     12  C   UNL     1      34.886 -16.084 -22.018  0.00  0.00    +0.103 C 
ATOM     13  H   UNL     1      33.225 -13.955 -25.196  0.00  0.00    +0.154 HD
BRANCH  10  14
ATOM     14  C   UNL     1      35.494 -18.372 -23.056  0.00  0.00    +0.030 C 
ATOM     15  C   UNL     1      34.876 -19.252 -24.170  0.00  0.00    +0.005 C 
ATOM     16  C   UNL     1      35.331 -19.086 -21.693  0.00  0.00    +0.005 C 
ENDBRANCH  10  14
ENDBRANCH   1   8
BRANCH   2  17
ATOM     17  S   UNL     1      32.490  -8.240 -22.354  0.00  0.00    +0.057 S 
ATOM     18  O   UNL     1      33.694  -7.451 -22.578  0.00  0.00    -0.153 OA
ATOM     19  O   UNL     1      31.217  -7.788 -22.897  0.00  0.00    -0.153 OA
BRANCH  17  20
ATOM     20  N   UNL     1      32.309  -8.504 -20.676  0.00  0.00    -0.203 NA
ATOM     21  H   UNL     1      32.152  -7.612 -20.206  0.00  0.00    +0.144 HD
ATOM     22  H   UNL     1      33.155  -8.938 -20.306  0.00  0.00    +0.144 HD
ENDBRANCH  17  20
ENDBRANCH   2  17
TORSDOF 4
ENDMDL
MODEL 7
REMARK VINA RESULT:      -8.3      4.347      8.546
REMARK  Name = 5327097
REMARK  4 active torsions:
REMARK  status: ('A' for Active; 'I' for Inactive)
REMARK    1  A    between atoms: C_1  and  N_8
REMARK    2  A    between atoms: C_2  and  S_17
REMARK    3  A    between atoms: C_10  and  C_14
REMARK    4  A    between atoms: S_17  and  N_20
REMARK                            x       y       z     vdW  Elec       q    Type
REMARK                         _______ _______ _______ _____ _____    ______ ____
ROOT
ATOM      1  C   UNL     1      34.383 -21.609 -19.200  0.00  0.00    +0.050 C 
ATOM      2  C   UNL     1      34.733 -19.747 -21.248  0.00  0.00    +0.122 C 
ATOM      3  C   UNL     1      35.669 -21.245 -19.599  0.00  0.00    +0.016 C 
ATOM      4  C   UNL     1      33.272 -21.044 -19.826  0.00  0.00    +0.016 C 
ATOM      5  C   UNL     1      35.844 -20.314 -20.623  0.00  0.00    +0.021 C 
ATOM      6  C   UNL     1      33.447 -20.113 -20.849  0.00  0.00    +0.021 C 
ENDROOT
BRANCH   1   8
ATOM      7  S   UNL     1      33.246 -23.911 -16.091  0.00  0.00    -0.056 S 
ATOM      8  N   UNL     1      34.206 -22.550 -18.165  0.00  0.00    -0.293 N 
ATOM      9  N   UNL     1      31.917 -22.308 -17.623  0.00  0.00    -0.223 NA
ATOM     10  C   UNL     1      31.579 -23.682 -15.760  0.00  0.00    +0.029 C 
ATOM     11  C   UNL     1      33.101 -22.827 -17.408  0.00  0.00    +0.163 C 
ATOM     12  C   UNL     1      31.043 -22.801 -16.675  0.00  0.00    +0.103 C 
ATOM     13  H   UNL     1      35.001 -23.092 -17.953  0.00  0.00    +0.154 HD
BRANCH  10  14
ATOM     14  C   UNL     1      30.933 -24.384 -14.635  0.00  0.00    +0.030 C 
ATOM     15  C   UNL     1      31.943 -25.064 -13.679  0.00  0.00    +0.005 C 
ATOM     16  C   UNL     1      29.881 -25.424 -15.088  0.00  0.00    +0.005 C 
ENDBRANCH  10  14
ENDBRANCH   1   8
BRANCH   2  17
ATOM     17  S   UNL     1      34.951 -18.582 -22.530  0.00  0.00    +0.057 S 
ATOM     18  O   UNL     1      34.671 -19.238 -23.800  0.00  0.00    -0.153 OA
ATOM     19  O   UNL     1      34.240 -17.363 -22.174  0.00  0.00    -0.153 OA
BRANCH  17  20
ATOM     20  N   UNL     1      36.631 -18.289 -22.420  0.00  0.00    -0.203 NA
ATOM     21  H   UNL     1      37.141 -19.126 -22.706  0.00  0.00    +0.144 HD
ATOM     22  H   UNL     1      36.873 -18.057 -21.456  0.00  0.00    +0.144 HD
ENDBRANCH  17  20
ENDBRANCH   2  17
TORSDOF 4
ENDMDL
MODEL 8
REMARK VINA RESULT:      -8.3      3.424      4.921
REMARK  Name = 5327097
REMARK  4 active torsions:
REMARK  status: ('A' for Active; 'I' for Inactive)
REMARK    1  A    between atoms: C_1  and  N_8
REMARK    2  A    between atoms: C_2  and  S_17
REMARK    3  A    between atoms: C_10  and  C_14
REMARK    4  A    between atoms: S_17  and  N_20
REMARK                            x       y       z     vdW  Elec       q    Type
REMARK                         _______ _______ _______ _____ _____    ______ ____
ROOT
ATOM      1  C   UNL     1      35.185 -21.943 -18.339  0.00  0.00    +0.050 C 
ATOM      2  C   UNL     1      36.182 -23.111 -16.011  0.00  0.00    +0.122 C 
ATOM      3  C   UNL     1      34.357 -22.740 -17.549  0.00  0.00    +0.016 C 
ATOM      4  C   UNL     1      36.512 -21.731 -17.965  0.00  0.00    +0.016 C 
ATOM      5  C   UNL     1      34.855 -23.324 -16.385  0.00  0.00    +0.021 C 
ATOM      6  C   UNL     1      37.010 -22.315 -16.801  0.00  0.00    +0.021 C 
ENDROOT
BRANCH   1   8
ATOM      7  S   UNL     1      34.276 -19.729 -21.584  0.00  0.00    -0.056 S 
ATOM      8  N   UNL     1      34.682 -21.352 -19.516  0.00  0.00    -0.293 N 
ATOM      9  N   UNL     1      36.420 -19.879 -20.147  0.00  0.00    -0.223 NA
ATOM     10  C   UNL     1      35.581 -18.689 -21.979  0.00  0.00    +0.029 C 
ATOM     11  C   UNL     1      35.216 -20.371 -20.306  0.00  0.00    +0.163 C 
ATOM     12  C   UNL     1      36.629 -18.912 -21.110  0.00  0.00    +0.103 C 
ATOM     13  H   UNL     1      33.809 -21.698 -19.816  0.00  0.00    +0.154 HD
BRANCH  10  14
ATOM     14  C   UNL     1      35.474 -17.744 -23.107  0.00  0.00    +0.030 C 
ATOM     15  C   UNL     1      34.812 -16.401 -22.717  0.00  0.00    +0.005 C 
ATOM     16  C   UNL     1      34.740 -18.338 -24.333  0.00  0.00    +0.005 C 
ENDBRANCH  10  14
ENDBRANCH   1   8
BRANCH   2  17
ATOM     17  S   UNL     1      36.806 -23.844 -14.553  0.00  0.00    +0.057 S 
ATOM     18  O   UNL     1      37.659 -22.874 -13.880  0.00  0.00    -0.153 OA
ATOM     19  O   UNL     1      35.699 -24.456 -13.832  0.00  0.00    -0.153 OA
BRANCH  17  20
ATOM     20  N   UNL     1      37.787 -25.081 -15.206  0.00  0.00    -0.203 NA
ATOM     21  H   UNL     1      37.838 -24.975 -16.219  0.00  0.00    +0.144 HD
ATOM     22  H   UNL     1      37.383 -25.990 -14.980  0.00  0.00    +0.144 HD
ENDBRANCH  17  20
ENDBRANCH   2  17
TORSDOF 4
ENDMDL
MODEL 9
REMARK VINA RESULT:      -8.3      8.667     10.172
REMARK  Name = 5327097
REMARK  4 active torsions:
REMARK  status: ('A' for Active; 'I' for Inactive)
REMARK    1  A    between atoms: C_1  and  N_8
REMARK    2  A    between atoms: C_2  and  S_17
REMARK    3  A    between atoms: C_10  and  C_14
REMARK    4  A    between atoms: S_17  and  N_20
REMARK                            x       y       z     vdW  Elec       q    Type
REMARK                         _______ _______ _______ _____ _____    ______ ____
ROOT
ATOM      1  C   UNL     1      35.909 -25.085 -14.043  0.00  0.00    +0.050 C 
ATOM      2  C   UNL     1      38.670 -25.363 -14.334  0.00  0.00    +0.122 C 
ATOM      3  C   UNL     1      36.770 -24.175 -13.430  0.00  0.00    +0.016 C 
ATOM      4  C   UNL     1      36.429 -26.135 -14.801  0.00  0.00    +0.016 C 
ATOM      5  C   UNL     1      38.150 -24.313 -13.575  0.00  0.00    +0.021 C 
ATOM      6  C   UNL     1      37.809 -26.273 -14.946  0.00  0.00    +0.021 C 
ENDROOT
BRANCH   1   8
ATOM      7  S   UNL     1      31.982 -24.186 -14.191  0.00  0.00    -0.056 S 
ATOM      8  N   UNL     1      34.514 -24.944 -13.897  0.00  0.00    -0.293 N 
ATOM      9  N   UNL     1      33.876 -23.920 -15.930  0.00  0.00    -0.223 NA
ATOM     10  C   UNL     1      31.596 -23.449 -15.690  0.00  0.00    +0.029 C 
ATOM     11  C   UNL     1      33.597 -24.362 -14.728  0.00  0.00    +0.163 C 
ATOM     12  C   UNL     1      32.724 -23.395 -16.483  0.00  0.00    +0.103 C 
ATOM     13  H   UNL     1      34.141 -25.324 -13.068  0.00  0.00    +0.154 HD
BRANCH  10  14
ATOM     14  C   UNL     1      30.223 -22.987 -15.969  0.00  0.00    +0.030 C 
ATOM     15  C   UNL     1      29.597 -22.192 -14.798  0.00  0.00    +0.005 C 
ATOM     16  C   UNL     1      29.265 -24.131 -16.379  0.00  0.00    +0.005 C 
ENDBRANCH  10  14
ENDBRANCH   1   8
BRANCH   2  17
ATOM     17  S   UNL     1      40.398 -25.537 -14.515  0.00  0.00    +0.057 S 
ATOM     18  O   UNL     1      41.015 -24.235 -14.308  0.00  0.00    -0.153 OA
ATOM     19  O   UNL     1      40.833 -26.678 -13.722  0.00  0.00    -0.153 OA
BRANCH  17  20
ATOM     20  N   UNL     1      40.511 -25.944 -16.171  0.00  0.00    -0.203 NA
ATOM     21  H   UNL     1      40.724 -26.938 -16.262  0.00  0.00    +0.144 HD
ATOM     22  H   UNL     1      41.253 -25.396 -16.606  0.00  0.00    +0.144 HD
ENDBRANCH  17  20
ENDBRANCH   2  17
TORSDOF 4
ENDMDL
