MODEL 1
REMARK VINA RESULT:      -9.5      0.000      0.000
REMARK  Name = 121892
REMARK  7 active torsions:
REMARK  status: ('A' for Active; 'I' for Inactive)
REMARK    1  A    between atoms: C_1  and  N_17
REMARK    2  A    between atoms: C_2  and  N_8
REMARK    3  A    between atoms: C_4  and  N_14
REMARK    4  A    between atoms: C_9  and  O_11
REMARK    5  A    between atoms: O_11  and  C_12
REMARK    6  A    between atoms: N_17  and  C_19
REMARK    7  A    between atoms: C_19  and  C_21
REMARK                            x       y       z     vdW  Elec       q    Type
REMARK                         _______ _______ _______ _____ _____    ______ ____
ROOT
ATOM      1  C   UNL     1      34.276 -16.268 -21.729  0.00  0.00    +0.046 C 
ATOM      2  C   UNL     1      32.692 -13.956 -21.997  0.00  0.00    +0.066 C 
ATOM      3  C   UNL     1      34.614 -15.262 -22.654  0.00  0.00    +0.030 C 
ATOM      4  C   UNL     1      33.830 -14.117 -22.787  0.00  0.00    +0.056 C 
ATOM      5  C   UNL     1      33.123 -16.085 -20.941  0.00  0.00    +0.016 C 
ATOM      6  C   UNL     1      32.339 -14.940 -21.074  0.00  0.00    +0.017 C 
ENDROOT
BRANCH   2   8
ATOM      7  O   UNL     1      31.806 -11.962 -19.930  0.00  0.00    -0.226 OA
ATOM      8  N   UNL     1      31.890 -12.817 -22.112  0.00  0.00    -0.249 N 
ATOM      9  C   UNL     1      31.508 -11.922 -21.118  0.00  0.00    +0.405 C 
ATOM     10  H   UNL     1      31.550 -12.623 -23.016  0.00  0.00    +0.158 HD
BRANCH   9  11
ATOM     11  O   UNL     1      30.719 -10.948 -21.668  0.00  0.00    -0.434 OA
BRANCH  11  12
ATOM     12  C   UNL     1      31.383 -10.005 -22.518  0.00  0.00    +0.210 C 
ATOM     13  C   UNL     1      31.948  -8.887 -21.670  0.00  0.00    +0.051 C 
ENDBRANCH  11  12
ENDBRANCH   9  11
ENDBRANCH   2   8
BRANCH   4  14
ATOM     14  N   UNL     1      34.206 -13.132 -23.728  0.00  0.00    -0.356 N 
ATOM     15  H   UNL     1      34.358 -13.382 -24.668  0.00  0.00    +0.142 HD
ATOM     16  H   UNL     1      34.317 -12.197 -23.443  0.00  0.00    +0.142 HD
ENDBRANCH   4  14
BRANCH   1  17
ATOM     17  N   UNL     1      35.055 -17.405 -21.596  0.00  0.00    -0.329 N 
ATOM     18  H   UNL     1      35.890 -17.340 -21.078  0.00  0.00    +0.147 HD
BRANCH  17  19
ATOM     19  C   UNL     1      34.709 -18.685 -22.177  0.00  0.00    +0.114 C 
BRANCH  19  21
ATOM     20  F   UNL     1      34.392 -22.665 -18.222  0.00  0.00    -0.204 F 
ATOM     21  C   UNL     1      34.625 -19.741 -21.128  0.00  0.00    -0.002 C 
ATOM     22  C   UNL     1      35.791 -20.305 -20.612  0.00  0.00    -0.000 C 
ATOM     23  C   UNL     1      33.380 -20.165 -20.663  0.00  0.00    -0.000 C 
ATOM     24  C   UNL     1      35.713 -21.294 -19.631  0.00  0.00    +0.029 C 
ATOM     25  C   UNL     1      33.301 -21.152 -19.681  0.00  0.00    +0.029 C 
ATOM     26  C   UNL     1      34.467 -21.718 -19.165  0.00  0.00    +0.140 C 
ENDBRANCH  19  21
ENDBRANCH  17  19
ENDBRANCH   1  17
TORSDOF 7
ENDMDL
MODEL 2
REMARK VINA RESULT:      -9.5      4.126      6.514
REMARK  Name = 121892
REMARK  7 active torsions:
REMARK  status: ('A' for Active; 'I' for Inactive)
REMARK    1  A    between atoms: C_1  and  N_17
REMARK    2  A    between atoms: C_2  and  N_8
REMARK    3  A    between atoms: C_4  and  N_14
REMARK    4  A    between atoms: C_9  and  O_11
REMARK    5  A    between atoms: O_11  and  C_12
REMARK    6  A    between atoms: N_17  and  C_19
REMARK    7  A    between atoms: C_19  and  C_21
REMARK                            x       y       z     vdW  Elec       q    Type
REMARK                         _______ _______ _______ _____ _____    ______ ____
ROOT
ATOM      1  C   UNL     1      33.547 -21.542 -19.457  0.00  0.00    +0.046 C 
ATOM      2  C   UNL     1      34.519 -19.463 -21.088  0.00  0.00    +0.066 C 
ATOM      3  C   UNL     1      34.924 -21.254 -19.518  0.00  0.00    +0.030 C 
ATOM      4  C   UNL     1      35.405 -20.224 -20.326  0.00  0.00    +0.056 C 
ATOM      5  C   UNL     1      32.670 -20.761 -20.234  0.00  0.00    +0.016 C 
ATOM      6  C   UNL     1      33.151 -19.731 -21.042  0.00  0.00    +0.017 C 
ENDROOT
BRANCH   2   8
ATOM      7  O   UNL     1      35.059 -16.571 -20.472  0.00  0.00    -0.226 OA
ATOM      8  N   UNL     1      34.978 -18.426 -21.905  0.00  0.00    -0.249 N 
ATOM      9  C   UNL     1      35.213 -17.097 -21.568  0.00  0.00    +0.405 C 
ATOM     10  H   UNL     1      35.157 -18.667 -22.842  0.00  0.00    +0.158 HD
BRANCH   9  11
ATOM     11  O   UNL     1      35.657 -16.423 -22.674  0.00  0.00    -0.434 OA
BRANCH  11  12
ATOM     12  C   UNL     1      34.645 -15.835 -23.501  0.00  0.00    +0.210 C 
ATOM     13  C   UNL     1      34.624 -16.546 -24.836  0.00  0.00    +0.051 C 
ENDBRANCH  11  12
ENDBRANCH   9  11
ENDBRANCH   2   8
BRANCH   4  14
ATOM     14  N   UNL     1      36.795 -19.968 -20.358  0.00  0.00    -0.356 N 
ATOM     15  H   UNL     1      37.183 -19.284 -19.766  0.00  0.00    +0.142 HD
ATOM     16  H   UNL     1      37.374 -20.474 -20.972  0.00  0.00    +0.142 HD
ENDBRANCH   4  14
BRANCH   1  17
ATOM     17  N   UNL     1      33.069 -22.564 -18.655  0.00  0.00    -0.329 N 
ATOM     18  H   UNL     1      32.174 -22.928 -18.849  0.00  0.00    +0.147 HD
BRANCH  17  19
ATOM     19  C   UNL     1      33.811 -23.127 -17.548  0.00  0.00    +0.114 C 
BRANCH  19  21
ATOM     20  F   UNL     1      30.571 -23.588 -12.979  0.00  0.00    -0.204 F 
ATOM     21  C   UNL     1      32.952 -23.249 -16.336  0.00  0.00    -0.002 C 
ATOM     22  C   UNL     1      31.578 -23.029 -16.430  0.00  0.00    -0.000 C 
ATOM     23  C   UNL     1      33.522 -23.584 -15.107  0.00  0.00    -0.000 C 
ATOM     24  C   UNL     1      30.773 -23.142 -15.297  0.00  0.00    +0.029 C 
ATOM     25  C   UNL     1      32.717 -23.698 -13.973  0.00  0.00    +0.029 C 
ATOM     26  C   UNL     1      31.343 -23.477 -14.067  0.00  0.00    +0.140 C 
ENDBRANCH  19  21
ENDBRANCH  17  19
ENDBRANCH   1  17
TORSDOF 7
ENDMDL
MODEL 3
REMARK VINA RESULT:      -9.4      1.767      2.045
REMARK  Name = 121892
REMARK  7 active torsions:
REMARK  status: ('A' for Active; 'I' for Inactive)
REMARK    1  A    between atoms: C_1  and  N_17
REMARK    2  A    between atoms: C_2  and  N_8
REMARK    3  A    between atoms: C_4  and  N_14
REMARK    4  A    between atoms: C_9  and  O_11
REMARK    5  A    between atoms: O_11  and  C_12
REMARK    6  A    between atoms: N_17  and  C_19
REMARK    7  A    between atoms: C_19  and  C_21
REMARK                            x       y       z     vdW  Elec       q    Type
REMARK                         _______ _______ _______ _____ _____    ______ ____
ROOT
ATOM      1  C   UNL     1      34.658 -16.891 -23.155  0.00  0.00    +0.046 C 
ATOM      2  C   UNL     1      34.093 -14.160 -23.547  0.00  0.00    +0.066 C 
ATOM      3  C   UNL     1      34.146 -16.426 -24.382  0.00  0.00    +0.030 C 
ATOM      4  C   UNL     1      33.867 -15.074 -24.576  0.00  0.00    +0.056 C 
ATOM      5  C   UNL     1      34.878 -15.952 -22.129  0.00  0.00    +0.016 C 
ATOM      6  C   UNL     1      34.599 -14.600 -22.323  0.00  0.00    +0.017 C 
ENDROOT
BRANCH   2   8
ATOM      7  O   UNL     1      31.999 -12.405 -22.295  0.00  0.00    -0.226 OA
ATOM      8  N   UNL     1      33.821 -12.801 -23.718  0.00  0.00    -0.249 N 
ATOM      9  C   UNL     1      32.834 -12.031 -23.110  0.00  0.00    +0.405 C 
ATOM     10  H   UNL     1      34.404 -12.324 -24.352  0.00  0.00    +0.158 HD
BRANCH   9  11
ATOM     11  O   UNL     1      32.922 -10.743 -23.565  0.00  0.00    -0.434 OA
BRANCH  11  12
ATOM     12  C   UNL     1      34.153 -10.385 -24.206  0.00  0.00    +0.210 C 
ATOM     13  C   UNL     1      34.460  -8.933 -23.910  0.00  0.00    +0.051 C 
ENDBRANCH  11  12
ENDBRANCH   9  11
ENDBRANCH   2   8
BRANCH   4  14
ATOM     14  N   UNL     1      33.356 -14.650 -25.824  0.00  0.00    -0.356 N 
ATOM     15  H   UNL     1      32.978 -13.747 -25.920  0.00  0.00    +0.142 HD
ATOM     16  H   UNL     1      33.377 -15.260 -26.597  0.00  0.00    +0.142 HD
ENDBRANCH   4  14
BRANCH   1  17
ATOM     17  N   UNL     1      34.935 -18.234 -22.962  0.00  0.00    -0.329 N 
ATOM     18  H   UNL     1      34.542 -18.885 -23.588  0.00  0.00    +0.147 HD
BRANCH  17  19
ATOM     19  C   UNL     1      35.772 -18.733 -21.892  0.00  0.00    +0.114 C 
BRANCH  19  21
ATOM     20  F   UNL     1      32.943 -22.340 -18.642  0.00  0.00    -0.204 F 
ATOM     21  C   UNL     1      35.022 -19.690 -21.031  0.00  0.00    -0.002 C 
ATOM     22  C   UNL     1      35.704 -20.696 -20.347  0.00  0.00    -0.000 C 
ATOM     23  C   UNL     1      33.636 -19.579 -20.907  0.00  0.00    -0.000 C 
ATOM     24  C   UNL     1      35.002 -21.592 -19.541  0.00  0.00    +0.029 C 
ATOM     25  C   UNL     1      32.934 -20.475 -20.100  0.00  0.00    +0.029 C 
ATOM     26  C   UNL     1      33.617 -21.482 -19.417  0.00  0.00    +0.140 C 
ENDBRANCH  19  21
ENDBRANCH  17  19
ENDBRANCH   1  17
TORSDOF 7
ENDMDL
MODEL 4
REMARK VINA RESULT:      -9.4      4.669      9.174
REMARK  Name = 121892
REMARK  7 active torsions:
REMARK  status: ('A' for Active; 'I' for Inactive)
REMARK    1  A    between atoms: C_1  and  N_17
REMARK    2  A    between atoms: C_2  and  N_8
REMARK    3  A    between atoms: C_4  and  N_14
REMARK    4  A    between atoms: C_9  and  O_11
REMARK    5  A    between atoms: O_11  and  C_12
REMARK    6  A    between atoms: N_17  and  C_19
REMARK    7  A    between atoms: C_19  and  C_21
REMARK                            x       y       z     vdW  Elec       q    Type
REMARK                         _______ _______ _______ _____ _____    ______ ____
ROOT
ATOM      1  C   UNL     1      33.622 -14.087 -22.730  0.00  0.00    +0.046 C 
ATOM      2  C   UNL     1      34.759 -16.358 -21.514  0.00  0.00    +0.066 C 
ATOM      3  C   UNL     1      34.370 -15.012 -23.482  0.00  0.00    +0.030 C 
ATOM      4  C   UNL     1      34.933 -16.138 -22.880  0.00  0.00    +0.056 C 
ATOM      5  C   UNL     1      33.458 -14.328 -21.352  0.00  0.00    +0.016 C 
ATOM      6  C   UNL     1      34.021 -15.454 -20.750  0.00  0.00    +0.017 C 
ENDROOT
BRANCH   2   8
ATOM      7  O   UNL     1      34.197 -19.288 -21.878  0.00  0.00    -0.226 OA
ATOM      8  N   UNL     1      35.313 -17.478 -20.889  0.00  0.00    -0.249 N 
ATOM      9  C   UNL     1      35.016 -18.821 -21.095  0.00  0.00    +0.405 C 
ATOM     10  H   UNL     1      36.004 -17.292 -20.213  0.00  0.00    +0.158 HD
BRANCH   9  11
ATOM     11  O   UNL     1      35.794 -19.587 -20.270  0.00  0.00    -0.434 OA
BRANCH  11  12
ATOM     12  C   UNL     1      35.296 -20.897 -19.970  0.00  0.00    +0.210 C 
ATOM     13  C   UNL     1      36.183 -21.536 -18.924  0.00  0.00    +0.051 C 
ENDBRANCH  11  12
ENDBRANCH   9  11
ENDBRANCH   2   8
BRANCH   4  14
ATOM     14  N   UNL     1      35.675 -17.041 -23.673  0.00  0.00    -0.356 N 
ATOM     15  H   UNL     1      35.340 -17.310 -24.559  0.00  0.00    +0.142 HD
ATOM     16  H   UNL     1      36.528 -17.403 -23.339  0.00  0.00    +0.142 HD
ENDBRANCH   4  14
BRANCH   1  17
ATOM     17  N   UNL     1      33.063 -12.970 -23.327  0.00  0.00    -0.329 N 
ATOM     18  H   UNL     1      32.150 -12.709 -23.064  0.00  0.00    +0.147 HD
BRANCH  17  19
ATOM     19  C   UNL     1      33.746 -12.165 -24.317  0.00  0.00    +0.114 C 
BRANCH  19  21
ATOM     20  F   UNL     1      33.674  -6.730 -22.887  0.00  0.00    -0.204 F 
ATOM     21  C   UNL     1      33.727 -10.724 -23.937  0.00  0.00    -0.002 C 
ATOM     22  C   UNL     1      34.766  -9.883 -24.336  0.00  0.00    -0.000 C 
ATOM     23  C   UNL     1      32.669 -10.214 -23.182  0.00  0.00    -0.000 C 
ATOM     24  C   UNL     1      34.749  -8.535 -23.981  0.00  0.00    +0.029 C 
ATOM     25  C   UNL     1      32.652  -8.865 -22.828  0.00  0.00    +0.029 C 
ATOM     26  C   UNL     1      33.692  -8.025 -23.226  0.00  0.00    +0.140 C 
ENDBRANCH  19  21
ENDBRANCH  17  19
ENDBRANCH   1  17
TORSDOF 7
ENDMDL
MODEL 5
REMARK VINA RESULT:      -9.4      2.013      2.724
REMARK  Name = 121892
REMARK  7 active torsions:
REMARK  status: ('A' for Active; 'I' for Inactive)
REMARK    1  A    between atoms: C_1  and  N_17
REMARK    2  A    between atoms: C_2  and  N_8
REMARK    3  A    between atoms: C_4  and  N_14
REMARK    4  A    between atoms: C_9  and  O_11
REMARK    5  A    between atoms: O_11  and  C_12
REMARK    6  A    between atoms: N_17  and  C_19
REMARK    7  A    between atoms: C_19  and  C_21
REMARK                            x       y       z     vdW  Elec       q    Type
REMARK                         _______ _______ _______ _____ _____    ______ ____
ROOT
ATOM      1  C   UNL     1      35.007 -17.719 -22.546  0.00  0.00    +0.046 C 
ATOM      2  C   UNL     1      34.491 -15.011 -23.120  0.00  0.00    +0.066 C 
ATOM      3  C   UNL     1      34.845 -16.778 -21.511  0.00  0.00    +0.030 C 
ATOM      4  C   UNL     1      34.589 -15.437 -21.796  0.00  0.00    +0.056 C 
ATOM      5  C   UNL     1      34.905 -17.268 -23.876  0.00  0.00    +0.016 C 
ATOM      6  C   UNL     1      34.649 -15.927 -24.160  0.00  0.00    +0.017 C 
ENDROOT
BRANCH   2   8
ATOM      7  O   UNL     1      32.058 -13.315 -22.634  0.00  0.00    -0.226 OA
ATOM      8  N   UNL     1      34.235 -13.673 -23.430  0.00  0.00    -0.249 N 
ATOM      9  C   UNL     1      33.085 -12.930 -23.181  0.00  0.00    +0.405 C 
ATOM     10  H   UNL     1      34.964 -13.192 -23.884  0.00  0.00    +0.158 HD
BRANCH   9  11
ATOM     11  O   UNL     1      33.261 -11.656 -23.651  0.00  0.00    -0.434 OA
BRANCH  11  12
ATOM     12  C   UNL     1      34.086 -11.523 -24.814  0.00  0.00    +0.210 C 
ATOM     13  C   UNL     1      34.835 -10.210 -24.740  0.00  0.00    +0.051 C 
ENDBRANCH  11  12
ENDBRANCH   9  11
ENDBRANCH   2   8
BRANCH   4  14
ATOM     14  N   UNL     1      34.432 -14.526 -20.727  0.00  0.00    -0.356 N 
ATOM     15  H   UNL     1      34.963 -14.635 -19.905  0.00  0.00    +0.142 HD
ATOM     16  H   UNL     1      33.790 -13.784 -20.803  0.00  0.00    +0.142 HD
ENDBRANCH   4  14
BRANCH   1  17
ATOM     17  N   UNL     1      35.261 -19.051 -22.264  0.00  0.00    -0.329 N 
ATOM     18  H   UNL     1      34.934 -19.731 -22.897  0.00  0.00    +0.147 HD
BRANCH  17  19
ATOM     19  C   UNL     1      35.982 -19.497 -21.092  0.00  0.00    +0.114 C 
BRANCH  19  21
ATOM     20  F   UNL     1      32.860 -23.032 -18.037  0.00  0.00    -0.204 F 
ATOM     21  C   UNL     1      35.154 -20.434 -20.281  0.00  0.00    -0.002 C 
ATOM     22  C   UNL     1      33.762 -20.371 -20.347  0.00  0.00    -0.000 C 
ATOM     23  C   UNL     1      35.771 -21.376 -19.456  0.00  0.00    -0.000 C 
ATOM     24  C   UNL     1      32.987 -21.247 -19.588  0.00  0.00    +0.029 C 
ATOM     25  C   UNL     1      34.995 -22.253 -18.698  0.00  0.00    +0.029 C 
ATOM     26  C   UNL     1      33.604 -22.189 -18.763  0.00  0.00    +0.140 C 
ENDBRANCH  19  21
ENDBRANCH  17  19
ENDBRANCH   1  17
TORSDOF 7
ENDMDL
MODEL 6
REMARK VINA RESULT:      -9.3      4.204      8.651
REMARK  Name = 121892
REMARK  7 active torsions:
REMARK  status: ('A' for Active; 'I' for Inactive)
REMARK    1  A    between atoms: C_1  and  N_17
REMARK    2  A    between atoms: C_2  and  N_8
REMARK    3  A    between atoms: C_4  and  N_14
REMARK    4  A    between atoms: C_9  and  O_11
REMARK    5  A    between atoms: O_11  and  C_12
REMARK    6  A    between atoms: N_17  and  C_19
REMARK    7  A    between atoms: C_19  and  C_21
REMARK                            x       y       z     vdW  Elec       q    Type
REMARK                         _______ _______ _______ _____ _____    ______ ____
ROOT
ATOM      1  C   UNL     1      33.976 -14.416 -22.459  0.00  0.00    +0.046 C 
ATOM      2  C   UNL     1      35.079 -16.798 -21.441  0.00  0.00    +0.066 C 
ATOM      3  C   UNL     1      34.533 -15.381 -23.320  0.00  0.00    +0.030 C 
ATOM      4  C   UNL     1      35.079 -16.561 -22.816  0.00  0.00    +0.056 C 
ATOM      5  C   UNL     1      33.986 -14.675 -21.075  0.00  0.00    +0.016 C 
ATOM      6  C   UNL     1      34.533 -15.855 -20.571  0.00  0.00    +0.017 C 
ENDROOT
BRANCH   2   8
ATOM      7  O   UNL     1      33.928 -19.566 -21.226  0.00  0.00    -0.226 OA
ATOM      8  N   UNL     1      35.620 -17.973 -20.913  0.00  0.00    -0.249 N 
ATOM      9  C   UNL     1      35.042 -19.236 -20.837  0.00  0.00    +0.405 C 
ATOM     10  H   UNL     1      36.530 -17.897 -20.545  0.00  0.00    +0.158 HD
BRANCH   9  11
ATOM     11  O   UNL     1      35.922 -20.100 -20.243  0.00  0.00    -0.434 OA
BRANCH  11  12
ATOM     12  C   UNL     1      35.356 -21.293 -19.688  0.00  0.00    +0.210 C 
ATOM     13  C   UNL     1      36.201 -21.743 -18.517  0.00  0.00    +0.051 C 
ENDBRANCH  11  12
ENDBRANCH   9  11
ENDBRANCH   2   8
BRANCH   4  14
ATOM     14  N   UNL     1      35.627 -17.503 -23.715  0.00  0.00    -0.356 N 
ATOM     15  H   UNL     1      36.512 -17.344 -24.117  0.00  0.00    +0.142 HD
ATOM     16  H   UNL     1      35.124 -18.318 -23.940  0.00  0.00    +0.142 HD
ENDBRANCH   4  14
BRANCH   1  17
ATOM     17  N   UNL     1      33.434 -13.244 -22.959  0.00  0.00    -0.329 N 
ATOM     18  H   UNL     1      34.021 -12.640 -23.470  0.00  0.00    +0.147 HD
BRANCH  17  19
ATOM     19  C   UNL     1      32.052 -12.858 -22.773  0.00  0.00    +0.114 C 
BRANCH  19  21
ATOM     20  F   UNL     1      31.641  -8.454 -19.306  0.00  0.00    -0.204 F 
ATOM     21  C   UNL     1      31.943 -11.690 -21.854  0.00  0.00    -0.002 C 
ATOM     22  C   UNL     1      32.140 -10.398 -22.341  0.00  0.00    -0.000 C 
ATOM     23  C   UNL     1      31.644 -11.888 -20.505  0.00  0.00    -0.000 C 
ATOM     24  C   UNL     1      32.039  -9.305 -21.480  0.00  0.00    +0.029 C 
ATOM     25  C   UNL     1      31.542 -10.795 -19.645  0.00  0.00    +0.029 C 
ATOM     26  C   UNL     1      31.740  -9.503 -20.132  0.00  0.00    +0.140 C 
ENDBRANCH  19  21
ENDBRANCH  17  19
ENDBRANCH   1  17
TORSDOF 7
ENDMDL
MODEL 7
REMARK VINA RESULT:      -9.2      4.828      8.933
REMARK  Name = 121892
REMARK  7 active torsions:
REMARK  status: ('A' for Active; 'I' for Inactive)
REMARK    1  A    between atoms: C_1  and  N_17
REMARK    2  A    between atoms: C_2  and  N_8
REMARK    3  A    between atoms: C_4  and  N_14
REMARK    4  A    between atoms: C_9  and  O_11
REMARK    5  A    between atoms: O_11  and  C_12
REMARK    6  A    between atoms: N_17  and  C_19
REMARK    7  A    between atoms: C_19  and  C_21
REMARK                            x       y       z     vdW  Elec       q    Type
REMARK                         _______ _______ _______ _____ _____    ______ ____
ROOT
ATOM      1  C   UNL     1      34.788 -19.214 -21.541  0.00  0.00    +0.046 C 
ATOM      2  C   UNL     1      35.313 -21.112 -19.528  0.00  0.00    +0.066 C 
ATOM      3  C   UNL     1      33.747 -19.976 -20.975  0.00  0.00    +0.030 C 
ATOM      4  C   UNL     1      34.007 -20.915 -19.978  0.00  0.00    +0.056 C 
ATOM      5  C   UNL     1      36.098 -19.428 -21.073  0.00  0.00    +0.016 C 
ATOM      6  C   UNL     1      36.358 -20.368 -20.075  0.00  0.00    +0.017 C 
ENDROOT
BRANCH   2   8
ATOM      7  O   UNL     1      37.116 -20.935 -17.130  0.00  0.00    -0.226 OA
ATOM      8  N   UNL     1      35.598 -22.047 -18.530  0.00  0.00    -0.249 N 
ATOM      9  C   UNL     1      36.445 -21.914 -17.434  0.00  0.00    +0.405 C 
ATOM     10  H   UNL     1      35.139 -22.914 -18.613  0.00  0.00    +0.158 HD
BRANCH   9  11
ATOM     11  O   UNL     1      36.430 -23.076 -16.710  0.00  0.00    -0.434 OA
BRANCH  11  12
ATOM     12  C   UNL     1      35.976 -22.967 -15.355  0.00  0.00    +0.210 C 
ATOM     13  C   UNL     1      34.473 -23.144 -15.321  0.00  0.00    +0.051 C 
ENDBRANCH  11  12
ENDBRANCH   9  11
ENDBRANCH   2   8
BRANCH   4  14
ATOM     14  N   UNL     1      32.933 -21.657 -19.437  0.00  0.00    -0.356 N 
ATOM     15  H   UNL     1      32.025 -21.279 -19.436  0.00  0.00    +0.142 HD
ATOM     16  H   UNL     1      33.094 -22.553 -19.061  0.00  0.00    +0.142 HD
ENDBRANCH   4  14
BRANCH   1  17
ATOM     17  N   UNL     1      34.530 -18.281 -22.531  0.00  0.00    -0.329 N 
ATOM     18  H   UNL     1      33.856 -18.502 -23.214  0.00  0.00    +0.147 HD
BRANCH  17  19
ATOM     19  C   UNL     1      35.197 -17.000 -22.617  0.00  0.00    +0.114 C 
BRANCH  19  21
ATOM     20  F   UNL     1      31.665 -12.806 -21.384  0.00  0.00    -0.204 F 
ATOM     21  C   UNL     1      34.259 -15.888 -22.290  0.00  0.00    -0.002 C 
ATOM     22  C   UNL     1      33.861 -15.677 -20.970  0.00  0.00    -0.000 C 
ATOM     23  C   UNL     1      33.780 -15.058 -23.304  0.00  0.00    -0.000 C 
ATOM     24  C   UNL     1      32.984 -14.637 -20.664  0.00  0.00    +0.029 C 
ATOM     25  C   UNL     1      32.904 -14.017 -22.997  0.00  0.00    +0.029 C 
ATOM     26  C   UNL     1      32.505 -13.807 -21.678  0.00  0.00    +0.140 C 
ENDBRANCH  19  21
ENDBRANCH  17  19
ENDBRANCH   1  17
TORSDOF 7
ENDMDL
MODEL 8
REMARK VINA RESULT:      -9.1      4.830      7.071
REMARK  Name = 121892
REMARK  7 active torsions:
REMARK  status: ('A' for Active; 'I' for Inactive)
REMARK    1  A    between atoms: C_1  and  N_17
REMARK    2  A    between atoms: C_2  and  N_8
REMARK    3  A    between atoms: C_4  and  N_14
REMARK    4  A    between atoms: C_9  and  O_11
REMARK    5  A    between atoms: O_11  and  C_12
REMARK    6  A    between atoms: N_17  and  C_19
REMARK    7  A    between atoms: C_19  and  C_21
REMARK                            x       y       z     vdW  Elec       q    Type
REMARK                         _______ _______ _______ _____ _____    ______ ____
ROOT
ATOM      1  C   UNL     1      34.502 -22.152 -18.809  0.00  0.00    +0.046 C 
ATOM      2  C   UNL     1      34.944 -20.132 -20.719  0.00  0.00    +0.066 C 
ATOM      3  C   UNL     1      33.423 -21.478 -19.412  0.00  0.00    +0.030 C 
ATOM      4  C   UNL     1      33.642 -20.477 -20.358  0.00  0.00    +0.056 C 
ATOM      5  C   UNL     1      35.808 -21.788 -19.187  0.00  0.00    +0.016 C 
ATOM      6  C   UNL     1      36.027 -20.787 -20.133  0.00  0.00    +0.017 C 
ENDROOT
BRANCH   2   8
ATOM      7  O   UNL     1      35.390 -17.178 -20.384  0.00  0.00    -0.226 OA
ATOM      8  N   UNL     1      35.189 -19.133 -21.665  0.00  0.00    -0.249 N 
ATOM      9  C   UNL     1      35.390 -17.772 -21.456  0.00  0.00    +0.405 C 
ATOM     10  H   UNL     1      35.222 -19.430 -22.602  0.00  0.00    +0.158 HD
BRANCH   9  11
ATOM     11  O   UNL     1      35.595 -17.156 -22.661  0.00  0.00    -0.434 OA
BRANCH  11  12
ATOM     12  C   UNL     1      35.120 -17.859 -23.816  0.00  0.00    +0.210 C 
ATOM     13  C   UNL     1      34.773 -16.858 -24.896  0.00  0.00    +0.051 C 
ENDBRANCH  11  12
ENDBRANCH   9  11
ENDBRANCH   2   8
BRANCH   4  14
ATOM     14  N   UNL     1      32.530 -19.827 -20.940  0.00  0.00    -0.356 N 
ATOM     15  H   UNL     1      31.890 -20.338 -21.485  0.00  0.00    +0.142 HD
ATOM     16  H   UNL     1      32.396 -18.862 -20.799  0.00  0.00    +0.142 HD
ENDBRANCH   4  14
BRANCH   1  17
ATOM     17  N   UNL     1      34.284 -23.146 -17.869  0.00  0.00    -0.329 N 
ATOM     18  H   UNL     1      34.036 -24.044 -18.190  0.00  0.00    +0.147 HD
BRANCH  17  19
ATOM     19  C   UNL     1      34.402 -22.938 -16.442  0.00  0.00    +0.114 C 
BRANCH  19  21
ATOM     20  F   UNL     1      29.814 -24.763 -13.757  0.00  0.00    -0.204 F 
ATOM     21  C   UNL     1      33.185 -23.423 -15.730  0.00  0.00    -0.002 C 
ATOM     22  C   UNL     1      33.306 -24.054 -14.492  0.00  0.00    -0.000 C 
ATOM     23  C   UNL     1      31.925 -23.245 -16.302  0.00  0.00    -0.000 C 
ATOM     24  C   UNL     1      32.168 -24.508 -13.826  0.00  0.00    +0.029 C 
ATOM     25  C   UNL     1      30.787 -23.698 -15.635  0.00  0.00    +0.029 C 
ATOM     26  C   UNL     1      30.908 -24.330 -14.398  0.00  0.00    +0.140 C 
ENDBRANCH  19  21
ENDBRANCH  17  19
ENDBRANCH   1  17
TORSDOF 7
ENDMDL
MODEL 9
REMARK VINA RESULT:      -9.1      5.469      9.055
REMARK  Name = 121892
REMARK  7 active torsions:
REMARK  status: ('A' for Active; 'I' for Inactive)
REMARK    1  A    between atoms: C_1  and  N_17
REMARK    2  A    between atoms: C_2  and  N_8
REMARK    3  A    between atoms: C_4  and  N_14
REMARK    4  A    between atoms: C_9  and  O_11
REMARK    5  A    between atoms: O_11  and  C_12
REMARK    6  A    between atoms: N_17  and  C_19
REMARK    7  A    between atoms: C_19  and  C_21
REMARK                            x       y       z     vdW  Elec       q    Type
REMARK                         _______ _______ _______ _____ _____    ______ ____
ROOT
ATOM      1  C   UNL     1      35.696 -19.249 -21.482  0.00  0.00    +0.046 C 
ATOM      2  C   UNL     1      34.967 -21.125 -19.512  0.00  0.00    +0.066 C 
ATOM      3  C   UNL     1      34.348 -19.607 -21.287  0.00  0.00    +0.030 C 
ATOM      4  C   UNL     1      33.987 -20.536 -20.311  0.00  0.00    +0.056 C 
ATOM      5  C   UNL     1      36.669 -19.856 -20.665  0.00  0.00    +0.016 C 
ATOM      6  C   UNL     1      36.308 -20.786 -19.690  0.00  0.00    +0.017 C 
ENDROOT
BRANCH   2   8
ATOM      7  O   UNL     1      33.879 -23.917 -19.746  0.00  0.00    -0.226 OA
ATOM      8  N   UNL     1      34.629 -22.058 -18.529  0.00  0.00    -0.249 N 
ATOM      9  C   UNL     1      34.127 -23.345 -18.691  0.00  0.00    +0.405 C 
ATOM     10  H   UNL     1      34.763 -21.766 -17.598  0.00  0.00    +0.158 HD
BRANCH   9  11
ATOM     11  O   UNL     1      33.936 -23.913 -17.460  0.00  0.00    -0.434 OA
BRANCH  11  12
ATOM     12  C   UNL     1      34.384 -23.145 -16.336  0.00  0.00    +0.210 C 
ATOM     13  C   UNL     1      34.961 -24.082 -15.296  0.00  0.00    +0.051 C 
ENDBRANCH  11  12
ENDBRANCH   9  11
ENDBRANCH   2   8
BRANCH   4  14
ATOM     14  N   UNL     1      32.622 -20.865 -20.148  0.00  0.00    -0.356 N 
ATOM     15  H   UNL     1      32.326 -21.357 -19.348  0.00  0.00    +0.142 HD
ATOM     16  H   UNL     1      31.967 -20.602 -20.835  0.00  0.00    +0.142 HD
ENDBRANCH   4  14
BRANCH   1  17
ATOM     17  N   UNL     1      36.055 -18.327 -22.450  0.00  0.00    -0.329 N 
ATOM     18  H   UNL     1      36.781 -17.695 -22.244  0.00  0.00    +0.147 HD
BRANCH  17  19
ATOM     19  C   UNL     1      35.421 -18.242 -23.748  0.00  0.00    +0.114 C 
BRANCH  19  21
ATOM     20  F   UNL     1      33.051 -13.202 -24.503  0.00  0.00    -0.204 F 
ATOM     21  C   UNL     1      34.792 -16.905 -23.948  0.00  0.00    -0.002 C 
ATOM     22  C   UNL     1      34.856 -15.946 -22.938  0.00  0.00    -0.000 C 
ATOM     23  C   UNL     1      34.139 -16.613 -25.146  0.00  0.00    -0.000 C 
ATOM     24  C   UNL     1      34.267 -14.696 -23.124  0.00  0.00    +0.029 C 
ATOM     25  C   UNL     1      33.551 -15.363 -25.333  0.00  0.00    +0.029 C 
ATOM     26  C   UNL     1      33.614 -14.404 -24.322  0.00  0.00    +0.140 C 
ENDBRANCH  19  21
ENDBRANCH  17  19
ENDBRANCH   1  17
TORSDOF 7
ENDMDL
