MODEL 1
REMARK VINA RESULT:      -5.9      0.000      0.000
REMARK  Name = 6920201
REMARK  1 active torsions:
REMARK  status: ('A' for Active; 'I' for Inactive)
REMARK    1  A    between atoms: C_4  and  C_12
REMARK                            x       y       z     vdW  Elec       q    Type
REMARK                         _______ _______ _______ _____ _____    ______ ____
ROOT
ATOM      1  S   UNK     1      37.154 -24.496 -12.935  0.00  0.00    -0.163 S 
ATOM      2  N   UNK     1      38.083 -25.179 -15.317  0.00  0.00    +0.401 N 
ATOM      3  C   UNK     1      36.894 -24.462 -14.739  0.00  0.00    -0.003 C 
ATOM      4  C   UNK     1      39.280 -25.019 -14.426  0.00  0.00    +0.056 C 
ATOM      5  C   UNK     1      38.778 -25.288 -13.021  0.00  0.00    +0.045 C 
ATOM      6  C   UNK     1      36.876 -23.024 -15.254  0.00  0.00    -0.011 C 
ATOM      7  C   UNK     1      35.630 -25.221 -15.124  0.00  0.00    -0.011 C 
ATOM      8  H   UNK     1      38.295 -24.790 -16.236  0.00  0.00    -0.082 HD
ATOM      9  H   UNK     1      37.863 -26.171 -15.396  0.00  0.00    -0.082 HD
ENDROOT
BRANCH   4  12
ATOM     10  O   UNK     1      40.919 -26.545 -13.724  0.00  0.00    -0.248 OA
ATOM     11  O   UNK     1      40.669 -26.116 -15.958  0.00  0.00    -0.248 OA
ATOM     12  C   UNK     1      40.399 -25.988 -14.731  0.00  0.00    +0.346 C 
ENDBRANCH   4  12
TORSDOF 1
ENDMDL
MODEL 2
REMARK VINA RESULT:      -5.7      2.510      2.961
REMARK  Name = 6920201
REMARK  1 active torsions:
REMARK  status: ('A' for Active; 'I' for Inactive)
REMARK    1  A    between atoms: C_4  and  C_12
REMARK                            x       y       z     vdW  Elec       q    Type
REMARK                         _______ _______ _______ _____ _____    ______ ____
ROOT
ATOM      1  S   UNK     1      35.550 -24.099 -12.760  0.00  0.00    -0.163 S 
ATOM      2  N   UNK     1      35.144 -25.346 -15.058  0.00  0.00    +0.401 N 
ATOM      3  C   UNK     1      34.544 -24.211 -14.275  0.00  0.00    -0.003 C 
ATOM      4  C   UNK     1      36.609 -25.476 -14.759  0.00  0.00    +0.056 C 
ATOM      5  C   UNK     1      36.725 -25.385 -13.251  0.00  0.00    +0.045 C 
ATOM      6  C   UNK     1      34.654 -22.924 -15.092  0.00  0.00    -0.011 C 
ATOM      7  C   UNK     1      33.096 -24.554 -13.947  0.00  0.00    -0.011 C 
ATOM      8  H   UNK     1      35.020 -25.168 -16.055  0.00  0.00    -0.082 HD
ATOM      9  H   UNK     1      34.676 -26.212 -14.794  0.00  0.00    -0.082 HD
ENDROOT
BRANCH   4  12
ATOM     10  O   UNK     1      36.643 -27.325 -16.204  0.00  0.00    -0.248 OA
ATOM     11  O   UNK     1      38.195 -27.182 -14.528  0.00  0.00    -0.248 OA
ATOM     12  C   UNK     1      37.206 -26.789 -15.209  0.00  0.00    +0.346 C 
ENDBRANCH   4  12
TORSDOF 1
ENDMDL
MODEL 3
REMARK VINA RESULT:      -5.6      2.602      2.991
REMARK  Name = 6920201
REMARK  1 active torsions:
REMARK  status: ('A' for Active; 'I' for Inactive)
REMARK    1  A    between atoms: C_4  and  C_12
REMARK                            x       y       z     vdW  Elec       q    Type
REMARK                         _______ _______ _______ _____ _____    ______ ____
ROOT
ATOM      1  S   UNK     1      36.951 -23.245 -13.400  0.00  0.00    -0.163 S 
ATOM      2  N   UNK     1      35.976 -25.705 -13.390  0.00  0.00    +0.401 N 
ATOM      3  C   UNK     1      35.669 -24.372 -12.764  0.00  0.00    -0.003 C 
ATOM      4  C   UNK     1      36.645 -25.520 -14.720  0.00  0.00    +0.056 C 
ATOM      5  C   UNK     1      37.713 -24.468 -14.495  0.00  0.00    +0.045 C 
ATOM      6  C   UNK     1      34.281 -23.916 -13.211  0.00  0.00    -0.011 C 
ATOM      7  C   UNK     1      35.762 -24.509 -11.249  0.00  0.00    -0.011 C 
ATOM      8  H   UNK     1      35.107 -26.222 -13.521  0.00  0.00    -0.082 HD
ATOM      9  H   UNK     1      36.604 -26.220 -12.775  0.00  0.00    -0.082 HD
ENDROOT
BRANCH   4  12
ATOM     10  O   UNK     1      38.374 -27.106 -14.656  0.00  0.00    -0.248 OA
ATOM     11  O   UNK     1      36.708 -27.325 -16.210  0.00  0.00    -0.248 OA
ATOM     12  C   UNK     1      37.309 -26.773 -15.245  0.00  0.00    +0.346 C 
ENDBRANCH   4  12
TORSDOF 1
ENDMDL
MODEL 4
REMARK VINA RESULT:      -5.6      3.643      4.310
REMARK  Name = 6920201
REMARK  1 active torsions:
REMARK  status: ('A' for Active; 'I' for Inactive)
REMARK    1  A    between atoms: C_4  and  C_12
REMARK                            x       y       z     vdW  Elec       q    Type
REMARK                         _______ _______ _______ _____ _____    ______ ____
ROOT
ATOM      1  S   UNK     1      36.753 -25.283 -14.884  0.00  0.00    -0.163 S 
ATOM      2  N   UNK     1      35.882 -23.269 -13.406  0.00  0.00    +0.401 N 
ATOM      3  C   UNK     1      35.995 -23.627 -14.863  0.00  0.00    -0.003 C 
ATOM      4  C   UNK     1      35.726 -24.505 -12.570  0.00  0.00    +0.056 C 
ATOM      5  C   UNK     1      36.769 -25.478 -13.086  0.00  0.00    +0.045 C 
ATOM      6  C   UNK     1      34.597 -23.665 -15.479  0.00  0.00    -0.011 C 
ATOM      7  C   UNK     1      36.892 -22.604 -15.550  0.00  0.00    -0.011 C 
ATOM      8  H   UNK     1      35.069 -22.668 -13.270  0.00  0.00    -0.082 HD
ATOM      9  H   UNK     1      36.732 -22.784 -13.120  0.00  0.00    -0.082 HD
ENDROOT
BRANCH   4  12
ATOM     10  O   UNK     1      36.852 -23.418 -10.822  0.00  0.00    -0.248 OA
ATOM     11  O   UNK     1      35.254 -24.978 -10.327  0.00  0.00    -0.248 OA
ATOM     12  C   UNK     1      35.969 -24.277 -11.096  0.00  0.00    +0.346 C 
ENDBRANCH   4  12
TORSDOF 1
ENDMDL
MODEL 5
REMARK VINA RESULT:      -5.6      1.954      2.462
REMARK  Name = 6920201
REMARK  1 active torsions:
REMARK  status: ('A' for Active; 'I' for Inactive)
REMARK    1  A    between atoms: C_4  and  C_12
REMARK                            x       y       z     vdW  Elec       q    Type
REMARK                         _______ _______ _______ _____ _____    ______ ____
ROOT
ATOM      1  S   UNK     1      36.853 -23.560 -14.351  0.00  0.00    -0.163 S 
ATOM      2  N   UNK     1      38.636 -24.708 -12.769  0.00  0.00    +0.401 N 
ATOM      3  C   UNK     1      37.282 -24.063 -12.653  0.00  0.00    -0.003 C 
ATOM      4  C   UNK     1      38.810 -25.330 -14.123  0.00  0.00    +0.056 C 
ATOM      5  C   UNK     1      38.323 -24.290 -15.113  0.00  0.00    +0.045 C 
ATOM      6  C   UNK     1      36.281 -25.089 -12.126  0.00  0.00    -0.011 C 
ATOM      7  C   UNK     1      37.394 -22.851 -11.735  0.00  0.00    -0.011 C 
ATOM      8  H   UNK     1      38.726 -25.430 -12.055  0.00  0.00    -0.082 HD
ATOM      9  H   UNK     1      39.353 -23.994 -12.641  0.00  0.00    -0.082 HD
ENDROOT
BRANCH   4  12
ATOM     10  O   UNK     1      40.486 -26.906 -14.582  0.00  0.00    -0.248 OA
ATOM     11  O   UNK     1      41.016 -24.681 -14.561  0.00  0.00    -0.248 OA
ATOM     12  C   UNK     1      40.244 -25.674 -14.454  0.00  0.00    +0.346 C 
ENDBRANCH   4  12
TORSDOF 1
ENDMDL
MODEL 6
REMARK VINA RESULT:      -5.5      8.702      9.915
REMARK  Name = 6920201
REMARK  1 active torsions:
REMARK  status: ('A' for Active; 'I' for Inactive)
REMARK    1  A    between atoms: C_4  and  C_12
REMARK                            x       y       z     vdW  Elec       q    Type
REMARK                         _______ _______ _______ _____ _____    ______ ____
ROOT
ATOM      1  S   UNK     1      30.450 -25.057 -14.806  0.00  0.00    -0.163 S 
ATOM      2  N   UNK     1      30.127 -22.604 -15.743  0.00  0.00    +0.401 N 
ATOM      3  C   UNK     1      31.224 -23.444 -15.148  0.00  0.00    -0.003 C 
ATOM      4  C   UNK     1      29.136 -23.467 -16.466  0.00  0.00    +0.056 C 
ATOM      5  C   UNK     1      28.850 -24.627 -15.533  0.00  0.00    +0.045 C 
ATOM      6  C   UNK     1      32.351 -23.593 -16.169  0.00  0.00    -0.011 C 
ATOM      7  C   UNK     1      31.705 -22.783 -13.862  0.00  0.00    -0.011 C 
ATOM      8  H   UNK     1      30.533 -21.938 -16.399  0.00  0.00    -0.082 HD
ATOM      9  H   UNK     1      29.646 -22.111 -14.991  0.00  0.00    -0.082 HD
ENDROOT
BRANCH   4  12
ATOM     10  O   UNK     1      27.450 -21.933 -15.909  0.00  0.00    -0.248 OA
ATOM     11  O   UNK     1      27.294 -23.109 -17.866  0.00  0.00    -0.248 OA
ATOM     12  C   UNK     1      27.833 -22.767 -16.776  0.00  0.00    +0.346 C 
ENDBRANCH   4  12
TORSDOF 1
ENDMDL
MODEL 7
REMARK VINA RESULT:      -5.4      3.637      4.322
REMARK  Name = 6920201
REMARK  1 active torsions:
REMARK  status: ('A' for Active; 'I' for Inactive)
REMARK    1  A    between atoms: C_4  and  C_12
REMARK                            x       y       z     vdW  Elec       q    Type
REMARK                         _______ _______ _______ _____ _____    ______ ____
ROOT
ATOM      1  S   UNK     1      35.024 -24.588 -14.848  0.00  0.00    -0.163 S 
ATOM      2  N   UNK     1      36.971 -25.139 -13.144  0.00  0.00    +0.401 N 
ATOM      3  C   UNK     1      36.756 -25.109 -14.632  0.00  0.00    -0.003 C 
ATOM      4  C   UNK     1      36.083 -24.140 -12.462  0.00  0.00    +0.056 C 
ATOM      5  C   UNK     1      34.713 -24.324 -13.085  0.00  0.00    +0.045 C 
ATOM      6  C   UNK     1      37.707 -24.088 -15.256  0.00  0.00    -0.011 C 
ATOM      7  C   UNK     1      36.981 -26.510 -15.188  0.00  0.00    -0.011 C 
ATOM      8  H   UNK     1      37.945 -24.914 -12.941  0.00  0.00    -0.082 HD
ATOM      9  H   UNK     1      36.745 -26.071 -12.798  0.00  0.00    -0.082 HD
ENDROOT
BRANCH   4  12
ATOM     10  O   UNK     1      36.716 -23.624 -10.263  0.00  0.00    -0.248 OA
ATOM     11  O   UNK     1      35.127 -25.229 -10.624  0.00  0.00    -0.248 OA
ATOM     12  C   UNK     1      35.965 -24.350 -10.970  0.00  0.00    +0.346 C 
ENDBRANCH   4  12
TORSDOF 1
ENDMDL
MODEL 8
REMARK VINA RESULT:      -5.4     11.316     12.675
REMARK  Name = 6920201
REMARK  1 active torsions:
REMARK  status: ('A' for Active; 'I' for Inactive)
REMARK    1  A    between atoms: C_4  and  C_12
REMARK                            x       y       z     vdW  Elec       q    Type
REMARK                         _______ _______ _______ _____ _____    ______ ____
ROOT
ATOM      1  S   UNK     1      34.990 -19.027 -23.639  0.00  0.00    -0.163 S 
ATOM      2  N   UNK     1      34.463 -17.154 -21.846  0.00  0.00    +0.401 N 
ATOM      3  C   UNK     1      34.865 -18.603 -21.871  0.00  0.00    -0.003 C 
ATOM      4  C   UNK     1      34.978 -16.442 -23.062  0.00  0.00    +0.056 C 
ATOM      5  C   UNK     1      34.655 -17.351 -24.232  0.00  0.00    +0.045 C 
ATOM      6  C   UNK     1      36.220 -18.759 -21.183  0.00  0.00    -0.011 C 
ATOM      7  C   UNK     1      33.780 -19.425 -21.186  0.00  0.00    -0.011 C 
ATOM      8  H   UNK     1      34.848 -16.713 -21.011  0.00  0.00    -0.082 HD
ATOM      9  H   UNK     1      33.445 -17.096 -21.838  0.00  0.00    -0.082 HD
ENDROOT
BRANCH   4  12
ATOM     10  O   UNK     1      33.627 -15.019 -24.349  0.00  0.00    -0.248 OA
ATOM     11  O   UNK     1      34.569 -14.229 -22.419  0.00  0.00    -0.248 OA
ATOM     12  C   UNK     1      34.327 -15.100 -23.302  0.00  0.00    +0.346 C 
ENDBRANCH   4  12
TORSDOF 1
ENDMDL
MODEL 9
REMARK VINA RESULT:      -5.3     12.837     13.460
REMARK  Name = 6920201
REMARK  1 active torsions:
REMARK  status: ('A' for Active; 'I' for Inactive)
REMARK    1  A    between atoms: C_4  and  C_12
REMARK                            x       y       z     vdW  Elec       q    Type
REMARK                         _______ _______ _______ _____ _____    ______ ____
ROOT
ATOM      1  S   UNK     1      34.560 -17.427 -21.404  0.00  0.00    -0.163 S 
ATOM      2  N   UNK     1      33.489 -15.492 -22.856  0.00  0.00    +0.401 N 
ATOM      3  C   UNK     1      33.715 -15.813 -21.404  0.00  0.00    -0.003 C 
ATOM      4  C   UNK     1      34.554 -16.119 -23.706  0.00  0.00    +0.056 C 
ATOM      5  C   UNK     1      34.688 -17.543 -23.205  0.00  0.00    +0.045 C 
ATOM      6  C   UNK     1      34.608 -14.738 -20.785  0.00  0.00    -0.011 C 
ATOM      7  C   UNK     1      32.364 -15.902 -20.705  0.00  0.00    -0.011 C 
ATOM      8  H   UNK     1      33.511 -14.480 -22.983  0.00  0.00    -0.082 HD
ATOM      9  H   UNK     1      32.582 -15.863 -23.137  0.00  0.00    -0.082 HD
ENDROOT
BRANCH   4  12
ATOM     10  O   UNK     1      34.854 -17.005 -25.858  0.00  0.00    -0.248 OA
ATOM     11  O   UNK     1      33.325 -15.333 -25.537  0.00  0.00    -0.248 OA
ATOM     12  C   UNK     1      34.212 -16.157 -25.178  0.00  0.00    +0.346 C 
ENDBRANCH   4  12
TORSDOF 1
ENDMDL
