MODEL 1
REMARK VINA RESULT:     -11.0      0.000      0.000
REMARK  Name = 216456
REMARK  3 active torsions:
REMARK  status: ('A' for Active; 'I' for Inactive)
REMARK    1  A    between atoms: C_5  and  C_11
REMARK    2  A    between atoms: C_6  and  C_17
REMARK    3  A    between atoms: C_17  and  C_19
REMARK                            x       y       z     vdW  Elec       q    Type
REMARK                         _______ _______ _______ _____ _____    ______ ____
ROOT
ATOM      1  N   UNL     1      34.151 -15.222 -22.666  0.00  0.00    -0.191 N 
ATOM      2  N   UNL     1      34.323 -14.951 -21.342  0.00  0.00    -0.179 NA
ATOM      3  N   UNL     1      34.551 -17.001 -24.243  0.00  0.00    -0.231 NA
ATOM      4  C   UNL     1      34.609 -16.506 -22.975  0.00  0.00    +0.141 C 
ATOM      5  C   UNL     1      33.611 -14.384 -23.657  0.00  0.00    +0.143 C 
ATOM      6  C   UNL     1      35.070 -17.052 -21.800  0.00  0.00    +0.162 C 
ATOM      7  C   UNL     1      34.869 -16.055 -20.837  0.00  0.00    +0.106 C 
ATOM      8  C   UNL     1      33.535 -14.834 -24.920  0.00  0.00    +0.020 C 
ATOM      9  C   UNL     1      34.049 -16.209 -25.138  0.00  0.00    +0.097 C 
ENDROOT
BRANCH   5  11
ATOM     10  N   UNL     1      32.166 -10.470 -22.749  0.00  0.00    -0.242 NA
ATOM     11  C   UNL     1      33.113 -13.033 -23.343  0.00  0.00    +0.005 C 
ATOM     12  C   UNL     1      32.075 -12.865 -22.433  0.00  0.00    +0.018 C 
ATOM     13  C   UNL     1      33.678 -11.920 -23.956  0.00  0.00    +0.018 C 
ATOM     14  C   UNL     1      31.642 -11.575 -22.171  0.00  0.00    +0.099 C 
ATOM     15  C   UNL     1      33.173 -10.672 -23.629  0.00  0.00    +0.099 C 
ENDBRANCH   5  11
BRANCH   6  17
ATOM     16  O   UNL     1      36.751 -18.687 -22.072  0.00  0.00    -0.289 OA
ATOM     17  C   UNL     1      35.629 -18.361 -21.640  0.00  0.00    +0.203 C 
BRANCH  17  19
ATOM     18  N   UNL     1      35.665 -20.253 -20.204  0.00  0.00    -0.241 NA
ATOM     19  C   UNL     1      34.885 -19.437 -20.914  0.00  0.00    +0.117 C 
ATOM     20  C   UNL     1      33.527 -19.490 -21.034  0.00  0.00    +0.022 C 
ATOM     21  C   UNL     1      32.885 -20.508 -20.339  0.00  0.00    +0.003 C 
ATOM     22  C   UNL     1      35.007 -21.231 -19.542  0.00  0.00    +0.099 C 
ATOM     23  C   UNL     1      33.632 -21.399 -19.576  0.00  0.00    +0.021 C 
ENDBRANCH  17  19
ENDBRANCH   6  17
TORSDOF 3
ENDMDL
MODEL 2
REMARK VINA RESULT:     -10.9      1.733      2.737
REMARK  Name = 216456
REMARK  3 active torsions:
REMARK  status: ('A' for Active; 'I' for Inactive)
REMARK    1  A    between atoms: C_5  and  C_11
REMARK    2  A    between atoms: C_6  and  C_17
REMARK    3  A    between atoms: C_17  and  C_19
REMARK                            x       y       z     vdW  Elec       q    Type
REMARK                         _______ _______ _______ _____ _____    ______ ____
ROOT
ATOM      1  N   UNL     1      34.759 -16.420 -22.879  0.00  0.00    -0.191 N 
ATOM      2  N   UNL     1      34.998 -17.250 -23.932  0.00  0.00    -0.179 NA
ATOM      3  N   UNL     1      34.963 -16.396 -20.476  0.00  0.00    -0.231 NA
ATOM      4  C   UNL     1      35.119 -17.030 -21.673  0.00  0.00    +0.141 C 
ATOM      5  C   UNL     1      34.218 -15.124 -22.905  0.00  0.00    +0.143 C 
ATOM      6  C   UNL     1      35.607 -18.275 -21.993  0.00  0.00    +0.162 C 
ATOM      7  C   UNL     1      35.508 -18.353 -23.387  0.00  0.00    +0.106 C 
ATOM      8  C   UNL     1      34.048 -14.464 -21.747  0.00  0.00    +0.020 C 
ATOM      9  C   UNL     1      34.462 -15.202 -20.528  0.00  0.00    +0.097 C 
ENDROOT
BRANCH   5  11
ATOM     10  N   UNL     1      33.139 -13.213 -26.568  0.00  0.00    -0.242 NA
ATOM     11  C   UNL     1      33.846 -14.464 -24.170  0.00  0.00    +0.005 C 
ATOM     12  C   UNL     1      33.904 -13.079 -24.279  0.00  0.00    +0.018 C 
ATOM     13  C   UNL     1      33.434 -15.224 -25.260  0.00  0.00    +0.018 C 
ATOM     14  C   UNL     1      33.545 -12.507 -25.488  0.00  0.00    +0.099 C 
ATOM     15  C   UNL     1      33.094 -14.557 -26.425  0.00  0.00    +0.099 C 
ENDBRANCH   5  11
BRANCH   6  17
ATOM     16  O   UNL     1      37.297 -19.354 -20.745  0.00  0.00    -0.289 OA
ATOM     17  C   UNL     1      36.098 -19.251 -21.067  0.00  0.00    +0.203 C 
BRANCH  17  19
ATOM     18  N   UNL     1      35.793 -21.173 -19.704  0.00  0.00    -0.241 NA
ATOM     19  C   UNL     1      35.172 -20.222 -20.403  0.00  0.00    +0.117 C 
ATOM     20  C   UNL     1      33.827 -20.058 -20.562  0.00  0.00    +0.022 C 
ATOM     21  C   UNL     1      33.013 -20.986 -19.924  0.00  0.00    +0.003 C 
ATOM     22  C   UNL     1      34.969 -22.058 -19.098  0.00  0.00    +0.099 C 
ATOM     23  C   UNL     1      33.587 -22.008 -19.176  0.00  0.00    +0.021 C 
ENDBRANCH  17  19
ENDBRANCH   6  17
TORSDOF 3
ENDMDL
MODEL 3
REMARK VINA RESULT:     -10.9      2.809      5.561
REMARK  Name = 216456
REMARK  3 active torsions:
REMARK  status: ('A' for Active; 'I' for Inactive)
REMARK    1  A    between atoms: C_5  and  C_11
REMARK    2  A    between atoms: C_6  and  C_17
REMARK    3  A    between atoms: C_17  and  C_19
REMARK                            x       y       z     vdW  Elec       q    Type
REMARK                         _______ _______ _______ _____ _____    ______ ____
ROOT
ATOM      1  N   UNL     1      34.575 -19.677 -20.613  0.00  0.00    -0.191 N 
ATOM      2  N   UNL     1      33.220 -19.577 -20.707  0.00  0.00    -0.179 NA
ATOM      3  N   UNL     1      36.252 -21.194 -19.776  0.00  0.00    -0.231 NA
ATOM      4  C   UNL     1      34.945 -20.874 -19.991  0.00  0.00    +0.141 C 
ATOM      5  C   UNL     1      35.542 -18.751 -21.042  0.00  0.00    +0.143 C 
ATOM      6  C   UNL     1      33.778 -21.541 -19.700  0.00  0.00    +0.162 C 
ATOM      7  C   UNL     1      32.758 -20.700 -20.161  0.00  0.00    +0.106 C 
ATOM      8  C   UNL     1      36.842 -19.030 -20.849  0.00  0.00    +0.020 C 
ATOM      9  C   UNL     1      37.123 -20.324 -20.180  0.00  0.00    +0.097 C 
ENDROOT
BRANCH   5  11
ATOM     10  N   UNL     1      34.459 -15.104 -22.980  0.00  0.00    -0.242 NA
ATOM     11  C   UNL     1      35.168 -17.493 -21.711  0.00  0.00    +0.005 C 
ATOM     12  C   UNL     1      35.195 -17.404 -23.099  0.00  0.00    +0.018 C 
ATOM     13  C   UNL     1      34.787 -16.387 -20.957  0.00  0.00    +0.018 C 
ATOM     14  C   UNL     1      34.834 -16.199 -23.679  0.00  0.00    +0.099 C 
ATOM     15  C   UNL     1      34.445 -15.227 -21.633  0.00  0.00    +0.099 C 
ENDBRANCH   5  11
BRANCH   6  17
ATOM     16  O   UNL     1      34.017 -23.888 -19.598  0.00  0.00    -0.289 OA
ATOM     17  C   UNL     1      33.675 -22.818 -19.060  0.00  0.00    +0.203 C 
BRANCH  17  19
ATOM     18  N   UNL     1      31.829 -22.794 -17.565  0.00  0.00    -0.241 NA
ATOM     19  C   UNL     1      33.150 -22.943 -17.663  0.00  0.00    +0.117 C 
ATOM     20  C   UNL     1      34.032 -23.190 -16.652  0.00  0.00    +0.022 C 
ATOM     21  C   UNL     1      33.492 -23.298 -15.376  0.00  0.00    +0.003 C 
ATOM     22  C   UNL     1      31.340 -22.905 -16.309  0.00  0.00    +0.099 C 
ATOM     23  C   UNL     1      32.121 -23.154 -15.192  0.00  0.00    +0.021 C 
ENDBRANCH  17  19
ENDBRANCH   6  17
TORSDOF 3
ENDMDL
MODEL 4
REMARK VINA RESULT:     -10.8      2.815      5.493
REMARK  Name = 216456
REMARK  3 active torsions:
REMARK  status: ('A' for Active; 'I' for Inactive)
REMARK    1  A    between atoms: C_5  and  C_11
REMARK    2  A    between atoms: C_6  and  C_17
REMARK    3  A    between atoms: C_17  and  C_19
REMARK                            x       y       z     vdW  Elec       q    Type
REMARK                         _______ _______ _______ _____ _____    ______ ____
ROOT
ATOM      1  N   UNL     1      34.581 -19.755 -20.626  0.00  0.00    -0.191 N 
ATOM      2  N   UNL     1      33.222 -19.698 -20.689  0.00  0.00    -0.179 NA
ATOM      3  N   UNL     1      36.323 -21.220 -19.829  0.00  0.00    -0.231 NA
ATOM      4  C   UNL     1      35.003 -20.941 -20.015  0.00  0.00    +0.141 C 
ATOM      5  C   UNL     1      35.508 -18.798 -21.074  0.00  0.00    +0.143 C 
ATOM      6  C   UNL     1      33.864 -21.645 -19.699  0.00  0.00    +0.162 C 
ATOM      7  C   UNL     1      32.808 -20.836 -20.135  0.00  0.00    +0.106 C 
ATOM      8  C   UNL     1      36.821 -19.036 -20.910  0.00  0.00    +0.020 C 
ATOM      9  C   UNL     1      37.158 -20.322 -20.250  0.00  0.00    +0.097 C 
ENDROOT
BRANCH   5  11
ATOM     10  N   UNL     1      34.267 -15.184 -22.978  0.00  0.00    -0.242 NA
ATOM     11  C   UNL     1      35.079 -17.551 -21.731  0.00  0.00    +0.005 C 
ATOM     12  C   UNL     1      34.979 -17.490 -23.116  0.00  0.00    +0.018 C 
ATOM     13  C   UNL     1      34.774 -16.429 -20.968  0.00  0.00    +0.018 C 
ATOM     14  C   UNL     1      34.571 -16.295 -23.686  0.00  0.00    +0.099 C 
ATOM     15  C   UNL     1      34.378 -15.280 -21.633  0.00  0.00    +0.099 C 
ENDBRANCH   5  11
BRANCH   6  17
ATOM     16  O   UNL     1      33.960 -24.004 -19.667  0.00  0.00    -0.289 OA
ATOM     17  C   UNL     1      33.816 -22.926 -19.060  0.00  0.00    +0.203 C 
BRANCH  17  19
ATOM     18  N   UNL     1      34.723 -23.143 -16.875  0.00  0.00    -0.241 NA
ATOM     19  C   UNL     1      33.598 -23.046 -17.584  0.00  0.00    +0.117 C 
ATOM     20  C   UNL     1      32.319 -23.047 -17.109  0.00  0.00    +0.022 C 
ATOM     21  C   UNL     1      32.173 -23.161 -15.732  0.00  0.00    +0.003 C 
ATOM     22  C   UNL     1      34.542 -23.253 -15.540  0.00  0.00    +0.099 C 
ATOM     23  C   UNL     1      33.301 -23.266 -14.925  0.00  0.00    +0.021 C 
ENDBRANCH  17  19
ENDBRANCH   6  17
TORSDOF 3
ENDMDL
MODEL 5
REMARK VINA RESULT:     -10.3      1.882      7.262
REMARK  Name = 216456
REMARK  3 active torsions:
REMARK  status: ('A' for Active; 'I' for Inactive)
REMARK    1  A    between atoms: C_5  and  C_11
REMARK    2  A    between atoms: C_6  and  C_17
REMARK    3  A    between atoms: C_17  and  C_19
REMARK                            x       y       z     vdW  Elec       q    Type
REMARK                         _______ _______ _______ _____ _____    ______ ____
ROOT
ATOM      1  N   UNL     1      34.554 -16.516 -22.581  0.00  0.00    -0.191 N 
ATOM      2  N   UNL     1      34.565 -15.892 -21.370  0.00  0.00    -0.179 NA
ATOM      3  N   UNL     1      34.124 -16.016 -24.900  0.00  0.00    -0.231 NA
ATOM      4  C   UNL     1      34.211 -15.621 -23.599  0.00  0.00    +0.141 C 
ATOM      5  C   UNL     1      34.825 -17.867 -22.860  0.00  0.00    +0.143 C 
ATOM      6  C   UNL     1      34.012 -14.401 -22.998  0.00  0.00    +0.162 C 
ATOM      7  C   UNL     1      34.244 -14.628 -21.636  0.00  0.00    +0.106 C 
ATOM      8  C   UNL     1      34.751 -18.297 -24.131  0.00  0.00    +0.020 C 
ATOM      9  C   UNL     1      34.378 -17.266 -25.131  0.00  0.00    +0.097 C 
ENDROOT
BRANCH   5  11
ATOM     10  N   UNL     1      35.916 -20.623 -19.788  0.00  0.00    -0.242 NA
ATOM     11  C   UNL     1      35.201 -18.818 -21.799  0.00  0.00    +0.005 C 
ATOM     12  C   UNL     1      36.516 -18.879 -21.350  0.00  0.00    +0.018 C 
ATOM     13  C   UNL     1      34.244 -19.660 -21.244  0.00  0.00    +0.018 C 
ATOM     14  C   UNL     1      36.819 -19.789 -20.351  0.00  0.00    +0.099 C 
ATOM     15  C   UNL     1      34.648 -20.537 -20.251  0.00  0.00    +0.099 C 
ENDBRANCH   5  11
BRANCH   6  17
ATOM     16  O   UNL     1      33.966 -12.916 -24.834  0.00  0.00    -0.289 OA
ATOM     17  C   UNL     1      33.647 -13.184 -23.660  0.00  0.00    +0.203 C 
BRANCH  17  19
ATOM     18  N   UNL     1      33.066 -10.898 -23.379  0.00  0.00    -0.241 NA
ATOM     19  C   UNL     1      32.825 -12.143 -22.967  0.00  0.00    +0.117 C 
ATOM     20  C   UNL     1      31.935 -12.539 -22.012  0.00  0.00    +0.022 C 
ATOM     21  C   UNL     1      31.197 -11.532 -21.400  0.00  0.00    +0.003 C 
ATOM     22  C   UNL     1      32.331  -9.946 -22.762  0.00  0.00    +0.099 C 
ATOM     23  C   UNL     1      31.393 -10.208 -21.776  0.00  0.00    +0.021 C 
ENDBRANCH  17  19
ENDBRANCH   6  17
TORSDOF 3
ENDMDL
MODEL 6
REMARK VINA RESULT:      -9.7      2.834      5.326
REMARK  Name = 216456
REMARK  3 active torsions:
REMARK  status: ('A' for Active; 'I' for Inactive)
REMARK    1  A    between atoms: C_5  and  C_11
REMARK    2  A    between atoms: C_6  and  C_17
REMARK    3  A    between atoms: C_17  and  C_19
REMARK                            x       y       z     vdW  Elec       q    Type
REMARK                         _______ _______ _______ _____ _____    ______ ____
ROOT
ATOM      1  N   UNL     1      32.861 -10.438 -23.077  0.00  0.00    -0.191 N 
ATOM      2  N   UNL     1      31.872 -10.933 -22.283  0.00  0.00    -0.179 NA
ATOM      3  N   UNL     1      34.569 -11.224 -24.588  0.00  0.00    -0.231 NA
ATOM      4  C   UNL     1      33.530 -11.471 -23.741  0.00  0.00    +0.141 C 
ATOM      5  C   UNL     1      33.237  -9.096 -23.257  0.00  0.00    +0.143 C 
ATOM      6  C   UNL     1      32.926 -12.643 -23.351  0.00  0.00    +0.162 C 
ATOM      7  C   UNL     1      31.920 -12.251 -22.460  0.00  0.00    +0.106 C 
ATOM      8  C   UNL     1      34.256  -8.808 -24.084  0.00  0.00    +0.020 C 
ATOM      9  C   UNL     1      34.896  -9.978 -24.736  0.00  0.00    +0.097 C 
ENDROOT
BRANCH   5  11
ATOM     10  N   UNL     1      31.195  -5.911 -21.278  0.00  0.00    -0.242 NA
ATOM     11  C   UNL     1      32.532  -7.996 -22.574  0.00  0.00    +0.005 C 
ATOM     12  C   UNL     1      32.848  -7.674 -21.258  0.00  0.00    +0.018 C 
ATOM     13  C   UNL     1      31.548  -7.275 -23.242  0.00  0.00    +0.018 C 
ATOM     14  C   UNL     1      32.158  -6.632 -20.661  0.00  0.00    +0.099 C 
ATOM     15  C   UNL     1      30.914  -6.252 -22.556  0.00  0.00    +0.099 C 
ENDBRANCH   5  11
BRANCH   6  17
ATOM     16  O   UNL     1      33.144 -14.361 -24.958  0.00  0.00    -0.289 OA
ATOM     17  C   UNL     1      33.283 -13.961 -23.786  0.00  0.00    +0.203 C 
BRANCH  17  19
ATOM     18  N   UNL     1      34.207 -16.116 -23.403  0.00  0.00    -0.241 NA
ATOM     19  C   UNL     1      33.874 -14.956 -22.836  0.00  0.00    +0.117 C 
ATOM     20  C   UNL     1      34.016 -14.605 -21.525  0.00  0.00    +0.022 C 
ATOM     21  C   UNL     1      34.570 -15.565 -20.687  0.00  0.00    +0.003 C 
ATOM     22  C   UNL     1      34.742 -17.025 -22.557  0.00  0.00    +0.099 C 
ATOM     23  C   UNL     1      34.943 -16.801 -21.205  0.00  0.00    +0.021 C 
ENDBRANCH  17  19
ENDBRANCH   6  17
TORSDOF 3
ENDMDL
MODEL 7
REMARK VINA RESULT:      -9.7      2.582      8.508
REMARK  Name = 216456
REMARK  3 active torsions:
REMARK  status: ('A' for Active; 'I' for Inactive)
REMARK    1  A    between atoms: C_5  and  C_11
REMARK    2  A    between atoms: C_6  and  C_17
REMARK    3  A    between atoms: C_17  and  C_19
REMARK                            x       y       z     vdW  Elec       q    Type
REMARK                         _______ _______ _______ _____ _____    ______ ____
ROOT
ATOM      1  N   UNL     1      34.224 -21.102 -19.458  0.00  0.00    -0.191 N 
ATOM      2  N   UNL     1      32.899 -20.876 -19.681  0.00  0.00    -0.179 NA
ATOM      3  N   UNL     1      36.369 -20.520 -20.392  0.00  0.00    -0.231 NA
ATOM      4  C   UNL     1      35.009 -20.437 -20.404  0.00  0.00    +0.141 C 
ATOM      5  C   UNL     1      34.809 -21.889 -18.451  0.00  0.00    +0.143 C 
ATOM      6  C   UNL     1      34.140 -19.768 -21.234  0.00  0.00    +0.162 C 
ATOM      7  C   UNL     1      32.865 -20.074 -20.743  0.00  0.00    +0.106 C 
ATOM      8  C   UNL     1      36.147 -21.998 -18.404  0.00  0.00    +0.020 C 
ATOM      9  C   UNL     1      36.884 -21.252 -19.455  0.00  0.00    +0.097 C 
ENDROOT
BRANCH   5  11
ATOM     10  N   UNL     1      32.449 -23.905 -15.519  0.00  0.00    -0.242 NA
ATOM     11  C   UNL     1      33.995 -22.586 -17.440  0.00  0.00    +0.005 C 
ATOM     12  C   UNL     1      32.624 -22.732 -17.626  0.00  0.00    +0.018 C 
ATOM     13  C   UNL     1      34.593 -23.099 -16.293  0.00  0.00    +0.018 C 
ATOM     14  C   UNL     1      31.903 -23.394 -16.646  0.00  0.00    +0.099 C 
ATOM     15  C   UNL     1      33.783 -23.743 -15.372  0.00  0.00    +0.099 C 
ENDBRANCH   5  11
BRANCH   6  17
ATOM     16  O   UNL     1      34.811 -19.403 -23.469  0.00  0.00    -0.289 OA
ATOM     17  C   UNL     1      34.503 -18.948 -22.351  0.00  0.00    +0.203 C 
BRANCH  17  19
ATOM     18  N   UNL     1      34.496 -16.824 -23.416  0.00  0.00    -0.241 NA
ATOM     19  C   UNL     1      34.521 -17.455 -22.241  0.00  0.00    +0.117 C 
ATOM     20  C   UNL     1      34.559 -16.890 -21.000  0.00  0.00    +0.022 C 
ATOM     21  C   UNL     1      34.573 -15.501 -20.956  0.00  0.00    +0.003 C 
ATOM     22  C   UNL     1      34.511 -15.475 -23.333  0.00  0.00    +0.099 C 
ATOM     23  C   UNL     1      34.549 -14.772 -22.139  0.00  0.00    +0.021 C 
ENDBRANCH  17  19
ENDBRANCH   6  17
TORSDOF 3
ENDMDL
MODEL 8
REMARK VINA RESULT:      -9.7      1.077      1.582
REMARK  Name = 216456
REMARK  3 active torsions:
REMARK  status: ('A' for Active; 'I' for Inactive)
REMARK    1  A    between atoms: C_5  and  C_11
REMARK    2  A    between atoms: C_6  and  C_17
REMARK    3  A    between atoms: C_17  and  C_19
REMARK                            x       y       z     vdW  Elec       q    Type
REMARK                         _______ _______ _______ _____ _____    ______ ____
ROOT
ATOM      1  N   UNL     1      33.600 -14.755 -22.151  0.00  0.00    -0.191 N 
ATOM      2  N   UNL     1      33.889 -14.868 -20.825  0.00  0.00    -0.179 NA
ATOM      3  N   UNL     1      33.898 -15.980 -24.206  0.00  0.00    -0.231 NA
ATOM      4  C   UNL     1      34.063 -15.869 -22.858  0.00  0.00    +0.141 C 
ATOM      5  C   UNL     1      32.944 -13.699 -22.806  0.00  0.00    +0.143 C 
ATOM      6  C   UNL     1      34.649 -16.703 -21.936  0.00  0.00    +0.162 C 
ATOM      7  C   UNL     1      34.512 -16.039 -20.711  0.00  0.00    +0.106 C 
ATOM      8  C   UNL     1      32.760 -13.769 -24.135  0.00  0.00    +0.020 C 
ATOM      9  C   UNL     1      33.291 -14.992 -24.787  0.00  0.00    +0.097 C 
ENDROOT
BRANCH   5  11
ATOM     10  N   UNL     1      31.483 -10.298 -20.677  0.00  0.00    -0.242 NA
ATOM     11  C   UNL     1      32.439 -12.525 -22.071  0.00  0.00    +0.005 C 
ATOM     12  C   UNL     1      32.493 -11.262 -22.650  0.00  0.00    +0.018 C 
ATOM     13  C   UNL     1      31.907 -12.675 -20.795  0.00  0.00    +0.018 C 
ATOM     14  C   UNL     1      32.006 -10.191 -21.920  0.00  0.00    +0.099 C 
ATOM     15  C   UNL     1      31.448 -11.541 -20.146  0.00  0.00    +0.099 C 
ENDBRANCH   5  11
BRANCH   6  17
ATOM     16  O   UNL     1      36.073 -18.155 -23.137  0.00  0.00    -0.289 OA
ATOM     17  C   UNL     1      35.259 -17.969 -22.212  0.00  0.00    +0.203 C 
BRANCH  17  19
ATOM     18  N   UNL     1      36.029 -19.711 -20.792  0.00  0.00    -0.241 NA
ATOM     19  C   UNL     1      34.957 -19.173 -21.375  0.00  0.00    +0.117 C 
ATOM     20  C   UNL     1      33.664 -19.599 -21.283  0.00  0.00    +0.022 C 
ATOM     21  C   UNL     1      33.440 -20.720 -20.492  0.00  0.00    +0.003 C 
ATOM     22  C   UNL     1      35.772 -20.799 -20.032  0.00  0.00    +0.099 C 
ATOM     23  C   UNL     1      34.508 -21.337 -19.851  0.00  0.00    +0.021 C 
ENDBRANCH  17  19
ENDBRANCH   6  17
TORSDOF 3
ENDMDL
MODEL 9
REMARK VINA RESULT:      -9.6      5.062     10.861
REMARK  Name = 216456
REMARK  3 active torsions:
REMARK  status: ('A' for Active; 'I' for Inactive)
REMARK    1  A    between atoms: C_5  and  C_11
REMARK    2  A    between atoms: C_6  and  C_17
REMARK    3  A    between atoms: C_17  and  C_19
REMARK                            x       y       z     vdW  Elec       q    Type
REMARK                         _______ _______ _______ _____ _____    ______ ____
ROOT
ATOM      1  N   UNL     1      35.527 -23.023 -16.152  0.00  0.00    -0.191 N 
ATOM      2  N   UNL     1      36.666 -22.538 -16.719  0.00  0.00    -0.179 NA
ATOM      3  N   UNL     1      33.179 -23.249 -16.651  0.00  0.00    -0.231 NA
ATOM      4  C   UNL     1      34.432 -22.850 -17.005  0.00  0.00    +0.141 C 
ATOM      5  C   UNL     1      35.376 -23.619 -14.888  0.00  0.00    +0.143 C 
ATOM      6  C   UNL     1      34.914 -22.246 -18.143  0.00  0.00    +0.162 C 
ATOM      7  C   UNL     1      36.284 -22.080 -17.910  0.00  0.00    +0.106 C 
ATOM      8  C   UNL     1      34.156 -24.028 -14.501  0.00  0.00    +0.020 C 
ATOM      9  C   UNL     1      33.066 -23.795 -15.481  0.00  0.00    +0.097 C 
ENDROOT
BRANCH   5  11
ATOM     10  N   UNL     1      38.696 -24.204 -12.269  0.00  0.00    -0.242 NA
ATOM     11  C   UNL     1      36.522 -23.821 -13.984  0.00  0.00    +0.005 C 
ATOM     12  C   UNL     1      37.525 -24.724 -14.318  0.00  0.00    +0.018 C 
ATOM     13  C   UNL     1      36.606 -23.109 -12.792  0.00  0.00    +0.018 C 
ATOM     14  C   UNL     1      38.582 -24.878 -13.436  0.00  0.00    +0.099 C 
ATOM     15  C   UNL     1      37.703 -23.335 -11.976  0.00  0.00    +0.099 C 
ENDBRANCH   5  11
BRANCH   6  17
ATOM     16  O   UNL     1      33.177 -22.543 -19.715  0.00  0.00    -0.289 OA
ATOM     17  C   UNL     1      34.144 -21.880 -19.293  0.00  0.00    +0.203 C 
BRANCH  17  19
ATOM     18  N   UNL     1      35.757 -20.380 -20.183  0.00  0.00    -0.241 NA
ATOM     19  C   UNL     1      34.454 -20.638 -20.069  0.00  0.00    +0.117 C 
ATOM     20  C   UNL     1      33.420 -19.905 -20.574  0.00  0.00    +0.022 C 
ATOM     21  C   UNL     1      33.763 -18.762 -21.286  0.00  0.00    +0.003 C 
ATOM     22  C   UNL     1      36.053 -19.261 -20.881  0.00  0.00    +0.099 C 
ATOM     23  C   UNL     1      35.103 -18.427 -21.448  0.00  0.00    +0.021 C 
ENDBRANCH  17  19
ENDBRANCH   6  17
TORSDOF 3
ENDMDL
