MODEL 1
REMARK VINA RESULT:      -6.8      0.000      0.000
REMARK  Name = 1066
REMARK  4 active torsions:
REMARK  status: ('A' for Active; 'I' for Inactive)
REMARK    1  A    between atoms: C_2  and  C_8
REMARK    2  A    between atoms: CA_3  and  C_12
REMARK    3  A    between atoms: C_8  and  O_9
REMARK    4  A    between atoms: C_12  and  O_13
REMARK                            x       y       z     vdW  Elec       q    Type
REMARK                         _______ _______ _______ _____ _____    ______ ____
ROOT
ATOM      1  N   UNL     1      38.501 -23.316 -15.661  0.00  0.00    -0.237 NA
ATOM      2  C   UNL     1      37.429 -25.285 -14.756  0.00  0.00    +0.099 C 
ATOM      3  CA  UNL     1      38.547 -24.560 -15.133  0.00  0.00    +0.163 C 
ATOM      4  C   UNL     1      36.181 -24.695 -14.932  0.00  0.00    +0.010 C 
ATOM      5  C   UNL     1      36.093 -23.417 -15.473  0.00  0.00    +0.021 C 
ATOM      6  C   UNL     1      37.272 -22.776 -15.817  0.00  0.00    +0.099 C 
ENDROOT
BRANCH   2   8
ATOM      7  O   UNL     1      38.104 -27.579 -14.707  0.00  0.00    -0.245 OA
ATOM      8  C   UNL     1      37.520 -26.622 -14.190  0.00  0.00    +0.340 C 
BRANCH   8   9
ATOM      9  O   UNL     1      36.881 -26.724 -12.992  0.00  0.00    -0.477 OA
ATOM     10  H   UNL     1      36.150 -27.300 -12.899  0.00  0.00    +0.295 HD
ENDBRANCH   8   9
ENDBRANCH   2   8
BRANCH   3  12
ATOM     11  OXT UNL     1      40.630 -24.914 -14.010  0.00  0.00    -0.243 OA
ATOM     12  C   UNL     1      39.889 -25.104 -14.979  0.00  0.00    +0.356 C 
BRANCH  12  13
ATOM     13  O   UNL     1      40.264 -25.870 -16.040  0.00  0.00    -0.476 OA
ATOM     14  H   UNL     1      41.146 -25.838 -16.351  0.00  0.00    +0.295 HD
ENDBRANCH  12  13
ENDBRANCH   3  12
TORSDOF 4
ENDMDL
MODEL 2
REMARK VINA RESULT:      -6.5      0.925      3.046
REMARK  Name = 1066
REMARK  4 active torsions:
REMARK  status: ('A' for Active; 'I' for Inactive)
REMARK    1  A    between atoms: C_2  and  C_8
REMARK    2  A    between atoms: CA_3  and  C_12
REMARK    3  A    between atoms: C_8  and  O_9
REMARK    4  A    between atoms: C_12  and  O_13
REMARK                            x       y       z     vdW  Elec       q    Type
REMARK                         _______ _______ _______ _____ _____    ______ ____
ROOT
ATOM      1  N   UNL     1      36.111 -24.843 -14.897  0.00  0.00    -0.237 NA
ATOM      2  C   UNL     1      38.497 -24.556 -15.162  0.00  0.00    +0.099 C 
ATOM      3  CA  UNL     1      37.384 -25.282 -14.771  0.00  0.00    +0.163 C 
ATOM      4  C   UNL     1      38.291 -23.298 -15.719  0.00  0.00    +0.010 C 
ATOM      5  C   UNL     1      36.997 -22.811 -15.864  0.00  0.00    +0.021 C 
ATOM      6  C   UNL     1      35.951 -23.616 -15.442  0.00  0.00    +0.099 C 
ENDROOT
BRANCH   2   8
ATOM      7  O   UNL     1      40.594 -24.845 -14.049  0.00  0.00    -0.245 OA
ATOM      8  C   UNL     1      39.852 -25.064 -15.011  0.00  0.00    +0.340 C 
BRANCH   8   9
ATOM      9  O   UNL     1      40.239 -25.833 -16.065  0.00  0.00    -0.477 OA
ATOM     10  H   UNL     1      39.808 -26.646 -16.235  0.00  0.00    +0.295 HD
ENDBRANCH   8   9
ENDBRANCH   2   8
BRANCH   3  12
ATOM     11  OXT UNL     1      38.121 -27.556 -14.686  0.00  0.00    -0.243 OA
ATOM     12  C   UNL     1      37.512 -26.607 -14.183  0.00  0.00    +0.356 C 
BRANCH  12  13
ATOM     13  O   UNL     1      36.880 -26.706 -12.981  0.00  0.00    -0.476 OA
ATOM     14  H   UNL     1      37.233 -26.273 -12.230  0.00  0.00    +0.295 HD
ENDBRANCH  12  13
ENDBRANCH   3  12
TORSDOF 4
ENDMDL
MODEL 3
REMARK VINA RESULT:      -6.3      2.756      3.721
REMARK  Name = 1066
REMARK  4 active torsions:
REMARK  status: ('A' for Active; 'I' for Inactive)
REMARK    1  A    between atoms: C_2  and  C_8
REMARK    2  A    between atoms: CA_3  and  C_12
REMARK    3  A    between atoms: C_8  and  O_9
REMARK    4  A    between atoms: C_12  and  O_13
REMARK                            x       y       z     vdW  Elec       q    Type
REMARK                         _______ _______ _______ _____ _____    ______ ____
ROOT
ATOM      1  N   UNL     1      36.788 -25.835 -12.189  0.00  0.00    -0.237 NA
ATOM      2  C   UNL     1      37.060 -24.147 -13.897  0.00  0.00    +0.099 C 
ATOM      3  CA  UNL     1      37.012 -25.464 -13.470  0.00  0.00    +0.163 C 
ATOM      4  C   UNL     1      36.867 -23.147 -12.951  0.00  0.00    +0.010 C 
ATOM      5  C   UNL     1      36.635 -23.490 -11.623  0.00  0.00    +0.021 C 
ATOM      6  C   UNL     1      36.604 -24.836 -11.297  0.00  0.00    +0.099 C 
ENDROOT
BRANCH   2   8
ATOM      7  O   UNL     1      36.430 -23.554 -16.127  0.00  0.00    -0.245 OA
ATOM      8  C   UNL     1      37.303 -23.787 -15.286  0.00  0.00    +0.340 C 
BRANCH   8   9
ATOM      9  O   UNL     1      38.630 -23.727 -15.583  0.00  0.00    -0.477 OA
ATOM     10  H   UNL     1      39.204 -24.412 -15.305  0.00  0.00    +0.295 HD
ENDBRANCH   8   9
ENDBRANCH   2   8
BRANCH   3  12
ATOM     11  OXT UNL     1      38.279 -27.121 -14.640  0.00  0.00    -0.243 OA
ATOM     12  C   UNL     1      37.201 -26.569 -14.397  0.00  0.00    +0.356 C 
BRANCH  12  13
ATOM     13  O   UNL     1      36.039 -26.955 -14.991  0.00  0.00    -0.476 OA
ATOM     14  H   UNL     1      35.394 -26.314 -15.217  0.00  0.00    +0.295 HD
ENDBRANCH  12  13
ENDBRANCH   3  12
TORSDOF 4
ENDMDL
MODEL 4
REMARK VINA RESULT:      -6.3      2.375      2.698
REMARK  Name = 1066
REMARK  4 active torsions:
REMARK  status: ('A' for Active; 'I' for Inactive)
REMARK    1  A    between atoms: C_2  and  C_8
REMARK    2  A    between atoms: CA_3  and  C_12
REMARK    3  A    between atoms: C_8  and  O_9
REMARK    4  A    between atoms: C_12  and  O_13
REMARK                            x       y       z     vdW  Elec       q    Type
REMARK                         _______ _______ _______ _____ _____    ______ ____
ROOT
ATOM      1  N   UNL     1      38.560 -24.218 -12.581  0.00  0.00    -0.237 NA
ATOM      2  C   UNL     1      36.572 -24.798 -13.827  0.00  0.00    +0.099 C 
ATOM      3  CA  UNL     1      37.946 -24.778 -13.647  0.00  0.00    +0.163 C 
ATOM      4  C   UNL     1      35.779 -24.206 -12.851  0.00  0.00    +0.010 C 
ATOM      5  C   UNL     1      36.374 -23.619 -11.740  0.00  0.00    +0.021 C 
ATOM      6  C   UNL     1      37.757 -23.652 -11.653  0.00  0.00    +0.099 C 
ENDROOT
BRANCH   2   8
ATOM      7  O   UNL     1      35.425 -24.802 -15.926  0.00  0.00    -0.245 OA
ATOM      8  C   UNL     1      35.948 -25.412 -14.989  0.00  0.00    +0.340 C 
BRANCH   8   9
ATOM      9  O   UNL     1      35.997 -26.772 -14.947  0.00  0.00    -0.477 OA
ATOM     10  H   UNL     1      36.049 -27.214 -14.124  0.00  0.00    +0.295 HD
ENDBRANCH   8   9
ENDBRANCH   2   8
BRANCH   3  12
ATOM     11  OXT UNL     1      39.113 -26.581 -14.701  0.00  0.00    -0.243 OA
ATOM     12  C   UNL     1      38.846 -25.377 -14.620  0.00  0.00    +0.356 C 
BRANCH  12  13
ATOM     13  O   UNL     1      39.386 -24.457 -15.466  0.00  0.00    -0.476 OA
ATOM     14  H   UNL     1      39.168 -23.551 -15.371  0.00  0.00    +0.295 HD
ENDBRANCH  12  13
ENDBRANCH   3  12
TORSDOF 4
ENDMDL
MODEL 5
REMARK VINA RESULT:      -6.3      2.292      2.817
REMARK  Name = 1066
REMARK  4 active torsions:
REMARK  status: ('A' for Active; 'I' for Inactive)
REMARK    1  A    between atoms: C_2  and  C_8
REMARK    2  A    between atoms: CA_3  and  C_12
REMARK    3  A    between atoms: C_8  and  O_9
REMARK    4  A    between atoms: C_12  and  O_13
REMARK                            x       y       z     vdW  Elec       q    Type
REMARK                         _______ _______ _______ _____ _____    ______ ____
ROOT
ATOM      1  N   UNL     1      36.501 -25.046 -15.321  0.00  0.00    -0.237 NA
ATOM      2  C   UNL     1      36.842 -23.994 -13.172  0.00  0.00    +0.099 C 
ATOM      3  CA  UNL     1      37.290 -24.689 -14.283  0.00  0.00    +0.163 C 
ATOM      4  C   UNL     1      35.497 -23.644 -13.121  0.00  0.00    +0.010 C 
ATOM      5  C   UNL     1      34.653 -23.995 -14.169  0.00  0.00    +0.021 C 
ATOM      6  C   UNL     1      35.200 -24.689 -15.237  0.00  0.00    +0.099 C 
ENDROOT
BRANCH   2   8
ATOM      7  O   UNL     1      38.251 -22.521 -11.920  0.00  0.00    -0.245 OA
ATOM      8  C   UNL     1      37.724 -23.627 -12.074  0.00  0.00    +0.340 C 
BRANCH   8   9
ATOM      9  O   UNL     1      37.920 -24.652 -11.200  0.00  0.00    -0.477 OA
ATOM     10  H   UNL     1      37.900 -25.537 -11.503  0.00  0.00    +0.295 HD
ENDBRANCH   8   9
ENDBRANCH   2   8
BRANCH   3  12
ATOM     11  OXT UNL     1      39.229 -25.997 -13.778  0.00  0.00    -0.243 OA
ATOM     12  C   UNL     1      38.683 -25.090 -14.415  0.00  0.00    +0.356 C 
BRANCH  12  13
ATOM     13  O   UNL     1      39.352 -24.349 -15.340  0.00  0.00    -0.476 OA
ATOM     14  H   UNL     1      40.287 -24.303 -15.314  0.00  0.00    +0.295 HD
ENDBRANCH  12  13
ENDBRANCH   3  12
TORSDOF 4
ENDMDL
MODEL 6
REMARK VINA RESULT:      -6.2      2.551      3.685
REMARK  Name = 1066
REMARK  4 active torsions:
REMARK  status: ('A' for Active; 'I' for Inactive)
REMARK    1  A    between atoms: C_2  and  C_8
REMARK    2  A    between atoms: CA_3  and  C_12
REMARK    3  A    between atoms: C_8  and  O_9
REMARK    4  A    between atoms: C_12  and  O_13
REMARK                            x       y       z     vdW  Elec       q    Type
REMARK                         _______ _______ _______ _____ _____    ______ ____
ROOT
ATOM      1  N   UNL     1      35.549 -24.462 -12.930  0.00  0.00    -0.237 NA
ATOM      2  C   UNL     1      37.829 -24.901 -13.603  0.00  0.00    +0.099 C 
ATOM      3  CA  UNL     1      36.460 -24.926 -13.815  0.00  0.00    +0.163 C 
ATOM      4  C   UNL     1      38.293 -24.366 -12.406  0.00  0.00    +0.010 C 
ATOM      5  C   UNL     1      37.387 -23.879 -11.470  0.00  0.00    +0.021 C 
ATOM      6  C   UNL     1      36.038 -23.949 -11.779  0.00  0.00    +0.099 C 
ENDROOT
BRANCH   2   8
ATOM      7  O   UNL     1      39.109 -26.592 -14.709  0.00  0.00    -0.245 OA
ATOM      8  C   UNL     1      38.779 -25.409 -14.581  0.00  0.00    +0.340 C 
BRANCH   8   9
ATOM      9  O   UNL     1      39.286 -24.425 -15.373  0.00  0.00    -0.477 OA
ATOM     10  H   UNL     1      39.037 -23.534 -15.231  0.00  0.00    +0.295 HD
ENDBRANCH   8   9
ENDBRANCH   2   8
BRANCH   3  12
ATOM     11  OXT UNL     1      35.413 -24.798 -15.962  0.00  0.00    -0.243 OA
ATOM     12  C   UNL     1      35.894 -25.466 -15.041  0.00  0.00    +0.356 C 
BRANCH  12  13
ATOM     13  O   UNL     1      35.946 -26.826 -15.083  0.00  0.00    -0.476 OA
ATOM     14  H   UNL     1      36.564 -27.287 -14.551  0.00  0.00    +0.295 HD
ENDBRANCH  12  13
ENDBRANCH   3  12
TORSDOF 4
ENDMDL
MODEL 7
REMARK VINA RESULT:      -6.2      6.227      7.524
REMARK  Name = 1066
REMARK  4 active torsions:
REMARK  status: ('A' for Active; 'I' for Inactive)
REMARK    1  A    between atoms: C_2  and  C_8
REMARK    2  A    between atoms: CA_3  and  C_12
REMARK    3  A    between atoms: C_8  and  O_9
REMARK    4  A    between atoms: C_12  and  O_13
REMARK                            x       y       z     vdW  Elec       q    Type
REMARK                         _______ _______ _______ _____ _____    ______ ____
ROOT
ATOM      1  N   UNL     1      32.767 -21.177 -19.973  0.00  0.00    -0.237 NA
ATOM      2  C   UNL     1      35.154 -20.799 -19.950  0.00  0.00    +0.099 C 
ATOM      3  CA  UNL     1      34.023 -21.522 -19.610  0.00  0.00    +0.163 C 
ATOM      4  C   UNL     1      34.986 -19.647 -20.711  0.00  0.00    +0.010 C 
ATOM      5  C   UNL     1      33.709 -19.259 -21.103  0.00  0.00    +0.021 C 
ATOM      6  C   UNL     1      32.643 -20.052 -20.712  0.00  0.00    +0.099 C 
ENDROOT
BRANCH   2   8
ATOM      7  O   UNL     1      37.317 -21.772 -20.260  0.00  0.00    -0.245 OA
ATOM      8  C   UNL     1      36.490 -21.203 -19.541  0.00  0.00    +0.340 C 
BRANCH   8   9
ATOM      9  O   UNL     1      36.756 -20.883 -18.245  0.00  0.00    -0.477 OA
ATOM     10  H   UNL     1      37.636 -20.913 -17.926  0.00  0.00    +0.295 HD
ENDBRANCH   8   9
ENDBRANCH   2   8
BRANCH   3  12
ATOM     11  OXT UNL     1      34.353 -22.790 -17.608  0.00  0.00    -0.243 OA
ATOM     12  C   UNL     1      34.112 -22.740 -18.818  0.00  0.00    +0.356 C 
BRANCH  12  13
ATOM     13  O   UNL     1      33.894 -23.860 -19.561  0.00  0.00    -0.476 OA
ATOM     14  H   UNL     1      34.612 -24.415 -19.791  0.00  0.00    +0.295 HD
ENDBRANCH  12  13
ENDBRANCH   3  12
TORSDOF 4
ENDMDL
MODEL 8
REMARK VINA RESULT:      -6.2      3.260      4.367
REMARK  Name = 1066
REMARK  4 active torsions:
REMARK  status: ('A' for Active; 'I' for Inactive)
REMARK    1  A    between atoms: C_2  and  C_8
REMARK    2  A    between atoms: CA_3  and  C_12
REMARK    3  A    between atoms: C_8  and  O_9
REMARK    4  A    between atoms: C_12  and  O_13
REMARK                            x       y       z     vdW  Elec       q    Type
REMARK                         _______ _______ _______ _____ _____    ______ ____
ROOT
ATOM      1  N   UNL     1      36.297 -25.563 -14.668  0.00  0.00    -0.237 NA
ATOM      2  C   UNL     1      37.562 -24.585 -12.855  0.00  0.00    +0.099 C 
ATOM      3  CA  UNL     1      36.402 -24.748 -13.593  0.00  0.00    +0.163 C 
ATOM      4  C   UNL     1      38.688 -25.303 -13.244  0.00  0.00    +0.010 C 
ATOM      5  C   UNL     1      38.620 -26.150 -14.344  0.00  0.00    +0.021 C 
ATOM      6  C   UNL     1      37.412 -26.244 -15.015  0.00  0.00    +0.099 C 
ENDROOT
BRANCH   2   8
ATOM      7  O   UNL     1      38.253 -22.631 -11.660  0.00  0.00    -0.245 OA
ATOM      8  C   UNL     1      37.635 -23.699 -11.703  0.00  0.00    +0.340 C 
BRANCH   8   9
ATOM      9  O   UNL     1      36.931 -24.172 -10.638  0.00  0.00    -0.477 OA
ATOM     10  H   UNL     1      37.066 -23.806  -9.787  0.00  0.00    +0.295 HD
ENDBRANCH   8   9
ENDBRANCH   2   8
BRANCH   3  12
ATOM     11  OXT UNL     1      34.376 -24.374 -12.376  0.00  0.00    -0.243 OA
ATOM     12  C   UNL     1      35.180 -24.036 -13.251  0.00  0.00    +0.356 C 
BRANCH  12  13
ATOM     13  O   UNL     1      34.998 -22.921 -14.010  0.00  0.00    -0.476 OA
ATOM     14  H   UNL     1      35.662 -22.261 -14.038  0.00  0.00    +0.295 HD
ENDBRANCH  12  13
ENDBRANCH   3  12
TORSDOF 4
ENDMDL
MODEL 9
REMARK VINA RESULT:      -6.1      2.880      4.125
REMARK  Name = 1066
REMARK  4 active torsions:
REMARK  status: ('A' for Active; 'I' for Inactive)
REMARK    1  A    between atoms: C_2  and  C_8
REMARK    2  A    between atoms: CA_3  and  C_12
REMARK    3  A    between atoms: C_8  and  O_9
REMARK    4  A    between atoms: C_12  and  O_13
REMARK                            x       y       z     vdW  Elec       q    Type
REMARK                         _______ _______ _______ _____ _____    ______ ____
ROOT
ATOM      1  N   UNL     1      34.254 -24.063 -12.655  0.00  0.00    -0.237 NA
ATOM      2  C   UNL     1      36.435 -24.765 -13.425  0.00  0.00    +0.099 C 
ATOM      3  CA  UNL     1      35.540 -24.413 -12.428  0.00  0.00    +0.163 C 
ATOM      4  C   UNL     1      35.983 -24.755 -14.739  0.00  0.00    +0.010 C 
ATOM      5  C   UNL     1      34.666 -24.399 -15.013  0.00  0.00    +0.021 C 
ATOM      6  C   UNL     1      33.850 -24.065 -13.945  0.00  0.00    +0.099 C 
ENDROOT
BRANCH   2   8
ATOM      7  O   UNL     1      38.235 -26.293 -13.043  0.00  0.00    -0.245 OA
ATOM      8  C   UNL     1      37.812 -25.137 -13.139  0.00  0.00    +0.340 C 
BRANCH   8   9
ATOM      9  O   UNL     1      38.623 -24.054 -12.985  0.00  0.00    -0.477 OA
ATOM     10  H   UNL     1      38.585 -23.549 -12.198  0.00  0.00    +0.295 HD
ENDBRANCH   8   9
ENDBRANCH   2   8
BRANCH   3  12
ATOM     11  OXT UNL     1      36.815 -23.688 -10.538  0.00  0.00    -0.243 OA
ATOM     12  C   UNL     1      35.933 -24.401 -11.027  0.00  0.00    +0.356 C 
BRANCH  12  13
ATOM     13  O   UNL     1      35.210 -25.276 -10.276  0.00  0.00    -0.476 OA
ATOM     14  H   UNL     1      35.320 -26.198 -10.397  0.00  0.00    +0.295 HD
ENDBRANCH  12  13
ENDBRANCH   3  12
TORSDOF 4
ENDMDL
