MODEL 1
REMARK VINA RESULT:      -9.0      0.000      0.000
REMARK  Name = 11840988
REMARK  6 active torsions:
REMARK  status: ('A' for Active; 'I' for Inactive)
REMARK    1  A    between atoms: N_1  and  N_3
REMARK    2  A    between atoms: N_1  and  C_14
REMARK    3  A    between atoms: N_3  and  C_8
REMARK    4  A    between atoms: N_6  and  C_9
REMARK    5  A    between atoms: N_7  and  C_10
REMARK    6  A    between atoms: C_13  and  C_22
REMARK                            x       y       z     vdW  Elec       q    Type
REMARK                         _______ _______ _______ _____ _____    ______ ____
ROOT
ATOM      1  N   UNL     1      35.450 -22.294 -18.793  0.00  0.00    -0.261 N 
ATOM      2  H   UNL     1      36.238 -22.781 -19.124  0.00  0.00    +0.168 HD
ENDROOT
BRANCH   1   4
ATOM      3  C   UNL     1      35.062 -19.448 -21.133  0.00  0.00    +0.073 C 
ATOM      4  C   UNL     1      34.854 -21.299 -19.596  0.00  0.00    +0.059 C 
ATOM      5  C   UNL     1      35.653 -20.430 -20.338  0.00  0.00    +0.019 C 
ATOM      6  C   UNL     1      33.673 -19.335 -21.186  0.00  0.00    +0.004 C 
ATOM      7  C   UNL     1      33.463 -21.187 -19.648  0.00  0.00    +0.016 C 
ATOM      8  C   UNL     1      32.873 -20.204 -20.443  0.00  0.00    +0.001 C 
BRANCH   3  12
ATOM      9  F   UNL     1      37.250 -18.633 -21.660  0.00  0.00    -0.166 F 
ATOM     10  F   UNL     1      35.805 -18.695 -23.278  0.00  0.00    -0.166 F 
ATOM     11  F   UNL     1      35.610 -17.205 -21.704  0.00  0.00    -0.166 F 
ATOM     12  C   UNL     1      35.915 -18.517 -21.927  0.00  0.00    +0.419 C 
ENDBRANCH   3  12
ENDBRANCH   1   4
BRANCH   1  13
ATOM     13  N   UNL     1      34.949 -22.583 -17.580  0.00  0.00    -0.120 NA
BRANCH  13  16
ATOM     14  N   UNL     1      37.695 -22.423 -15.283  0.00  0.00    -0.133 NA
ATOM     15  N   UNL     1      37.120 -23.503 -14.894  0.00  0.00    -0.133 NA
ATOM     16  C   UNL     1      35.857 -22.708 -16.673  0.00  0.00    +0.207 C 
ATOM     17  C   UNL     1      37.010 -21.868 -16.351  0.00  0.00    +0.168 C 
ATOM     18  C   UNL     1      36.004 -23.759 -15.669  0.00  0.00    +0.168 C 
BRANCH  17  19
ATOM     19  N   UNL     1      37.341 -20.785 -16.957  0.00  0.00    -0.249 NA
ATOM     20  H   UNL     1      37.109 -19.911 -16.566  0.00  0.00    +0.171 HD
ENDBRANCH  17  19
BRANCH  18  21
ATOM     21  N   UNL     1      35.215 -24.764 -15.534  0.00  0.00    -0.249 NA
ATOM     22  H   UNL     1      35.586 -25.668 -15.410  0.00  0.00    +0.171 HD
ENDBRANCH  18  21
ENDBRANCH  13  16
ENDBRANCH   1  13
TORSDOF 6
ENDMDL
MODEL 2
REMARK VINA RESULT:      -8.9      5.624      6.807
REMARK  Name = 11840988
REMARK  6 active torsions:
REMARK  status: ('A' for Active; 'I' for Inactive)
REMARK    1  A    between atoms: N_1  and  N_3
REMARK    2  A    between atoms: N_1  and  C_14
REMARK    3  A    between atoms: N_3  and  C_8
REMARK    4  A    between atoms: N_6  and  C_9
REMARK    5  A    between atoms: N_7  and  C_10
REMARK    6  A    between atoms: C_13  and  C_22
REMARK                            x       y       z     vdW  Elec       q    Type
REMARK                         _______ _______ _______ _____ _____    ______ ____
ROOT
ATOM      1  N   UNL     1      35.224 -23.930 -14.799  0.00  0.00    -0.261 N 
ATOM      2  H   UNL     1      35.309 -23.896 -13.819  0.00  0.00    +0.168 HD
ENDROOT
BRANCH   1   4
ATOM      3  C   UNL     1      31.596 -23.332 -15.255  0.00  0.00    +0.073 C 
ATOM      4  C   UNL     1      33.990 -23.614 -15.405  0.00  0.00    +0.059 C 
ATOM      5  C   UNL     1      32.816 -23.646 -14.655  0.00  0.00    +0.019 C 
ATOM      6  C   UNL     1      31.551 -22.987 -16.606  0.00  0.00    +0.004 C 
ATOM      7  C   UNL     1      33.946 -23.270 -16.757  0.00  0.00    +0.016 C 
ATOM      8  C   UNL     1      32.727 -22.957 -17.358  0.00  0.00    +0.001 C 
BRANCH   3  12
ATOM      9  F   UNL     1      29.517 -22.297 -14.679  0.00  0.00    -0.166 F 
ATOM     10  F   UNL     1      29.567 -24.466 -14.693  0.00  0.00    -0.166 F 
ATOM     11  F   UNL     1      30.574 -23.368 -13.108  0.00  0.00    -0.166 F 
ATOM     12  C   UNL     1      30.339 -23.364 -14.453  0.00  0.00    +0.419 C 
ENDBRANCH   3  12
ENDBRANCH   1   4
BRANCH   1  13
ATOM     13  N   UNL     1      36.285 -24.276 -15.548  0.00  0.00    -0.120 NA
BRANCH  13  16
ATOM     14  N   UNL     1      38.215 -27.047 -14.351  0.00  0.00    -0.133 NA
ATOM     15  N   UNL     1      38.589 -26.126 -13.538  0.00  0.00    -0.133 NA
ATOM     16  C   UNL     1      37.055 -25.134 -14.972  0.00  0.00    +0.207 C 
ATOM     17  C   UNL     1      37.291 -26.549 -15.254  0.00  0.00    +0.168 C 
ATOM     18  C   UNL     1      37.946 -24.937 -13.831  0.00  0.00    +0.168 C 
BRANCH  17  19
ATOM     19  N   UNL     1      36.734 -27.229 -16.191  0.00  0.00    -0.249 NA
ATOM     20  H   UNL     1      37.023 -27.111 -17.124  0.00  0.00    +0.171 HD
ENDBRANCH  17  19
BRANCH  18  21
ATOM     21  N   UNL     1      38.102 -23.829 -13.201  0.00  0.00    -0.249 NA
ATOM     22  H   UNL     1      37.804 -23.746 -12.266  0.00  0.00    +0.171 HD
ENDBRANCH  18  21
ENDBRANCH  13  16
ENDBRANCH   1  13
TORSDOF 6
ENDMDL
MODEL 3
REMARK VINA RESULT:      -8.9      2.136      3.145
REMARK  Name = 11840988
REMARK  6 active torsions:
REMARK  status: ('A' for Active; 'I' for Inactive)
REMARK    1  A    between atoms: N_1  and  N_3
REMARK    2  A    between atoms: N_1  and  C_14
REMARK    3  A    between atoms: N_3  and  C_8
REMARK    4  A    between atoms: N_6  and  C_9
REMARK    5  A    between atoms: N_7  and  C_10
REMARK    6  A    between atoms: C_13  and  C_22
REMARK                            x       y       z     vdW  Elec       q    Type
REMARK                         _______ _______ _______ _____ _____    ______ ____
ROOT
ATOM      1  N   UNL     1      33.122 -22.333 -18.994  0.00  0.00    -0.261 N 
ATOM      2  H   UNL     1      32.187 -22.050 -19.112  0.00  0.00    +0.168 HD
ENDROOT
BRANCH   1   4
ATOM      3  C   UNL     1      34.898 -19.629 -20.799  0.00  0.00    +0.073 C 
ATOM      4  C   UNL     1      34.164 -21.537 -19.514  0.00  0.00    +0.059 C 
ATOM      5  C   UNL     1      33.867 -20.415 -20.286  0.00  0.00    +0.019 C 
ATOM      6  C   UNL     1      36.227 -19.964 -20.540  0.00  0.00    +0.004 C 
ATOM      7  C   UNL     1      35.494 -21.874 -19.255  0.00  0.00    +0.016 C 
ATOM      8  C   UNL     1      36.525 -21.087 -19.768  0.00  0.00    +0.001 C 
BRANCH   3  12
ATOM      9  F   UNL     1      33.532 -17.695 -21.148  0.00  0.00    -0.166 F 
ATOM     10  F   UNL     1      35.618 -17.543 -21.723  0.00  0.00    -0.166 F 
ATOM     11  F   UNL     1      34.249 -18.747 -22.910  0.00  0.00    -0.166 F 
ATOM     12  C   UNL     1      34.581 -18.428 -21.625  0.00  0.00    +0.419 C 
ENDBRANCH   3  12
ENDBRANCH   1   4
BRANCH   1  13
ATOM     13  N   UNL     1      33.396 -23.472 -18.336  0.00  0.00    -0.120 NA
BRANCH  13  16
ATOM     14  N   UNL     1      33.378 -23.393 -14.753  0.00  0.00    -0.133 NA
ATOM     15  N   UNL     1      32.160 -23.073 -15.006  0.00  0.00    -0.133 NA
ATOM     16  C   UNL     1      33.183 -23.389 -17.067  0.00  0.00    +0.207 C 
ATOM     17  C   UNL     1      34.077 -23.604 -15.930  0.00  0.00    +0.168 C 
ATOM     18  C   UNL     1      31.945 -23.044 -16.372  0.00  0.00    +0.168 C 
BRANCH  17  19
ATOM     19  N   UNL     1      35.316 -23.936 -16.004  0.00  0.00    -0.249 NA
ATOM     20  H   UNL     1      35.841 -24.060 -15.181  0.00  0.00    +0.171 HD
ENDBRANCH  17  19
BRANCH  18  21
ATOM     21  N   UNL     1      30.831 -22.760 -16.946  0.00  0.00    -0.249 NA
ATOM     22  H   UNL     1      30.578 -23.213 -17.784  0.00  0.00    +0.171 HD
ENDBRANCH  18  21
ENDBRANCH  13  16
ENDBRANCH   1  13
TORSDOF 6
ENDMDL
MODEL 4
REMARK VINA RESULT:      -8.9      2.176      3.258
REMARK  Name = 11840988
REMARK  6 active torsions:
REMARK  status: ('A' for Active; 'I' for Inactive)
REMARK    1  A    between atoms: N_1  and  N_3
REMARK    2  A    between atoms: N_1  and  C_14
REMARK    3  A    between atoms: N_3  and  C_8
REMARK    4  A    between atoms: N_6  and  C_9
REMARK    5  A    between atoms: N_7  and  C_10
REMARK    6  A    between atoms: C_13  and  C_22
REMARK                            x       y       z     vdW  Elec       q    Type
REMARK                         _______ _______ _______ _____ _____    ______ ____
ROOT
ATOM      1  N   UNL     1      33.098 -22.355 -18.939  0.00  0.00    -0.261 N 
ATOM      2  H   UNL     1      32.162 -22.077 -19.070  0.00  0.00    +0.168 HD
ENDROOT
BRANCH   1   4
ATOM      3  C   UNL     1      34.879 -19.671 -20.769  0.00  0.00    +0.073 C 
ATOM      4  C   UNL     1      34.142 -21.571 -19.473  0.00  0.00    +0.059 C 
ATOM      5  C   UNL     1      33.846 -20.446 -20.243  0.00  0.00    +0.019 C 
ATOM      6  C   UNL     1      36.207 -20.020 -20.527  0.00  0.00    +0.004 C 
ATOM      7  C   UNL     1      35.471 -21.921 -19.231  0.00  0.00    +0.016 C 
ATOM      8  C   UNL     1      36.503 -21.146 -19.757  0.00  0.00    +0.001 C 
BRANCH   3  12
ATOM      9  F   UNL     1      33.493 -17.754 -21.134  0.00  0.00    -0.166 F 
ATOM     10  F   UNL     1      35.590 -17.566 -21.656  0.00  0.00    -0.166 F 
ATOM     11  F   UNL     1      34.270 -18.779 -22.888  0.00  0.00    -0.166 F 
ATOM     12  C   UNL     1      34.564 -18.467 -21.592  0.00  0.00    +0.419 C 
ENDBRANCH   3  12
ENDBRANCH   1   4
BRANCH   1  13
ATOM     13  N   UNL     1      33.369 -23.478 -18.252  0.00  0.00    -0.120 NA
BRANCH  13  16
ATOM     14  N   UNL     1      32.072 -23.053 -14.939  0.00  0.00    -0.133 NA
ATOM     15  N   UNL     1      33.282 -23.399 -14.681  0.00  0.00    -0.133 NA
ATOM     16  C   UNL     1      33.099 -23.380 -16.995  0.00  0.00    +0.207 C 
ATOM     17  C   UNL     1      31.863 -23.013 -16.308  0.00  0.00    +0.168 C 
ATOM     18  C   UNL     1      33.980 -23.619 -15.854  0.00  0.00    +0.168 C 
BRANCH  17  19
ATOM     19  N   UNL     1      30.753 -22.701 -16.876  0.00  0.00    -0.249 NA
ATOM     20  H   UNL     1      30.759 -22.228 -17.739  0.00  0.00    +0.171 HD
ENDBRANCH  17  19
BRANCH  18  21
ATOM     21  N   UNL     1      35.211 -23.975 -15.934  0.00  0.00    -0.249 NA
ATOM     22  H   UNL     1      35.563 -24.671 -15.334  0.00  0.00    +0.171 HD
ENDBRANCH  18  21
ENDBRANCH  13  16
ENDBRANCH   1  13
TORSDOF 6
ENDMDL
MODEL 5
REMARK VINA RESULT:      -8.8      2.797      4.581
REMARK  Name = 11840988
REMARK  6 active torsions:
REMARK  status: ('A' for Active; 'I' for Inactive)
REMARK    1  A    between atoms: N_1  and  N_3
REMARK    2  A    between atoms: N_1  and  C_14
REMARK    3  A    between atoms: N_3  and  C_8
REMARK    4  A    between atoms: N_6  and  C_9
REMARK    5  A    between atoms: N_7  and  C_10
REMARK    6  A    between atoms: C_13  and  C_22
REMARK                            x       y       z     vdW  Elec       q    Type
REMARK                         _______ _______ _______ _____ _____    ______ ____
ROOT
ATOM      1  N   UNL     1      35.246 -19.735 -21.663  0.00  0.00    -0.261 N 
ATOM      2  H   UNL     1      35.234 -20.531 -22.242  0.00  0.00    +0.168 HD
ENDROOT
BRANCH   1   4
ATOM      3  C   UNL     1      34.355 -16.150 -21.947  0.00  0.00    +0.073 C 
ATOM      4  C   UNL     1      35.000 -18.462 -22.218  0.00  0.00    +0.059 C 
ATOM      5  C   UNL     1      34.598 -17.409 -21.397  0.00  0.00    +0.019 C 
ATOM      6  C   UNL     1      34.513 -15.945 -23.318  0.00  0.00    +0.004 C 
ATOM      7  C   UNL     1      35.157 -18.258 -23.590  0.00  0.00    +0.016 C 
ATOM      8  C   UNL     1      34.914 -16.999 -24.139  0.00  0.00    +0.001 C 
BRANCH   3  12
ATOM      9  F   UNL     1      33.446 -13.945 -21.758  0.00  0.00    -0.166 F 
ATOM     10  F   UNL     1      32.933 -15.358 -20.195  0.00  0.00    -0.166 F 
ATOM     11  F   UNL     1      34.946 -14.540 -20.300  0.00  0.00    -0.166 F 
ATOM     12  C   UNL     1      33.927 -15.022 -21.070  0.00  0.00    +0.419 C 
ENDBRANCH   3  12
ENDBRANCH   1   4
BRANCH   1  13
ATOM     13  N   UNL     1      35.497 -19.871 -20.350  0.00  0.00    -0.120 NA
BRANCH  13  16
ATOM     14  N   UNL     1      33.179 -22.314 -19.125  0.00  0.00    -0.133 NA
ATOM     15  N   UNL     1      34.260 -22.700 -18.549  0.00  0.00    -0.133 NA
ATOM     16  C   UNL     1      34.831 -20.831 -19.803  0.00  0.00    +0.207 C 
ATOM     17  C   UNL     1      33.419 -21.194 -19.904  0.00  0.00    +0.168 C 
ATOM     18  C   UNL     1      35.311 -21.870 -18.895  0.00  0.00    +0.168 C 
BRANCH  17  19
ATOM     19  N   UNL     1      32.534 -20.578 -20.603  0.00  0.00    -0.249 NA
ATOM     20  H   UNL     1      31.655 -20.992 -20.761  0.00  0.00    +0.171 HD
ENDBRANCH  17  19
BRANCH  18  21
ATOM     21  N   UNL     1      36.522 -21.988 -18.484  0.00  0.00    -0.249 NA
ATOM     22  H   UNL     1      37.139 -21.222 -18.539  0.00  0.00    +0.171 HD
ENDBRANCH  18  21
ENDBRANCH  13  16
ENDBRANCH   1  13
TORSDOF 6
ENDMDL
MODEL 6
REMARK VINA RESULT:      -8.8      2.797      4.587
REMARK  Name = 11840988
REMARK  6 active torsions:
REMARK  status: ('A' for Active; 'I' for Inactive)
REMARK    1  A    between atoms: N_1  and  N_3
REMARK    2  A    between atoms: N_1  and  C_14
REMARK    3  A    between atoms: N_3  and  C_8
REMARK    4  A    between atoms: N_6  and  C_9
REMARK    5  A    between atoms: N_7  and  C_10
REMARK    6  A    between atoms: C_13  and  C_22
REMARK                            x       y       z     vdW  Elec       q    Type
REMARK                         _______ _______ _______ _____ _____    ______ ____
ROOT
ATOM      1  N   UNL     1      35.281 -19.726 -21.645  0.00  0.00    -0.261 N 
ATOM      2  H   UNL     1      35.327 -20.529 -22.213  0.00  0.00    +0.168 HD
ENDROOT
BRANCH   1   4
ATOM      3  C   UNL     1      34.360 -16.156 -22.005  0.00  0.00    +0.073 C 
ATOM      4  C   UNL     1      35.011 -18.471 -22.229  0.00  0.00    +0.059 C 
ATOM      5  C   UNL     1      34.626 -17.397 -21.427  0.00  0.00    +0.019 C 
ATOM      6  C   UNL     1      34.480 -15.988 -23.385  0.00  0.00    +0.004 C 
ATOM      7  C   UNL     1      35.130 -18.304 -23.609  0.00  0.00    +0.016 C 
ATOM      8  C   UNL     1      34.864 -17.063 -24.187  0.00  0.00    +0.001 C 
BRANCH   3  12
ATOM      9  F   UNL     1      32.929 -15.299 -20.289  0.00  0.00    -0.166 F 
ATOM     10  F   UNL     1      34.955 -14.526 -20.359  0.00  0.00    -0.166 F 
ATOM     11  F   UNL     1      33.516 -13.936 -21.879  0.00  0.00    -0.166 F 
ATOM     12  C   UNL     1      33.949 -15.006 -21.149  0.00  0.00    +0.419 C 
ENDBRANCH   3  12
ENDBRANCH   1   4
BRANCH   1  13
ATOM     13  N   UNL     1      35.473 -19.836 -20.319  0.00  0.00    -0.120 NA
BRANCH  13  16
ATOM     14  N   UNL     1      34.231 -22.734 -18.616  0.00  0.00    -0.133 NA
ATOM     15  N   UNL     1      33.164 -22.326 -19.204  0.00  0.00    -0.133 NA
ATOM     16  C   UNL     1      34.837 -20.828 -19.796  0.00  0.00    +0.207 C 
ATOM     17  C   UNL     1      35.295 -21.898 -18.911  0.00  0.00    +0.168 C 
ATOM     18  C   UNL     1      33.428 -21.184 -19.938  0.00  0.00    +0.168 C 
BRANCH  17  19
ATOM     19  N   UNL     1      36.493 -22.046 -18.471  0.00  0.00    -0.249 NA
ATOM     20  H   UNL     1      37.228 -21.518 -18.859  0.00  0.00    +0.171 HD
ENDBRANCH  17  19
BRANCH  18  21
ATOM     21  N   UNL     1      32.570 -20.533 -20.639  0.00  0.00    -0.249 NA
ATOM     22  H   UNL     1      31.952 -21.016 -21.235  0.00  0.00    +0.171 HD
ENDBRANCH  18  21
ENDBRANCH  13  16
ENDBRANCH   1  13
TORSDOF 6
ENDMDL
MODEL 7
REMARK VINA RESULT:      -8.8      5.462      6.835
REMARK  Name = 11840988
REMARK  6 active torsions:
REMARK  status: ('A' for Active; 'I' for Inactive)
REMARK    1  A    between atoms: N_1  and  N_3
REMARK    2  A    between atoms: N_1  and  C_14
REMARK    3  A    between atoms: N_3  and  C_8
REMARK    4  A    between atoms: N_6  and  C_9
REMARK    5  A    between atoms: N_7  and  C_10
REMARK    6  A    between atoms: C_13  and  C_22
REMARK                            x       y       z     vdW  Elec       q    Type
REMARK                         _______ _______ _______ _____ _____    ______ ____
ROOT
ATOM      1  N   UNL     1      33.994 -24.141 -13.432  0.00  0.00    -0.261 N 
ATOM      2  H   UNL     1      33.564 -24.028 -12.554  0.00  0.00    +0.168 HD
ENDROOT
BRANCH   1   4
ATOM      3  C   UNL     1      31.241 -23.193 -15.723  0.00  0.00    +0.073 C 
ATOM      4  C   UNL     1      33.303 -23.768 -14.604  0.00  0.00    +0.059 C 
ATOM      5  C   UNL     1      31.924 -23.564 -14.565  0.00  0.00    +0.019 C 
ATOM      6  C   UNL     1      31.937 -23.028 -16.921  0.00  0.00    +0.004 C 
ATOM      7  C   UNL     1      33.999 -23.603 -15.802  0.00  0.00    +0.016 C 
ATOM      8  C   UNL     1      33.317 -23.233 -16.960  0.00  0.00    +0.001 C 
BRANCH   3  12
ATOM      9  F   UNL     1      29.261 -22.432 -16.830  0.00  0.00    -0.166 F 
ATOM     10  F   UNL     1      29.049 -24.120 -15.484  0.00  0.00    -0.166 F 
ATOM     11  F   UNL     1      29.389 -22.127 -14.681  0.00  0.00    -0.166 F 
ATOM     12  C   UNL     1      29.767 -22.974 -15.683  0.00  0.00    +0.419 C 
ENDBRANCH   3  12
ENDBRANCH   1   4
BRANCH   1  13
ATOM     13  N   UNL     1      35.236 -24.649 -13.504  0.00  0.00    -0.120 NA
BRANCH  13  16
ATOM     14  N   UNL     1      37.234 -23.289 -10.859  0.00  0.00    -0.133 NA
ATOM     15  N   UNL     1      37.831 -22.800 -11.886  0.00  0.00    -0.133 NA
ATOM     16  C   UNL     1      36.069 -24.068 -12.710  0.00  0.00    +0.207 C 
ATOM     17  C   UNL     1      36.158 -24.068 -11.251  0.00  0.00    +0.168 C 
ATOM     18  C   UNL     1      37.204 -23.212 -13.047  0.00  0.00    +0.168 C 
BRANCH  17  19
ATOM     19  N   UNL     1      35.367 -24.690 -10.451  0.00  0.00    -0.249 NA
ATOM     20  H   UNL     1      35.111 -25.622 -10.639  0.00  0.00    +0.171 HD
ENDBRANCH  17  19
BRANCH  18  21
ATOM     21  N   UNL     1      37.558 -22.894 -14.240  0.00  0.00    -0.249 NA
ATOM     22  H   UNL     1      36.877 -22.763 -14.939  0.00  0.00    +0.171 HD
ENDBRANCH  18  21
ENDBRANCH  13  16
ENDBRANCH   1  13
TORSDOF 6
ENDMDL
MODEL 8
REMARK VINA RESULT:      -8.7      5.672      6.832
REMARK  Name = 11840988
REMARK  6 active torsions:
REMARK  status: ('A' for Active; 'I' for Inactive)
REMARK    1  A    between atoms: N_1  and  N_3
REMARK    2  A    between atoms: N_1  and  C_14
REMARK    3  A    between atoms: N_3  and  C_8
REMARK    4  A    between atoms: N_6  and  C_9
REMARK    5  A    between atoms: N_7  and  C_10
REMARK    6  A    between atoms: C_13  and  C_22
REMARK                            x       y       z     vdW  Elec       q    Type
REMARK                         _______ _______ _______ _____ _____    ______ ____
ROOT
ATOM      1  N   UNL     1      35.379 -23.678 -14.476  0.00  0.00    -0.261 N 
ATOM      2  H   UNL     1      36.131 -23.065 -14.639  0.00  0.00    +0.168 HD
ENDROOT
BRANCH   1   4
ATOM      3  C   UNL     1      31.761 -23.363 -15.210  0.00  0.00    +0.073 C 
ATOM      4  C   UNL     1      34.172 -23.509 -15.186  0.00  0.00    +0.059 C 
ATOM      5  C   UNL     1      32.954 -23.532 -14.507  0.00  0.00    +0.019 C 
ATOM      6  C   UNL     1      31.786 -23.171 -16.591  0.00  0.00    +0.004 C 
ATOM      7  C   UNL     1      34.197 -23.317 -16.568  0.00  0.00    +0.016 C 
ATOM      8  C   UNL     1      33.005 -23.148 -17.271  0.00  0.00    +0.001 C 
BRANCH   3  12
ATOM      9  F   UNL     1      30.586 -23.437 -13.127  0.00  0.00    -0.166 F 
ATOM     10  F   UNL     1      29.677 -22.293 -14.730  0.00  0.00    -0.166 F 
ATOM     11  F   UNL     1      29.690 -24.466 -14.821  0.00  0.00    -0.166 F 
ATOM     12  C   UNL     1      30.458 -23.387 -14.486  0.00  0.00    +0.419 C 
ENDBRANCH   3  12
ENDBRANCH   1   4
BRANCH   1  13
ATOM     13  N   UNL     1      35.511 -24.671 -13.580  0.00  0.00    -0.120 NA
BRANCH  13  16
ATOM     14  N   UNL     1      38.755 -26.175 -13.350  0.00  0.00    -0.133 NA
ATOM     15  N   UNL     1      38.344 -26.660 -14.466  0.00  0.00    -0.133 NA
ATOM     16  C   UNL     1      36.629 -25.304 -13.685  0.00  0.00    +0.207 C 
ATOM     17  C   UNL     1      37.792 -25.345 -12.800  0.00  0.00    +0.168 C 
ATOM     18  C   UNL     1      37.074 -26.194 -14.754  0.00  0.00    +0.168 C 
BRANCH  17  19
ATOM     19  N   UNL     1      37.910 -24.714 -11.687  0.00  0.00    -0.249 NA
ATOM     20  H   UNL     1      38.595 -24.988 -11.036  0.00  0.00    +0.171 HD
ENDBRANCH  17  19
BRANCH  18  21
ATOM     21  N   UNL     1      36.389 -26.493 -15.798  0.00  0.00    -0.249 NA
ATOM     22  H   UNL     1      36.630 -27.281 -16.338  0.00  0.00    +0.171 HD
ENDBRANCH  18  21
ENDBRANCH  13  16
ENDBRANCH   1  13
TORSDOF 6
ENDMDL
MODEL 9
REMARK VINA RESULT:      -8.7      5.547      6.733
REMARK  Name = 11840988
REMARK  6 active torsions:
REMARK  status: ('A' for Active; 'I' for Inactive)
REMARK    1  A    between atoms: N_1  and  N_3
REMARK    2  A    between atoms: N_1  and  C_14
REMARK    3  A    between atoms: N_3  and  C_8
REMARK    4  A    between atoms: N_6  and  C_9
REMARK    5  A    between atoms: N_7  and  C_10
REMARK    6  A    between atoms: C_13  and  C_22
REMARK                            x       y       z     vdW  Elec       q    Type
REMARK                         _______ _______ _______ _____ _____    ______ ____
ROOT
ATOM      1  N   UNL     1      33.974 -24.136 -13.358  0.00  0.00    -0.261 N 
ATOM      2  H   UNL     1      33.559 -23.992 -12.477  0.00  0.00    +0.168 HD
ENDROOT
BRANCH   1   4
ATOM      3  C   UNL     1      31.201 -23.254 -15.650  0.00  0.00    +0.073 C 
ATOM      4  C   UNL     1      33.275 -23.773 -14.528  0.00  0.00    +0.059 C 
ATOM      5  C   UNL     1      31.891 -23.614 -14.493  0.00  0.00    +0.019 C 
ATOM      6  C   UNL     1      31.895 -23.054 -16.843  0.00  0.00    +0.004 C 
ATOM      7  C   UNL     1      33.971 -23.574 -15.722  0.00  0.00    +0.016 C 
ATOM      8  C   UNL     1      33.281 -23.214 -16.879  0.00  0.00    +0.001 C 
BRANCH   3  12
ATOM      9  F   UNL     1      29.172 -22.784 -16.829  0.00  0.00    -0.166 F 
ATOM     10  F   UNL     1      29.051 -24.195 -15.186  0.00  0.00    -0.166 F 
ATOM     11  F   UNL     1      29.328 -22.076 -14.779  0.00  0.00    -0.166 F 
ATOM     12  C   UNL     1      29.720 -23.083 -15.614  0.00  0.00    +0.419 C 
ENDBRANCH   3  12
ENDBRANCH   1   4
BRANCH   1  13
ATOM     13  N   UNL     1      35.203 -24.674 -13.435  0.00  0.00    -0.120 NA
BRANCH  13  16
ATOM     14  N   UNL     1      37.843 -22.794 -11.906  0.00  0.00    -0.133 NA
ATOM     15  N   UNL     1      37.254 -23.268 -10.868  0.00  0.00    -0.133 NA
ATOM     16  C   UNL     1      36.070 -24.066 -12.699  0.00  0.00    +0.207 C 
ATOM     17  C   UNL     1      37.205 -23.218 -13.060  0.00  0.00    +0.168 C 
ATOM     18  C   UNL     1      36.174 -24.047 -11.242  0.00  0.00    +0.168 C 
BRANCH  17  19
ATOM     19  N   UNL     1      37.559 -22.909 -14.255  0.00  0.00    -0.249 NA
ATOM     20  H   UNL     1      37.782 -23.618 -14.901  0.00  0.00    +0.171 HD
ENDBRANCH  17  19
BRANCH  18  21
ATOM     21  N   UNL     1      35.383 -24.662 -10.438  0.00  0.00    -0.249 NA
ATOM     22  H   UNL     1      35.551 -25.604 -10.206  0.00  0.00    +0.171 HD
ENDBRANCH  18  21
ENDBRANCH  13  16
ENDBRANCH   1  13
TORSDOF 6
ENDMDL
