MODEL 1
REMARK VINA RESULT:      -9.2      0.000      0.000
REMARK  Name = 449088
REMARK  2 active torsions:
REMARK  status: ('A' for Active; 'I' for Inactive)
REMARK    1  A    between atoms: C_5  and  C_17
REMARK    2  A    between atoms: C_8  and  C_11
REMARK                            x       y       z     vdW  Elec       q    Type
REMARK                         _______ _______ _______ _____ _____    ______ ____
ROOT
ATOM      1  O   UNL     1      34.290 -19.075 -22.597  0.00  0.00    -0.270 OA
ATOM      2  N   UNL     1      34.579 -14.347 -21.525  0.00  0.00    -0.239 N 
ATOM      3  N   UNL     1      34.678 -15.306 -20.589  0.00  0.00    -0.166 NA
ATOM      4  N   UNL     1      34.588 -17.688 -20.721  0.00  0.00    -0.265 N 
ATOM      5  C   UNL     1      34.393 -14.826 -22.788  0.00  0.00    +0.045 C 
ATOM      6  C   UNL     1      34.366 -16.195 -22.671  0.00  0.00    +0.048 C 
ATOM      7  C   UNL     1      34.547 -16.417 -21.302  0.00  0.00    +0.153 C 
ATOM      8  C   UNL     1      34.462 -18.921 -21.376  0.00  0.00    +0.251 C 
ATOM      9  H   UNL     1      34.636 -13.386 -21.318  0.00  0.00    +0.174 HD
ATOM     10  H   UNL     1      34.720 -17.721 -19.747  0.00  0.00    +0.157 HD
ENDROOT
BRANCH   8  11
ATOM     11  C   UNL     1      34.573 -20.097 -20.530  0.00  0.00    +0.054 C 
ATOM     12  C   UNL     1      33.422 -20.733 -20.064  0.00  0.00    +0.005 C 
ATOM     13  C   UNL     1      35.831 -20.590 -20.182  0.00  0.00    +0.005 C 
ATOM     14  C   UNL     1      33.529 -21.862 -19.251  0.00  0.00    +0.000 C 
ATOM     15  C   UNL     1      35.938 -21.718 -19.370  0.00  0.00    +0.000 C 
ATOM     16  C   UNL     1      34.788 -22.355 -18.903  0.00  0.00    +0.000 C 
ENDBRANCH   8  11
BRANCH   5  17
ATOM     17  C   UNL     1      34.242 -14.004 -24.062  0.00  0.00    +0.037 C 
ATOM     18  C   UNL     1      33.565 -12.659 -23.993  0.00  0.00    +0.006 C 
ATOM     19  C   UNL     1      32.869 -13.812 -24.656  0.00  0.00    +0.006 C 
ENDBRANCH   5  17
TORSDOF 2
ENDMDL
MODEL 2
REMARK VINA RESULT:      -8.9      4.948      9.566
REMARK  Name = 449088
REMARK  2 active torsions:
REMARK  status: ('A' for Active; 'I' for Inactive)
REMARK    1  A    between atoms: C_5  and  C_17
REMARK    2  A    between atoms: C_8  and  C_11
REMARK                            x       y       z     vdW  Elec       q    Type
REMARK                         _______ _______ _______ _____ _____    ______ ____
ROOT
ATOM      1  O   UNL     1      34.156 -23.382 -17.919  0.00  0.00    -0.270 OA
ATOM      2  N   UNL     1      37.669 -23.365 -14.566  0.00  0.00    -0.239 N 
ATOM      3  N   UNL     1      37.591 -22.436 -15.535  0.00  0.00    -0.166 NA
ATOM      4  N   UNL     1      36.045 -22.115 -17.326  0.00  0.00    -0.265 N 
ATOM      5  C   UNL     1      36.677 -24.299 -14.618  0.00  0.00    +0.045 C 
ATOM      6  C   UNL     1      35.895 -23.960 -15.696  0.00  0.00    +0.048 C 
ATOM      7  C   UNL     1      36.511 -22.813 -16.208  0.00  0.00    +0.153 C 
ATOM      8  C   UNL     1      34.922 -22.423 -18.106  0.00  0.00    +0.251 C 
ATOM      9  H   UNL     1      38.377 -23.370 -13.883  0.00  0.00    +0.174 HD
ATOM     10  H   UNL     1      36.561 -21.322 -17.594  0.00  0.00    +0.157 HD
ENDROOT
BRANCH   8  11
ATOM     11  C   UNL     1      34.647 -21.507 -19.200  0.00  0.00    +0.054 C 
ATOM     12  C   UNL     1      33.329 -21.204 -19.542  0.00  0.00    +0.005 C 
ATOM     13  C   UNL     1      35.701 -20.930 -19.909  0.00  0.00    +0.005 C 
ATOM     14  C   UNL     1      33.064 -20.325 -20.593  0.00  0.00    +0.000 C 
ATOM     15  C   UNL     1      35.436 -20.051 -20.959  0.00  0.00    +0.000 C 
ATOM     16  C   UNL     1      34.119 -19.748 -21.302  0.00  0.00    +0.000 C 
ENDBRANCH   8  11
BRANCH   5  17
ATOM     17  C   UNL     1      36.484 -25.478 -13.672  0.00  0.00    +0.037 C 
ATOM     18  C   UNL     1      37.631 -25.910 -12.793  0.00  0.00    +0.006 C 
ATOM     19  C   UNL     1      37.209 -26.771 -13.949  0.00  0.00    +0.006 C 
ENDBRANCH   5  17
TORSDOF 2
ENDMDL
MODEL 3
REMARK VINA RESULT:      -8.9      2.844      7.646
REMARK  Name = 449088
REMARK  2 active torsions:
REMARK  status: ('A' for Active; 'I' for Inactive)
REMARK    1  A    between atoms: C_5  and  C_17
REMARK    2  A    between atoms: C_8  and  C_11
REMARK                            x       y       z     vdW  Elec       q    Type
REMARK                         _______ _______ _______ _____ _____    ______ ____
ROOT
ATOM      1  O   UNL     1      36.250 -19.880 -20.298  0.00  0.00    -0.270 OA
ATOM      2  N   UNL     1      32.884 -22.715 -18.243  0.00  0.00    -0.239 N 
ATOM      3  N   UNL     1      32.610 -21.902 -19.278  0.00  0.00    -0.166 NA
ATOM      4  N   UNL     1      33.967 -20.390 -20.532  0.00  0.00    -0.265 N 
ATOM      5  C   UNL     1      34.184 -22.664 -17.833  0.00  0.00    +0.045 C 
ATOM      6  C   UNL     1      34.804 -21.756 -18.656  0.00  0.00    +0.048 C 
ATOM      7  C   UNL     1      33.784 -21.330 -19.513  0.00  0.00    +0.153 C 
ATOM      8  C   UNL     1      35.157 -19.729 -20.866  0.00  0.00    +0.251 C 
ATOM      9  H   UNL     1      32.209 -23.292 -17.820  0.00  0.00    +0.174 HD
ATOM     10  H   UNL     1      33.175 -20.168 -21.072  0.00  0.00    +0.157 HD
ENDROOT
BRANCH   8  11
ATOM     11  C   UNL     1      35.073 -18.817 -21.995  0.00  0.00    +0.054 C 
ATOM     12  C   UNL     1      35.254 -17.448 -21.802  0.00  0.00    +0.005 C 
ATOM     13  C   UNL     1      34.811 -19.312 -23.273  0.00  0.00    +0.005 C 
ATOM     14  C   UNL     1      35.173 -16.573 -22.885  0.00  0.00    +0.000 C 
ATOM     15  C   UNL     1      34.730 -18.437 -24.356  0.00  0.00    +0.000 C 
ATOM     16  C   UNL     1      34.911 -17.068 -24.164  0.00  0.00    +0.000 C 
ENDBRANCH   8  11
BRANCH   5  17
ATOM     17  C   UNL     1      34.811 -23.456 -16.692  0.00  0.00    +0.037 C 
ATOM     18  C   UNL     1      33.994 -23.738 -15.457  0.00  0.00    +0.006 C 
ATOM     19  C   UNL     1      35.126 -22.754 -15.395  0.00  0.00    +0.006 C 
ENDBRANCH   5  17
TORSDOF 2
ENDMDL
MODEL 4
REMARK VINA RESULT:      -8.8      1.443      1.840
REMARK  Name = 449088
REMARK  2 active torsions:
REMARK  status: ('A' for Active; 'I' for Inactive)
REMARK    1  A    between atoms: C_5  and  C_17
REMARK    2  A    between atoms: C_8  and  C_11
REMARK                            x       y       z     vdW  Elec       q    Type
REMARK                         _______ _______ _______ _____ _____    ______ ____
ROOT
ATOM      1  O   UNL     1      35.632 -17.142 -22.547  0.00  0.00    -0.270 OA
ATOM      2  N   UNL     1      32.495 -13.435 -22.487  0.00  0.00    -0.239 N 
ATOM      3  N   UNL     1      32.272 -14.580 -21.819  0.00  0.00    -0.166 NA
ATOM      4  N   UNL     1      33.549 -16.586 -21.609  0.00  0.00    -0.265 N 
ATOM      5  C   UNL     1      33.673 -13.418 -23.174  0.00  0.00    +0.045 C 
ATOM      6  C   UNL     1      34.263 -14.636 -22.940  0.00  0.00    +0.048 C 
ATOM      7  C   UNL     1      33.353 -15.294 -22.106  0.00  0.00    +0.153 C 
ATOM      8  C   UNL     1      34.647 -17.424 -21.846  0.00  0.00    +0.251 C 
ATOM      9  H   UNL     1      31.865 -12.679 -22.481  0.00  0.00    +0.174 HD
ATOM     10  H   UNL     1      32.840 -16.946 -21.030  0.00  0.00    +0.157 HD
ENDROOT
BRANCH   8  11
ATOM     11  C   UNL     1      34.609 -18.715 -21.177  0.00  0.00    +0.054 C 
ATOM     12  C   UNL     1      33.384 -19.291 -20.842  0.00  0.00    +0.005 C 
ATOM     13  C   UNL     1      35.798 -19.376 -20.870  0.00  0.00    +0.005 C 
ATOM     14  C   UNL     1      33.347 -20.529 -20.200  0.00  0.00    +0.000 C 
ATOM     15  C   UNL     1      35.762 -20.613 -20.228  0.00  0.00    +0.000 C 
ATOM     16  C   UNL     1      34.537 -21.191 -19.893  0.00  0.00    +0.000 C 
ENDBRANCH   8  11
BRANCH   5  17
ATOM     17  C   UNL     1      34.215 -12.277 -24.026  0.00  0.00    +0.037 C 
ATOM     18  C   UNL     1      33.364 -11.051 -24.240  0.00  0.00    +0.006 C 
ATOM     19  C   UNL     1      33.596 -12.007 -25.374  0.00  0.00    +0.006 C 
ENDBRANCH   5  17
TORSDOF 2
ENDMDL
MODEL 5
REMARK VINA RESULT:      -8.8      2.107      2.477
REMARK  Name = 449088
REMARK  2 active torsions:
REMARK  status: ('A' for Active; 'I' for Inactive)
REMARK    1  A    between atoms: C_5  and  C_17
REMARK    2  A    between atoms: C_8  and  C_11
REMARK                            x       y       z     vdW  Elec       q    Type
REMARK                         _______ _______ _______ _____ _____    ______ ____
ROOT
ATOM      1  O   UNL     1      34.219 -16.684 -21.123  0.00  0.00    -0.270 OA
ATOM      2  N   UNL     1      33.861 -15.673 -25.860  0.00  0.00    -0.239 N 
ATOM      3  N   UNL     1      34.296 -16.861 -25.406  0.00  0.00    -0.166 NA
ATOM      4  N   UNL     1      34.604 -17.718 -23.199  0.00  0.00    -0.265 N 
ATOM      5  C   UNL     1      33.535 -14.792 -24.871  0.00  0.00    +0.045 C 
ATOM      6  C   UNL     1      33.773 -15.448 -23.688  0.00  0.00    +0.048 C 
ATOM      7  C   UNL     1      34.235 -16.706 -24.090  0.00  0.00    +0.153 C 
ATOM      8  C   UNL     1      34.579 -17.662 -21.799  0.00  0.00    +0.251 C 
ATOM      9  H   UNL     1      33.785 -15.459 -26.818  0.00  0.00    +0.174 HD
ATOM     10  H   UNL     1      34.915 -18.562 -23.599  0.00  0.00    +0.157 HD
ENDROOT
BRANCH   8  11
ATOM     11  C   UNL     1      34.990 -18.876 -21.114  0.00  0.00    +0.054 C 
ATOM     12  C   UNL     1      34.032 -19.796 -20.689  0.00  0.00    +0.005 C 
ATOM     13  C   UNL     1      36.343 -19.121 -20.880  0.00  0.00    +0.005 C 
ATOM     14  C   UNL     1      34.426 -20.961 -20.030  0.00  0.00    +0.000 C 
ATOM     15  C   UNL     1      36.738 -20.285 -20.222  0.00  0.00    +0.000 C 
ATOM     16  C   UNL     1      35.781 -21.206 -19.796  0.00  0.00    +0.000 C 
ENDBRANCH   8  11
BRANCH   5  17
ATOM     17  C   UNL     1      33.015 -13.372 -25.052  0.00  0.00    +0.037 C 
ATOM     18  C   UNL     1      33.559 -12.527 -26.176  0.00  0.00    +0.006 C 
ATOM     19  C   UNL     1      33.931 -12.210 -24.757  0.00  0.00    +0.006 C 
ENDBRANCH   5  17
TORSDOF 2
ENDMDL
MODEL 6
REMARK VINA RESULT:      -8.7      2.573      7.389
REMARK  Name = 449088
REMARK  2 active torsions:
REMARK  status: ('A' for Active; 'I' for Inactive)
REMARK    1  A    between atoms: C_5  and  C_17
REMARK    2  A    between atoms: C_8  and  C_11
REMARK                            x       y       z     vdW  Elec       q    Type
REMARK                         _______ _______ _______ _____ _____    ______ ____
ROOT
ATOM      1  O   UNL     1      33.081 -20.079 -21.269  0.00  0.00    -0.270 OA
ATOM      2  N   UNL     1      35.917 -22.175 -17.929  0.00  0.00    -0.239 N 
ATOM      3  N   UNL     1      36.370 -21.230 -18.772  0.00  0.00    -0.166 NA
ATOM      4  N   UNL     1      35.305 -19.991 -20.512  0.00  0.00    -0.265 N 
ATOM      5  C   UNL     1      34.599 -22.481 -18.104  0.00  0.00    +0.045 C 
ATOM      6  C   UNL     1      34.159 -21.683 -19.131  0.00  0.00    +0.048 C 
ATOM      7  C   UNL     1      35.292 -20.946 -19.491  0.00  0.00    +0.153 C 
ATOM      8  C   UNL     1      34.230 -19.613 -21.328  0.00  0.00    +0.251 C 
ATOM      9  H   UNL     1      36.484 -22.605 -17.250  0.00  0.00    +0.174 HD
ATOM     10  H   UNL     1      36.161 -19.534 -20.675  0.00  0.00    +0.157 HD
ENDROOT
BRANCH   8  11
ATOM     11  C   UNL     1      34.514 -18.567 -22.297  0.00  0.00    +0.054 C 
ATOM     12  C   UNL     1      34.612 -18.880 -23.653  0.00  0.00    +0.005 C 
ATOM     13  C   UNL     1      34.689 -17.251 -21.871  0.00  0.00    +0.005 C 
ATOM     14  C   UNL     1      34.885 -17.877 -24.583  0.00  0.00    +0.000 C 
ATOM     15  C   UNL     1      34.962 -16.248 -22.801  0.00  0.00    +0.000 C 
ATOM     16  C   UNL     1      35.060 -16.559 -24.157  0.00  0.00    +0.000 C 
ENDBRANCH   8  11
BRANCH   5  17
ATOM     17  C   UNL     1      33.790 -23.504 -17.316  0.00  0.00    +0.037 C 
ATOM     18  C   UNL     1      32.375 -23.172 -16.917  0.00  0.00    +0.006 C 
ATOM     19  C   UNL     1      33.453 -23.223 -15.873  0.00  0.00    +0.006 C 
ENDBRANCH   5  17
TORSDOF 2
ENDMDL
MODEL 7
REMARK VINA RESULT:      -8.7      2.872      7.238
REMARK  Name = 449088
REMARK  2 active torsions:
REMARK  status: ('A' for Active; 'I' for Inactive)
REMARK    1  A    between atoms: C_5  and  C_17
REMARK    2  A    between atoms: C_8  and  C_11
REMARK                            x       y       z     vdW  Elec       q    Type
REMARK                         _______ _______ _______ _____ _____    ______ ____
ROOT
ATOM      1  O   UNL     1      32.341 -15.192 -20.389  0.00  0.00    -0.270 OA
ATOM      2  N   UNL     1      35.680 -17.158 -23.317  0.00  0.00    -0.239 N 
ATOM      3  N   UNL     1      35.305 -15.871 -23.412  0.00  0.00    -0.166 NA
ATOM      4  N   UNL     1      33.730 -14.566 -22.181  0.00  0.00    -0.265 N 
ATOM      5  C   UNL     1      35.039 -17.847 -22.330  0.00  0.00    +0.045 C 
ATOM      6  C   UNL     1      34.184 -16.950 -21.739  0.00  0.00    +0.048 C 
ATOM      7  C   UNL     1      34.399 -15.764 -22.448  0.00  0.00    +0.153 C 
ATOM      8  C   UNL     1      32.761 -14.343 -21.192  0.00  0.00    +0.251 C 
ATOM      9  H   UNL     1      36.355 -17.566 -23.906  0.00  0.00    +0.174 HD
ATOM     10  H   UNL     1      33.964 -13.797 -22.747  0.00  0.00    +0.157 HD
ENDROOT
BRANCH   8  11
ATOM     11  C   UNL     1      32.246 -12.986 -21.112  0.00  0.00    +0.054 C 
ATOM     12  C   UNL     1      32.005 -12.404 -19.868  0.00  0.00    +0.005 C 
ATOM     13  C   UNL     1      31.993 -12.266 -22.280  0.00  0.00    +0.005 C 
ATOM     14  C   UNL     1      31.510 -11.101 -19.791  0.00  0.00    +0.000 C 
ATOM     15  C   UNL     1      31.499 -10.965 -22.203  0.00  0.00    +0.000 C 
ATOM     16  C   UNL     1      31.257 -10.381 -20.960  0.00  0.00    +0.000 C 
ENDBRANCH   8  11
BRANCH   5  17
ATOM     17  C   UNL     1      35.235 -19.314 -21.968  0.00  0.00    +0.037 C 
ATOM     18  C   UNL     1      34.543 -19.869 -20.749  0.00  0.00    +0.006 C 
ATOM     19  C   UNL     1      36.031 -19.668 -20.737  0.00  0.00    +0.006 C 
ENDBRANCH   5  17
TORSDOF 2
ENDMDL
MODEL 8
REMARK VINA RESULT:      -8.7      3.902      7.929
REMARK  Name = 449088
REMARK  2 active torsions:
REMARK  status: ('A' for Active; 'I' for Inactive)
REMARK    1  A    between atoms: C_5  and  C_17
REMARK    2  A    between atoms: C_8  and  C_11
REMARK                            x       y       z     vdW  Elec       q    Type
REMARK                         _______ _______ _______ _____ _____    ______ ____
ROOT
ATOM      1  O   UNL     1      32.624 -20.499 -20.000  0.00  0.00    -0.270 OA
ATOM      2  N   UNL     1      33.975 -23.697 -16.604  0.00  0.00    -0.239 N 
ATOM      3  N   UNL     1      34.857 -23.095 -17.421  0.00  0.00    -0.166 NA
ATOM      4  N   UNL     1      34.585 -21.500 -19.177  0.00  0.00    -0.265 N 
ATOM      5  C   UNL     1      32.681 -23.325 -16.822  0.00  0.00    +0.045 C 
ATOM      6  C   UNL     1      32.718 -22.417 -17.852  0.00  0.00    +0.048 C 
ATOM      7  C   UNL     1      34.077 -22.324 -18.168  0.00  0.00    +0.153 C 
ATOM      8  C   UNL     1      33.856 -20.651 -20.020  0.00  0.00    +0.251 C 
ATOM      9  H   UNL     1      34.239 -24.346 -15.914  0.00  0.00    +0.174 HD
ATOM     10  H   UNL     1      35.560 -21.518 -19.308  0.00  0.00    +0.157 HD
ENDROOT
BRANCH   8  11
ATOM     11  C   UNL     1      34.644 -19.878 -20.967  0.00  0.00    +0.054 C 
ATOM     12  C   UNL     1      35.977 -19.579 -20.686  0.00  0.00    +0.005 C 
ATOM     13  C   UNL     1      34.066 -19.436 -22.157  0.00  0.00    +0.005 C 
ATOM     14  C   UNL     1      36.732 -18.837 -21.595  0.00  0.00    +0.000 C 
ATOM     15  C   UNL     1      34.820 -18.694 -23.065  0.00  0.00    +0.000 C 
ATOM     16  C   UNL     1      36.153 -18.395 -22.785  0.00  0.00    +0.000 C 
ENDBRANCH   8  11
BRANCH   5  17
ATOM     17  C   UNL     1      31.452 -23.822 -16.072  0.00  0.00    +0.037 C 
ATOM     18  C   UNL     1      30.174 -23.025 -16.144  0.00  0.00    +0.006 C 
ATOM     19  C   UNL     1      30.964 -23.056 -14.868  0.00  0.00    +0.006 C 
ENDBRANCH   5  17
TORSDOF 2
ENDMDL
MODEL 9
REMARK VINA RESULT:      -8.5      1.358      2.091
REMARK  Name = 449088
REMARK  2 active torsions:
REMARK  status: ('A' for Active; 'I' for Inactive)
REMARK    1  A    between atoms: C_5  and  C_17
REMARK    2  A    between atoms: C_8  and  C_11
REMARK                            x       y       z     vdW  Elec       q    Type
REMARK                         _______ _______ _______ _____ _____    ______ ____
ROOT
ATOM      1  O   UNL     1      34.795 -17.469 -23.014  0.00  0.00    -0.270 OA
ATOM      2  N   UNL     1      32.440 -13.555 -21.363  0.00  0.00    -0.239 N 
ATOM      3  N   UNL     1      32.707 -14.618 -20.585  0.00  0.00    -0.166 NA
ATOM      4  N   UNL     1      33.820 -16.685 -21.023  0.00  0.00    -0.265 N 
ATOM      5  C   UNL     1      32.889 -13.684 -22.644  0.00  0.00    +0.045 C 
ATOM      6  C   UNL     1      33.492 -14.916 -22.710  0.00  0.00    +0.048 C 
ATOM      7  C   UNL     1      33.345 -15.431 -21.418  0.00  0.00    +0.153 C 
ATOM      8  C   UNL     1      34.503 -17.617 -21.816  0.00  0.00    +0.251 C 
ATOM      9  H   UNL     1      31.963 -12.758 -21.038  0.00  0.00    +0.174 HD
ATOM     10  H   UNL     1      33.658 -16.941 -20.087  0.00  0.00    +0.157 HD
ENDROOT
BRANCH   8  11
ATOM     11  C   UNL     1      34.912 -18.837 -21.140  0.00  0.00    +0.054 C 
ATOM     12  C   UNL     1      36.265 -19.096 -20.924  0.00  0.00    +0.005 C 
ATOM     13  C   UNL     1      33.950 -19.751 -20.707  0.00  0.00    +0.005 C 
ATOM     14  C   UNL     1      36.658 -20.267 -20.275  0.00  0.00    +0.000 C 
ATOM     15  C   UNL     1      34.342 -20.921 -20.059  0.00  0.00    +0.000 C 
ATOM     16  C   UNL     1      35.695 -21.181 -19.843  0.00  0.00    +0.000 C 
ENDBRANCH   8  11
BRANCH   5  17
ATOM     17  C   UNL     1      32.744 -12.664 -23.767  0.00  0.00    +0.037 C 
ATOM     18  C   UNL     1      33.760 -12.648 -24.881  0.00  0.00    +0.006 C 
ATOM     19  C   UNL     1      33.741 -11.537 -23.871  0.00  0.00    +0.006 C 
ENDBRANCH   5  17
TORSDOF 2
ENDMDL
