MODEL 1
REMARK VINA RESULT:      -8.9      0.000      0.000
REMARK  Name = 3374
REMARK  2 active torsions:
REMARK  status: ('A' for Active; 'I' for Inactive)
REMARK    1  A    between atoms: C_13  and  C_18
REMARK    2  A    between atoms: C_18  and  O_19
REMARK                            x       y       z     vdW  Elec       q    Type
REMARK                         _______ _______ _______ _____ _____    ______ ____
ROOT
ATOM      1  F   UNL     1      34.627 -22.378 -19.190  0.00  0.00    -0.204 F 
ATOM      2  O   UNL     1      36.476 -23.882 -14.751  0.00  0.00    -0.286 OA
ATOM      3  N   UNL     1      32.426 -23.803 -14.269  0.00  0.00    -0.287 N 
ATOM      4  C   UNL     1      30.962 -23.893 -14.124  0.00  0.00    +0.078 C 
ATOM      5  C   UNL     1      30.258 -22.831 -14.971  0.00  0.00    +0.025 C 
ATOM      6  C   UNL     1      30.647 -22.934 -16.440  0.00  0.00    +0.029 C 
ATOM      7  C   UNL     1      32.961 -23.425 -15.522  0.00  0.00    +0.051 C 
ATOM      8  C   UNL     1      32.143 -23.004 -16.590  0.00  0.00    -0.006 C 
ATOM      9  C   UNL     1      34.360 -23.449 -15.724  0.00  0.00    +0.055 C 
ATOM     10  C   UNL     1      30.490 -25.315 -14.446  0.00  0.00    +0.022 C 
ATOM     11  C   UNL     1      33.285 -24.174 -13.249  0.00  0.00    +0.075 C 
ATOM     12  C   UNL     1      32.716 -22.666 -17.827  0.00  0.00    +0.027 C 
ATOM     13  C   UNL     1      34.621 -24.221 -13.324  0.00  0.00    +0.129 C 
ATOM     14  C   UNL     1      35.259 -23.854 -14.612  0.00  0.00    +0.204 C 
ATOM     15  C   UNL     1      34.921 -23.096 -16.956  0.00  0.00    +0.034 C 
ATOM     16  C   UNL     1      34.095 -22.711 -18.007  0.00  0.00    +0.140 C 
ENDROOT
BRANCH  13  18
ATOM     17  O   UNL     1      35.246 -24.147 -11.032  0.00  0.00    -0.245 OA
ATOM     18  C   UNL     1      35.370 -24.641 -12.138  0.00  0.00    +0.342 C 
BRANCH  18  19
ATOM     19  O   UNL     1      36.206 -25.650 -12.463  0.00  0.00    -0.477 OA
ATOM     20  H   UNL     1      36.360 -26.345 -11.853  0.00  0.00    +0.295 HD
ENDBRANCH  18  19
ENDBRANCH  13  18
TORSDOF 2
ENDMDL
MODEL 2
REMARK VINA RESULT:      -8.6      2.773      4.689
REMARK  Name = 3374
REMARK  2 active torsions:
REMARK  status: ('A' for Active; 'I' for Inactive)
REMARK    1  A    between atoms: C_13  and  C_18
REMARK    2  A    between atoms: C_18  and  O_19
REMARK                            x       y       z     vdW  Elec       q    Type
REMARK                         _______ _______ _______ _____ _____    ______ ____
ROOT
ATOM      1  F   UNL     1      36.450 -23.930 -12.394  0.00  0.00    -0.204 F 
ATOM      2  O   UNL     1      35.940 -22.503 -17.198  0.00  0.00    -0.286 OA
ATOM      3  N   UNL     1      32.228 -23.728 -16.032  0.00  0.00    -0.287 N 
ATOM      4  C   UNL     1      30.863 -24.054 -15.582  0.00  0.00    +0.078 C 
ATOM      5  C   UNL     1      30.880 -25.163 -14.527  0.00  0.00    +0.025 C 
ATOM      6  C   UNL     1      31.750 -24.791 -13.334  0.00  0.00    +0.029 C 
ATOM      7  C   UNL     1      33.286 -23.801 -15.095  0.00  0.00    +0.051 C 
ATOM      8  C   UNL     1      33.098 -24.302 -13.791  0.00  0.00    -0.006 C 
ATOM      9  C   UNL     1      34.582 -23.377 -15.466  0.00  0.00    +0.055 C 
ATOM     10  C   UNL     1      30.154 -22.786 -15.096  0.00  0.00    +0.022 C 
ATOM     11  C   UNL     1      32.485 -23.258 -17.308  0.00  0.00    +0.075 C 
ATOM     12  C   UNL     1      34.170 -24.328 -12.884  0.00  0.00    +0.027 C 
ATOM     13  C   UNL     1      33.671 -22.843 -17.770  0.00  0.00    +0.129 C 
ATOM     14  C   UNL     1      34.829 -22.874 -16.842  0.00  0.00    +0.204 C 
ATOM     15  C   UNL     1      35.647 -23.421 -14.559  0.00  0.00    +0.034 C 
ATOM     16  C   UNL     1      35.435 -23.891 -13.267  0.00  0.00    +0.140 C 
ENDROOT
BRANCH  13  18
ATOM     17  O   UNL     1      32.887 -21.732 -19.720  0.00  0.00    -0.245 OA
ATOM     18  C   UNL     1      33.753 -22.376 -19.154  0.00  0.00    +0.342 C 
BRANCH  18  19
ATOM     19  O   UNL     1      34.926 -22.765 -19.697  0.00  0.00    -0.477 OA
ATOM     20  H   UNL     1      35.539 -23.257 -19.184  0.00  0.00    +0.295 HD
ENDBRANCH  18  19
ENDBRANCH  13  18
TORSDOF 2
ENDMDL
MODEL 3
REMARK VINA RESULT:      -8.6      8.909     10.837
REMARK  Name = 3374
REMARK  2 active torsions:
REMARK  status: ('A' for Active; 'I' for Inactive)
REMARK    1  A    between atoms: C_13  and  C_18
REMARK    2  A    between atoms: C_18  and  O_19
REMARK                            x       y       z     vdW  Elec       q    Type
REMARK                         _______ _______ _______ _____ _____    ______ ____
ROOT
ATOM      1  F   UNL     1      33.384 -15.173 -26.939  0.00  0.00    -0.204 F 
ATOM      2  O   UNL     1      35.749 -18.521 -24.011  0.00  0.00    -0.286 OA
ATOM      3  N   UNL     1      34.011 -15.872 -21.442  0.00  0.00    -0.287 N 
ATOM      4  C   UNL     1      33.286 -14.990 -20.508  0.00  0.00    +0.078 C 
ATOM      5  C   UNL     1      33.174 -13.570 -21.067  0.00  0.00    +0.025 C 
ATOM      6  C   UNL     1      32.499 -13.554 -22.432  0.00  0.00    +0.029 C 
ATOM      7  C   UNL     1      33.848 -15.666 -22.832  0.00  0.00    +0.051 C 
ATOM      8  C   UNL     1      33.129 -14.569 -23.348  0.00  0.00    -0.006 C 
ATOM      9  C   UNL     1      34.432 -16.570 -23.748  0.00  0.00    +0.055 C 
ATOM     10  C   UNL     1      31.924 -15.600 -20.161  0.00  0.00    +0.022 C 
ATOM     11  C   UNL     1      34.757 -16.950 -21.000  0.00  0.00    +0.075 C 
ATOM     12  C   UNL     1      32.969 -14.420 -24.735  0.00  0.00    +0.027 C 
ATOM     13  C   UNL     1      35.362 -17.859 -21.774  0.00  0.00    +0.129 C 
ATOM     14  C   UNL     1      35.226 -17.721 -23.245  0.00  0.00    +0.204 C 
ATOM     15  C   UNL     1      34.277 -16.405 -25.129  0.00  0.00    +0.034 C 
ATOM     16  C   UNL     1      33.539 -15.332 -25.619  0.00  0.00    +0.140 C 
ENDROOT
BRANCH  13  18
ATOM     17  O   UNL     1      35.635 -19.731 -20.334  0.00  0.00    -0.245 OA
ATOM     18  C   UNL     1      36.111 -18.937 -21.126  0.00  0.00    +0.342 C 
BRANCH  18  19
ATOM     19  O   UNL     1      37.395 -18.911 -21.542  0.00  0.00    -0.477 OA
ATOM     20  H   UNL     1      37.781 -19.679 -21.919  0.00  0.00    +0.295 HD
ENDBRANCH  18  19
ENDBRANCH  13  18
TORSDOF 2
ENDMDL
MODEL 4
REMARK VINA RESULT:      -8.5     10.782     12.908
REMARK  Name = 3374
REMARK  2 active torsions:
REMARK  status: ('A' for Active; 'I' for Inactive)
REMARK    1  A    between atoms: C_13  and  C_18
REMARK    2  A    between atoms: C_18  and  O_19
REMARK                            x       y       z     vdW  Elec       q    Type
REMARK                         _______ _______ _______ _____ _____    ______ ____
ROOT
ATOM      1  F   UNL     1      32.491 -14.685 -19.350  0.00  0.00    -0.204 F 
ATOM      2  O   UNL     1      32.138 -13.281 -24.176  0.00  0.00    -0.286 OA
ATOM      3  N   UNL     1      34.482 -16.620 -24.187  0.00  0.00    -0.287 N 
ATOM      4  C   UNL     1      35.227 -17.892 -24.212  0.00  0.00    +0.078 C 
ATOM      5  C   UNL     1      36.065 -18.063 -22.943  0.00  0.00    +0.025 C 
ATOM      6  C   UNL     1      35.208 -17.982 -21.687  0.00  0.00    +0.029 C 
ATOM      7  C   UNL     1      33.999 -16.141 -22.946  0.00  0.00    +0.051 C 
ATOM      8  C   UNL     1      34.322 -16.766 -21.725  0.00  0.00    -0.006 C 
ATOM      9  C   UNL     1      33.179 -14.991 -22.910  0.00  0.00    +0.055 C 
ATOM     10  C   UNL     1      34.263 -19.059 -24.447  0.00  0.00    +0.022 C 
ATOM     11  C   UNL     1      34.156 -15.941 -25.348  0.00  0.00    +0.075 C 
ATOM     12  C   UNL     1      33.797 -16.274 -20.520  0.00  0.00    +0.027 C 
ATOM     13  C   UNL     1      33.400 -14.839 -25.430  0.00  0.00    +0.129 C 
ATOM     14  C   UNL     1      32.842 -14.283 -24.172  0.00  0.00    +0.204 C 
ATOM     15  C   UNL     1      32.672 -14.500 -21.701  0.00  0.00    +0.034 C 
ATOM     16  C   UNL     1      32.978 -15.148 -20.509  0.00  0.00    +0.140 C 
ENDROOT
BRANCH  13  18
ATOM     17  O   UNL     1      34.035 -13.945 -27.539  0.00  0.00    -0.245 OA
ATOM     18  C   UNL     1      33.160 -14.256 -26.751  0.00  0.00    +0.342 C 
BRANCH  18  19
ATOM     19  O   UNL     1      31.832 -14.123 -26.954  0.00  0.00    -0.477 OA
ATOM     20  H   UNL     1      31.264 -14.861 -26.840  0.00  0.00    +0.295 HD
ENDBRANCH  18  19
ENDBRANCH  13  18
TORSDOF 2
ENDMDL
MODEL 5
REMARK VINA RESULT:      -8.4      3.407      5.300
REMARK  Name = 3374
REMARK  2 active torsions:
REMARK  status: ('A' for Active; 'I' for Inactive)
REMARK    1  A    between atoms: C_13  and  C_18
REMARK    2  A    between atoms: C_18  and  O_19
REMARK                            x       y       z     vdW  Elec       q    Type
REMARK                         _______ _______ _______ _____ _____    ______ ____
ROOT
ATOM      1  F   UNL     1      29.966 -24.399 -14.716  0.00  0.00    -0.204 F 
ATOM      2  O   UNL     1      32.722 -22.492 -18.478  0.00  0.00    -0.286 OA
ATOM      3  N   UNL     1      35.370 -23.250 -15.469  0.00  0.00    -0.287 N 
ATOM      4  C   UNL     1      36.348 -23.634 -14.435  0.00  0.00    +0.078 C 
ATOM      5  C   UNL     1      35.749 -23.496 -13.033  0.00  0.00    +0.025 C 
ATOM      6  C   UNL     1      34.476 -24.318 -12.882  0.00  0.00    +0.029 C 
ATOM      7  C   UNL     1      34.003 -23.538 -15.250  0.00  0.00    +0.051 C 
ATOM      8  C   UNL     1      33.533 -24.053 -14.024  0.00  0.00    -0.006 C 
ATOM      9  C   UNL     1      33.061 -23.294 -16.275  0.00  0.00    +0.055 C 
ATOM     10  C   UNL     1      36.882 -25.042 -14.714  0.00  0.00    +0.022 C 
ATOM     11  C   UNL     1      35.763 -22.715 -16.684  0.00  0.00    +0.075 C 
ATOM     12  C   UNL     1      32.170 -24.352 -13.861  0.00  0.00    +0.027 C 
ATOM     13  C   UNL     1      34.960 -22.432 -17.716  0.00  0.00    +0.129 C 
ATOM     14  C   UNL     1      33.511 -22.720 -17.570  0.00  0.00    +0.204 C 
ATOM     15  C   UNL     1      31.704 -23.582 -16.097  0.00  0.00    +0.034 C 
ATOM     16  C   UNL     1      31.263 -24.117 -14.890  0.00  0.00    +0.140 C 
ENDROOT
BRANCH  13  18
ATOM     17  O   UNL     1      36.268 -20.880 -18.952  0.00  0.00    -0.245 OA
ATOM     18  C   UNL     1      35.556 -21.868 -18.928  0.00  0.00    +0.342 C 
BRANCH  18  19
ATOM     19  O   UNL     1      35.197 -22.608 -19.998  0.00  0.00    -0.477 OA
ATOM     20  H   UNL     1      34.479 -22.335 -20.536  0.00  0.00    +0.295 HD
ENDBRANCH  18  19
ENDBRANCH  13  18
TORSDOF 2
ENDMDL
MODEL 6
REMARK VINA RESULT:      -8.3     13.028     14.998
REMARK  Name = 3374
REMARK  2 active torsions:
REMARK  status: ('A' for Active; 'I' for Inactive)
REMARK    1  A    between atoms: C_13  and  C_18
REMARK    2  A    between atoms: C_18  and  O_19
REMARK                            x       y       z     vdW  Elec       q    Type
REMARK                         _______ _______ _______ _____ _____    ______ ____
ROOT
ATOM      1  F   UNL     1      31.068 -11.083 -17.954  0.00  0.00    -0.204 F 
ATOM      2  O   UNL     1      32.424 -14.355 -21.537  0.00  0.00    -0.286 OA
ATOM      3  N   UNL     1      32.683 -10.675 -23.276  0.00  0.00    -0.287 N 
ATOM      4  C   UNL     1      32.896  -9.343 -23.872  0.00  0.00    +0.078 C 
ATOM      5  C   UNL     1      31.893  -8.327 -23.322  0.00  0.00    +0.025 C 
ATOM      6  C   UNL     1      31.960  -8.237 -21.803  0.00  0.00    +0.029 C 
ATOM      7  C   UNL     1      32.259 -10.753 -21.928  0.00  0.00    +0.051 C 
ATOM      8  C   UNL     1      31.905  -9.608 -21.186  0.00  0.00    -0.006 C 
ATOM      9  C   UNL     1      32.166 -12.013 -21.295  0.00  0.00    +0.055 C 
ATOM     10  C   UNL     1      34.351  -8.906 -23.676  0.00  0.00    +0.022 C 
ATOM     11  C   UNL     1      32.984 -11.839 -23.960  0.00  0.00    +0.075 C 
ATOM     12  C   UNL     1      31.517  -9.731 -19.842  0.00  0.00    +0.027 C 
ATOM     13  C   UNL     1      32.920 -13.082 -23.466  0.00  0.00    +0.129 C 
ATOM     14  C   UNL     1      32.497 -13.247 -22.053  0.00  0.00    +0.204 C 
ATOM     15  C   UNL     1      31.765 -12.126 -19.959  0.00  0.00    +0.034 C 
ATOM     16  C   UNL     1      31.447 -10.981 -19.234  0.00  0.00    +0.140 C 
ENDROOT
BRANCH  13  18
ATOM     17  O   UNL     1      32.791 -14.400 -25.440  0.00  0.00    -0.245 OA
ATOM     18  C   UNL     1      33.279 -14.198 -24.342  0.00  0.00    +0.342 C 
BRANCH  18  19
ATOM     19  O   UNL     1      34.224 -14.957 -23.747  0.00  0.00    -0.477 OA
ATOM     20  H   UNL     1      34.635 -15.652 -24.223  0.00  0.00    +0.295 HD
ENDBRANCH  18  19
ENDBRANCH  13  18
TORSDOF 2
ENDMDL
MODEL 7
REMARK VINA RESULT:      -8.0      2.569      4.564
REMARK  Name = 3374
REMARK  2 active torsions:
REMARK  status: ('A' for Active; 'I' for Inactive)
REMARK    1  A    between atoms: C_13  and  C_18
REMARK    2  A    between atoms: C_18  and  O_19
REMARK                            x       y       z     vdW  Elec       q    Type
REMARK                         _______ _______ _______ _____ _____    ______ ____
ROOT
ATOM      1  F   UNL     1      37.156 -21.949 -17.766  0.00  0.00    -0.204 F 
ATOM      2  O   UNL     1      32.559 -23.111 -16.064  0.00  0.00    -0.286 OA
ATOM      3  N   UNL     1      35.147 -24.527 -13.248  0.00  0.00    -0.287 N 
ATOM      4  C   UNL     1      36.068 -24.932 -12.170  0.00  0.00    +0.078 C 
ATOM      5  C   UNL     1      37.419 -25.375 -12.738  0.00  0.00    +0.025 C 
ATOM      6  C   UNL     1      38.056 -24.285 -13.590  0.00  0.00    +0.029 C 
ATOM      7  C   UNL     1      35.681 -23.888 -14.391  0.00  0.00    +0.051 C 
ATOM      8  C   UNL     1      37.070 -23.749 -14.592  0.00  0.00    -0.006 C 
ATOM      9  C   UNL     1      34.811 -23.380 -15.381  0.00  0.00    +0.055 C 
ATOM     10  C   UNL     1      36.200 -23.805 -11.141  0.00  0.00    +0.022 C 
ATOM     11  C   UNL     1      33.775 -24.661 -13.126  0.00  0.00    +0.075 C 
ATOM     12  C   UNL     1      37.555 -23.082 -15.728  0.00  0.00    +0.027 C 
ATOM     13  C   UNL     1      32.861 -24.231 -14.004  0.00  0.00    +0.129 C 
ATOM     14  C   UNL     1      33.341 -23.535 -15.224  0.00  0.00    +0.204 C 
ATOM     15  C   UNL     1      35.305 -22.729 -16.517  0.00  0.00    +0.034 C 
ATOM     16  C   UNL     1      36.678 -22.576 -16.684  0.00  0.00    +0.140 C 
ENDROOT
BRANCH  13  18
ATOM     17  O   UNL     1      30.849 -23.967 -12.766  0.00  0.00    -0.245 OA
ATOM     18  C   UNL     1      31.447 -24.461 -13.705  0.00  0.00    +0.342 C 
BRANCH  18  19
ATOM     19  O   UNL     1      30.918 -25.296 -14.625  0.00  0.00    -0.477 OA
ATOM     20  H   UNL     1      30.169 -25.030 -15.123  0.00  0.00    +0.295 HD
ENDBRANCH  18  19
ENDBRANCH  13  18
TORSDOF 2
ENDMDL
MODEL 8
REMARK VINA RESULT:      -8.0     10.366     12.496
REMARK  Name = 3374
REMARK  2 active torsions:
REMARK  status: ('A' for Active; 'I' for Inactive)
REMARK    1  A    between atoms: C_13  and  C_18
REMARK    2  A    between atoms: C_18  and  O_19
REMARK                            x       y       z     vdW  Elec       q    Type
REMARK                         _______ _______ _______ _____ _____    ______ ____
ROOT
ATOM      1  F   UNL     1      36.669 -19.043 -21.655  0.00  0.00    -0.204 F 
ATOM      2  O   UNL     1      34.933 -17.080 -25.957  0.00  0.00    -0.286 OA
ATOM      3  N   UNL     1      33.164 -14.916 -22.986  0.00  0.00    -0.287 N 
ATOM      4  C   UNL     1      32.617 -14.053 -21.923  0.00  0.00    +0.078 C 
ATOM      5  C   UNL     1      32.371 -14.850 -20.639  0.00  0.00    +0.025 C 
ATOM      6  C   UNL     1      33.639 -15.539 -20.154  0.00  0.00    +0.029 C 
ATOM      7  C   UNL     1      34.039 -15.966 -22.623  0.00  0.00    +0.051 C 
ATOM      8  C   UNL     1      34.296 -16.296 -21.277  0.00  0.00    -0.006 C 
ATOM      9  C   UNL     1      34.673 -16.730 -23.629  0.00  0.00    +0.055 C 
ATOM     10  C   UNL     1      33.534 -12.845 -21.704  0.00  0.00    +0.022 C 
ATOM     11  C   UNL     1      32.928 -14.664 -24.326  0.00  0.00    +0.075 C 
ATOM     12  C   UNL     1      35.195 -17.328 -20.963  0.00  0.00    +0.027 C 
ATOM     13  C   UNL     1      33.461 -15.328 -25.358  0.00  0.00    +0.129 C 
ATOM     14  C   UNL     1      34.403 -16.436 -25.060  0.00  0.00    +0.204 C 
ATOM     15  C   UNL     1      35.557 -17.765 -23.305  0.00  0.00    +0.034 C 
ATOM     16  C   UNL     1      35.820 -18.057 -21.970  0.00  0.00    +0.140 C 
ENDROOT
BRANCH  13  18
ATOM     17  O   UNL     1      33.717 -14.115 -27.386  0.00  0.00    -0.245 OA
ATOM     18  C   UNL     1      33.095 -14.918 -26.714  0.00  0.00    +0.342 C 
BRANCH  18  19
ATOM     19  O   UNL     1      31.973 -15.565 -27.097  0.00  0.00    -0.477 OA
ATOM     20  H   UNL     1      31.476 -16.053 -26.469  0.00  0.00    +0.295 HD
ENDBRANCH  18  19
ENDBRANCH  13  18
TORSDOF 2
ENDMDL
MODEL 9
REMARK VINA RESULT:      -7.9     10.865     13.167
REMARK  Name = 3374
REMARK  2 active torsions:
REMARK  status: ('A' for Active; 'I' for Inactive)
REMARK    1  A    between atoms: C_13  and  C_18
REMARK    2  A    between atoms: C_18  and  O_19
REMARK                            x       y       z     vdW  Elec       q    Type
REMARK                         _______ _______ _______ _____ _____    ______ ____
ROOT
ATOM      1  F   UNL     1      35.671 -17.580 -20.562  0.00  0.00    -0.204 F 
ATOM      2  O   UNL     1      34.525 -16.781 -25.402  0.00  0.00    -0.286 OA
ATOM      3  N   UNL     1      32.746 -13.738 -23.351  0.00  0.00    -0.287 N 
ATOM      4  C   UNL     1      32.204 -12.571 -22.631  0.00  0.00    +0.078 C 
ATOM      5  C   UNL     1      31.766 -12.952 -21.215  0.00  0.00    +0.025 C 
ATOM      6  C   UNL     1      32.908 -13.573 -20.421  0.00  0.00    +0.029 C 
ATOM      7  C   UNL     1      33.472 -14.707 -22.620  0.00  0.00    +0.051 C 
ATOM      8  C   UNL     1      33.576 -14.663 -21.215  0.00  0.00    -0.006 C 
ATOM      9  C   UNL     1      34.106 -15.770 -23.302  0.00  0.00    +0.055 C 
ATOM     10  C   UNL     1      33.220 -11.425 -22.649  0.00  0.00    +0.022 C 
ATOM     11  C   UNL     1      32.653 -13.856 -24.727  0.00  0.00    +0.075 C 
ATOM     12  C   UNL     1      34.331 -15.631 -20.533  0.00  0.00    +0.027 C 
ATOM     13  C   UNL     1      33.201 -14.823 -25.472  0.00  0.00    +0.129 C 
ATOM     14  C   UNL     1      33.992 -15.871 -24.780  0.00  0.00    +0.204 C 
ATOM     15  C   UNL     1      34.845 -16.737 -22.611  0.00  0.00    +0.034 C 
ATOM     16  C   UNL     1      34.960 -16.660 -21.227  0.00  0.00    +0.140 C 
ENDROOT
BRANCH  13  18
ATOM     17  O   UNL     1      33.519 -13.981 -27.672  0.00  0.00    -0.245 OA
ATOM     18  C   UNL     1      32.997 -14.785 -26.921  0.00  0.00    +0.342 C 
BRANCH  18  19
ATOM     19  O   UNL     1      32.150 -15.771 -27.286  0.00  0.00    -0.477 OA
ATOM     20  H   UNL     1      32.357 -16.318 -28.019  0.00  0.00    +0.295 HD
ENDBRANCH  18  19
ENDBRANCH  13  18
TORSDOF 2
ENDMDL
