MODEL 1
REMARK VINA RESULT:      -8.3      0.000      0.000
REMARK  Name = 1504717
REMARK  2 active torsions:
REMARK  status: ('A' for Active; 'I' for Inactive)
REMARK    1  A    between atoms: C_6  and  O_14
REMARK    2  A    between atoms: C_7  and  O_16
REMARK                            x       y       z     vdW  Elec       q    Type
REMARK                         _______ _______ _______ _____ _____    ______ ____
ROOT
ATOM      1  O   UNL     1      33.344 -15.453 -26.718  0.00  0.00    -0.270 OA
ATOM      2  N   UNL     1      33.656 -15.140 -24.424  0.00  0.00    -0.251 N 
ATOM      3  C   UNL     1      34.086 -15.701 -23.177  0.00  0.00    +0.091 C 
ATOM      4  C   UNL     1      34.565 -17.025 -23.142  0.00  0.00    +0.047 C 
ATOM      5  C   UNL     1      34.616 -17.814 -24.387  0.00  0.00    -0.013 C 
ATOM      6  C   UNL     1      34.041 -14.957 -21.984  0.00  0.00    +0.152 C 
ATOM      7  C   UNL     1      34.985 -17.566 -21.911  0.00  0.00    +0.140 C 
ATOM      8  C   UNL     1      33.695 -15.867 -25.613  0.00  0.00    +0.253 C 
ATOM      9  C   UNL     1      34.205 -17.256 -25.533  0.00  0.00    +0.054 C 
ATOM     10  C   UNL     1      34.463 -15.510 -20.775  0.00  0.00    +0.041 C 
ATOM     11  C   UNL     1      34.935 -16.814 -20.739  0.00  0.00    +0.040 C 
ATOM     12  C   UNL     1      33.160 -13.767 -24.449  0.00  0.00    +0.120 C 
ATOM     13  C   UNL     1      35.114 -19.233 -24.435  0.00  0.00    +0.031 C 
ENDROOT
BRANCH   6  14
ATOM     14  O   UNL     1      33.597 -13.670 -21.893  0.00  0.00    -0.470 OA
ATOM     15  C   UNL     1      32.508 -13.423 -21.007  0.00  0.00    +0.253 C 
ENDBRANCH   6  14
BRANCH   7  16
ATOM     16  O   UNL     1      35.466 -18.835 -21.768  0.00  0.00    -0.471 OA
ATOM     17  C   UNL     1      34.817 -19.667 -20.811  0.00  0.00    +0.252 C 
ENDBRANCH   7  16
TORSDOF 2
ENDMDL
MODEL 2
REMARK VINA RESULT:      -8.0      1.381      3.831
REMARK  Name = 1504717
REMARK  2 active torsions:
REMARK  status: ('A' for Active; 'I' for Inactive)
REMARK    1  A    between atoms: C_6  and  O_14
REMARK    2  A    between atoms: C_7  and  O_16
REMARK                            x       y       z     vdW  Elec       q    Type
REMARK                         _______ _______ _______ _____ _____    ______ ____
ROOT
ATOM      1  O   UNL     1      32.699 -13.547 -20.277  0.00  0.00    -0.270 OA
ATOM      2  N   UNL     1      32.996 -14.153 -22.514  0.00  0.00    -0.251 N 
ATOM      3  C   UNL     1      33.548 -15.091 -23.447  0.00  0.00    +0.091 C 
ATOM      4  C   UNL     1      34.264 -16.205 -22.968  0.00  0.00    +0.047 C 
ATOM      5  C   UNL     1      34.435 -16.391 -21.515  0.00  0.00    -0.013 C 
ATOM      6  C   UNL     1      33.391 -14.922 -24.835  0.00  0.00    +0.152 C 
ATOM      7  C   UNL     1      34.802 -17.119 -23.894  0.00  0.00    +0.140 C 
ATOM      8  C   UNL     1      33.145 -14.308 -21.137  0.00  0.00    +0.253 C 
ATOM      9  C   UNL     1      33.905 -15.493 -20.674  0.00  0.00    +0.054 C 
ATOM     10  C   UNL     1      33.930 -15.840 -25.737  0.00  0.00    +0.041 C 
ATOM     11  C   UNL     1      34.635 -16.938 -25.266  0.00  0.00    +0.040 C 
ATOM     12  C   UNL     1      32.257 -13.001 -23.021  0.00  0.00    +0.120 C 
ATOM     13  C   UNL     1      35.185 -17.552 -20.922  0.00  0.00    +0.031 C 
ENDROOT
BRANCH   6  14
ATOM     14  O   UNL     1      32.721 -13.885 -25.417  0.00  0.00    -0.470 OA
ATOM     15  C   UNL     1      33.074 -13.560 -26.759  0.00  0.00    +0.253 C 
ENDBRANCH   6  14
BRANCH   7  16
ATOM     16  O   UNL     1      35.509 -18.230 -23.536  0.00  0.00    -0.471 OA
ATOM     17  C   UNL     1      35.040 -19.482 -24.030  0.00  0.00    +0.252 C 
ENDBRANCH   7  16
TORSDOF 2
ENDMDL
MODEL 3
REMARK VINA RESULT:      -7.9      1.621      5.447
REMARK  Name = 1504717
REMARK  2 active torsions:
REMARK  status: ('A' for Active; 'I' for Inactive)
REMARK    1  A    between atoms: C_6  and  O_14
REMARK    2  A    between atoms: C_7  and  O_16
REMARK                            x       y       z     vdW  Elec       q    Type
REMARK                         _______ _______ _______ _____ _____    ______ ____
ROOT
ATOM      1  O   UNL     1      34.915 -15.759 -19.611  0.00  0.00    -0.270 OA
ATOM      2  N   UNL     1      34.879 -16.624 -21.781  0.00  0.00    -0.251 N 
ATOM      3  C   UNL     1      34.495 -16.436 -23.149  0.00  0.00    +0.091 C 
ATOM      4  C   UNL     1      33.831 -15.252 -23.526  0.00  0.00    +0.047 C 
ATOM      5  C   UNL     1      33.541 -14.225 -22.507  0.00  0.00    -0.013 C 
ATOM      6  C   UNL     1      34.767 -17.410 -24.128  0.00  0.00    +0.152 C 
ATOM      7  C   UNL     1      33.459 -15.078 -24.872  0.00  0.00    +0.140 C 
ATOM      8  C   UNL     1      34.615 -15.668 -20.802  0.00  0.00    +0.253 C 
ATOM      9  C   UNL     1      33.914 -14.437 -21.239  0.00  0.00    +0.054 C 
ATOM     10  C   UNL     1      34.391 -17.218 -25.457  0.00  0.00    +0.041 C 
ATOM     11  C   UNL     1      33.737 -16.052 -25.829  0.00  0.00    +0.040 C 
ATOM     12  C   UNL     1      35.566 -17.855 -21.401  0.00  0.00    +0.120 C 
ATOM     13  C   UNL     1      32.835 -12.935 -22.826  0.00  0.00    +0.031 C 
ENDROOT
BRANCH   6  14
ATOM     14  O   UNL     1      35.402 -18.593 -23.884  0.00  0.00    -0.470 OA
ATOM     15  C   UNL     1      34.886 -19.749 -24.540  0.00  0.00    +0.253 C 
ENDBRANCH   6  14
BRANCH   7  16
ATOM     16  O   UNL     1      32.814 -13.970 -25.341  0.00  0.00    -0.471 OA
ATOM     17  C   UNL     1      33.098 -13.575 -26.680  0.00  0.00    +0.252 C 
ENDBRANCH   7  16
TORSDOF 2
ENDMDL
MODEL 4
REMARK VINA RESULT:      -7.6      8.112     11.511
REMARK  Name = 1504717
REMARK  2 active torsions:
REMARK  status: ('A' for Active; 'I' for Inactive)
REMARK    1  A    between atoms: C_6  and  O_14
REMARK    2  A    between atoms: C_7  and  O_16
REMARK                            x       y       z     vdW  Elec       q    Type
REMARK                         _______ _______ _______ _____ _____    ______ ____
ROOT
ATOM      1  O   UNL     1      32.250 -24.602 -13.123  0.00  0.00    -0.270 OA
ATOM      2  N   UNL     1      34.446 -24.003 -13.651  0.00  0.00    -0.251 N 
ATOM      3  C   UNL     1      35.353 -23.486 -14.634  0.00  0.00    +0.091 C 
ATOM      4  C   UNL     1      34.866 -23.130 -15.906  0.00  0.00    +0.047 C 
ATOM      5  C   UNL     1      33.432 -23.295 -16.209  0.00  0.00    -0.013 C 
ATOM      6  C   UNL     1      36.723 -23.326 -14.354  0.00  0.00    +0.152 C 
ATOM      7  C   UNL     1      35.766 -22.624 -16.863  0.00  0.00    +0.140 C 
ATOM      8  C   UNL     1      33.087 -24.167 -13.915  0.00  0.00    +0.253 C 
ATOM      9  C   UNL     1      32.615 -23.781 -15.266  0.00  0.00    +0.054 C 
ATOM     10  C   UNL     1      37.598 -22.822 -15.315  0.00  0.00    +0.041 C 
ATOM     11  C   UNL     1      37.120 -22.470 -16.569  0.00  0.00    +0.040 C 
ATOM     12  C   UNL     1      34.961 -24.370 -12.335  0.00  0.00    +0.120 C 
ATOM     13  C   UNL     1      32.833 -22.939 -17.543  0.00  0.00    +0.031 C 
ENDROOT
BRANCH   6  14
ATOM     14  O   UNL     1      37.309 -23.636 -13.162  0.00  0.00    -0.470 OA
ATOM     15  C   UNL     1      38.321 -24.640 -13.181  0.00  0.00    +0.253 C 
ENDBRANCH   6  14
BRANCH   7  16
ATOM     16  O   UNL     1      35.398 -22.249 -18.123  0.00  0.00    -0.471 OA
ATOM     17  C   UNL     1      36.345 -21.493 -18.874  0.00  0.00    +0.252 C 
ENDBRANCH   7  16
TORSDOF 2
ENDMDL
MODEL 5
REMARK VINA RESULT:      -7.6      7.995     11.094
REMARK  Name = 1504717
REMARK  2 active torsions:
REMARK  status: ('A' for Active; 'I' for Inactive)
REMARK    1  A    between atoms: C_6  and  O_14
REMARK    2  A    between atoms: C_7  and  O_16
REMARK                            x       y       z     vdW  Elec       q    Type
REMARK                         _______ _______ _______ _____ _____    ______ ____
ROOT
ATOM      1  O   UNL     1      34.574 -24.543 -12.159  0.00  0.00    -0.270 OA
ATOM      2  N   UNL     1      33.472 -24.014 -14.151  0.00  0.00    -0.251 N 
ATOM      3  C   UNL     1      33.576 -23.524 -15.494  0.00  0.00    +0.091 C 
ATOM      4  C   UNL     1      34.836 -23.148 -15.999  0.00  0.00    +0.047 C 
ATOM      5  C   UNL     1      36.029 -23.263 -15.139  0.00  0.00    -0.013 C 
ATOM      6  C   UNL     1      32.444 -23.410 -16.322  0.00  0.00    +0.152 C 
ATOM      7  C   UNL     1      34.925 -22.668 -17.319  0.00  0.00    +0.140 C 
ATOM      8  C   UNL     1      34.585 -24.131 -13.320  0.00  0.00    +0.253 C 
ATOM      9  C   UNL     1      35.892 -23.725 -13.889  0.00  0.00    +0.054 C 
ATOM     10  C   UNL     1      32.554 -22.933 -17.628  0.00  0.00    +0.041 C 
ATOM     11  C   UNL     1      33.794 -22.563 -18.127  0.00  0.00    +0.040 C 
ATOM     12  C   UNL     1      32.161 -24.400 -13.637  0.00  0.00    +0.120 C 
ATOM     13  C   UNL     1      37.409 -22.883 -15.601  0.00  0.00    +0.031 C 
ENDROOT
BRANCH   6  14
ATOM     14  O   UNL     1      31.175 -23.741 -15.945  0.00  0.00    -0.470 OA
ATOM     15  C   UNL     1      30.119 -22.923 -16.443  0.00  0.00    +0.253 C 
ENDBRANCH   6  14
BRANCH   7  16
ATOM     16  O   UNL     1      36.096 -22.279 -17.904  0.00  0.00    -0.471 OA
ATOM     17  C   UNL     1      35.996 -21.543 -19.120  0.00  0.00    +0.252 C 
ENDBRANCH   7  16
TORSDOF 2
ENDMDL
MODEL 6
REMARK VINA RESULT:      -7.6      7.732     11.128
REMARK  Name = 1504717
REMARK  2 active torsions:
REMARK  status: ('A' for Active; 'I' for Inactive)
REMARK    1  A    between atoms: C_6  and  O_14
REMARK    2  A    between atoms: C_7  and  O_16
REMARK                            x       y       z     vdW  Elec       q    Type
REMARK                         _______ _______ _______ _____ _____    ______ ____
ROOT
ATOM      1  O   UNL     1      37.674 -23.233 -13.214  0.00  0.00    -0.270 OA
ATOM      2  N   UNL     1      35.481 -23.517 -13.967  0.00  0.00    -0.251 N 
ATOM      3  C   UNL     1      34.553 -23.396 -15.053  0.00  0.00    +0.091 C 
ATOM      4  C   UNL     1      34.999 -22.899 -16.294  0.00  0.00    +0.047 C 
ATOM      5  C   UNL     1      36.412 -22.511 -16.456  0.00  0.00    -0.013 C 
ATOM      6  C   UNL     1      33.202 -23.763 -14.907  0.00  0.00    +0.152 C 
ATOM      7  C   UNL     1      34.078 -22.784 -17.352  0.00  0.00    +0.140 C 
ATOM      8  C   UNL     1      36.821 -23.157 -14.099  0.00  0.00    +0.253 C 
ATOM      9  C   UNL     1      37.250 -22.638 -15.419  0.00  0.00    +0.054 C 
ATOM     10  C   UNL     1      32.306 -23.642 -15.969  0.00  0.00    +0.041 C 
ATOM     11  C   UNL     1      32.744 -23.154 -17.192  0.00  0.00    +0.040 C 
ATOM     12  C   UNL     1      35.008 -24.032 -12.686  0.00  0.00    +0.120 C 
ATOM     13  C   UNL     1      36.968 -21.971 -17.746  0.00  0.00    +0.031 C 
ENDROOT
BRANCH   6  14
ATOM     14  O   UNL     1      32.655 -24.254 -13.758  0.00  0.00    -0.470 OA
ATOM     15  C   UNL     1      31.498 -25.075 -13.893  0.00  0.00    +0.253 C 
ENDBRANCH   6  14
BRANCH   7  16
ATOM     16  O   UNL     1      34.407 -22.316 -18.592  0.00  0.00    -0.471 OA
ATOM     17  C   UNL     1      33.388 -21.629 -19.313  0.00  0.00    +0.252 C 
ENDBRANCH   7  16
TORSDOF 2
ENDMDL
MODEL 7
REMARK VINA RESULT:      -7.5      7.575     10.764
REMARK  Name = 1504717
REMARK  2 active torsions:
REMARK  status: ('A' for Active; 'I' for Inactive)
REMARK    1  A    between atoms: C_6  and  O_14
REMARK    2  A    between atoms: C_7  and  O_16
REMARK                            x       y       z     vdW  Elec       q    Type
REMARK                         _______ _______ _______ _____ _____    ______ ____
ROOT
ATOM      1  O   UNL     1      37.506 -23.426 -13.487  0.00  0.00    -0.270 OA
ATOM      2  N   UNL     1      36.486 -22.938 -15.532  0.00  0.00    -0.251 N 
ATOM      3  C   UNL     1      35.279 -22.924 -16.305  0.00  0.00    +0.091 C 
ATOM      4  C   UNL     1      34.078 -23.375 -15.724  0.00  0.00    +0.047 C 
ATOM      5  C   UNL     1      34.080 -23.854 -14.329  0.00  0.00    -0.013 C 
ATOM      6  C   UNL     1      35.268 -22.469 -17.637  0.00  0.00    +0.152 C 
ATOM      7  C   UNL     1      32.899 -23.357 -16.493  0.00  0.00    +0.140 C 
ATOM      8  C   UNL     1      36.511 -23.386 -14.212  0.00  0.00    +0.253 C 
ATOM      9  C   UNL     1      35.227 -23.852 -13.637  0.00  0.00    +0.054 C 
ATOM     10  C   UNL     1      34.089 -22.459 -18.382  0.00  0.00    +0.041 C 
ATOM     11  C   UNL     1      32.905 -22.902 -17.811  0.00  0.00    +0.040 C 
ATOM     12  C   UNL     1      37.726 -22.470 -16.144  0.00  0.00    +0.120 C 
ATOM     13  C   UNL     1      32.842 -24.351 -13.634  0.00  0.00    +0.031 C 
ENDROOT
BRANCH   6  14
ATOM     14  O   UNL     1      36.365 -22.012 -18.307  0.00  0.00    -0.470 OA
ATOM     15  C   UNL     1      36.138 -21.383 -19.565  0.00  0.00    +0.253 C 
ENDBRANCH   6  14
BRANCH   7  16
ATOM     16  O   UNL     1      31.685 -23.770 -16.026  0.00  0.00    -0.471 OA
ATOM     17  C   UNL     1      30.574 -22.911 -16.269  0.00  0.00    +0.252 C 
ENDBRANCH   7  16
TORSDOF 2
ENDMDL
MODEL 8
REMARK VINA RESULT:      -7.5      4.016      7.313
REMARK  Name = 1504717
REMARK  2 active torsions:
REMARK  status: ('A' for Active; 'I' for Inactive)
REMARK    1  A    between atoms: C_6  and  O_14
REMARK    2  A    between atoms: C_7  and  O_16
REMARK                            x       y       z     vdW  Elec       q    Type
REMARK                         _______ _______ _______ _____ _____    ______ ____
ROOT
ATOM      1  O   UNL     1      32.204 -14.668 -22.035  0.00  0.00    -0.270 OA
ATOM      2  N   UNL     1      32.939 -12.704 -23.064  0.00  0.00    -0.251 N 
ATOM      3  C   UNL     1      32.984 -11.271 -23.036  0.00  0.00    +0.091 C 
ATOM      4  C   UNL     1      32.351 -10.578 -21.986  0.00  0.00    +0.047 C 
ATOM      5  C   UNL     1      31.652 -11.335 -20.932  0.00  0.00    -0.013 C 
ATOM      6  C   UNL     1      33.649 -10.540 -24.038  0.00  0.00    +0.152 C 
ATOM      7  C   UNL     1      32.403  -9.171 -21.970  0.00  0.00    +0.140 C 
ATOM      8  C   UNL     1      32.284 -13.440 -22.078  0.00  0.00    +0.253 C 
ATOM      9  C   UNL     1      31.630 -12.673 -20.991  0.00  0.00    +0.054 C 
ATOM     10  C   UNL     1      33.689  -9.146 -24.003  0.00  0.00    +0.041 C 
ATOM     11  C   UNL     1      33.067  -8.462 -22.969  0.00  0.00    +0.040 C 
ATOM     12  C   UNL     1      33.597 -13.412 -24.157  0.00  0.00    +0.120 C 
ATOM     13  C   UNL     1      30.951 -10.672 -19.777  0.00  0.00    +0.031 C 
ENDROOT
BRANCH   6  14
ATOM     14  O   UNL     1      34.295 -11.098 -25.102  0.00  0.00    -0.470 OA
ATOM     15  C   UNL     1      35.367 -10.351 -25.672  0.00  0.00    +0.253 C 
ENDBRANCH   6  14
BRANCH   7  16
ATOM     16  O   UNL     1      31.824  -8.405 -20.999  0.00  0.00    -0.471 OA
ATOM     17  C   UNL     1      32.660  -7.455 -20.344  0.00  0.00    +0.252 C 
ENDBRANCH   7  16
TORSDOF 2
ENDMDL
MODEL 9
REMARK VINA RESULT:      -7.5      8.562     11.116
REMARK  Name = 1504717
REMARK  2 active torsions:
REMARK  status: ('A' for Active; 'I' for Inactive)
REMARK    1  A    between atoms: C_6  and  O_14
REMARK    2  A    between atoms: C_7  and  O_16
REMARK                            x       y       z     vdW  Elec       q    Type
REMARK                         _______ _______ _______ _____ _____    ______ ____
ROOT
ATOM      1  O   UNL     1      30.224 -23.969 -15.766  0.00  0.00    -0.270 OA
ATOM      2  N   UNL     1      32.340 -23.971 -14.775  0.00  0.00    -0.251 N 
ATOM      3  C   UNL     1      33.740 -23.697 -14.918  0.00  0.00    +0.091 C 
ATOM      4  C   UNL     1      34.227 -23.199 -16.142  0.00  0.00    +0.047 C 
ATOM      5  C   UNL     1      33.291 -22.967 -17.257  0.00  0.00    -0.013 C 
ATOM      6  C   UNL     1      34.640 -23.916 -13.859  0.00  0.00    +0.152 C 
ATOM      7  C   UNL     1      35.604 -22.935 -16.270  0.00  0.00    +0.140 C 
ATOM      8  C   UNL     1      31.437 -23.758 -15.815  0.00  0.00    +0.253 C 
ATOM      9  C   UNL     1      31.990 -23.235 -17.087  0.00  0.00    +0.054 C 
ATOM     10  C   UNL     1      36.001 -23.647 -14.006  0.00  0.00    +0.041 C 
ATOM     11  C   UNL     1      36.482 -23.156 -15.211  0.00  0.00    +0.040 C 
ATOM     12  C   UNL     1      31.845 -24.488 -13.502  0.00  0.00    +0.120 C 
ATOM     13  C   UNL     1      33.730 -22.438 -18.596  0.00  0.00    +0.031 C 
ENDROOT
BRANCH   6  14
ATOM     14  O   UNL     1      34.288 -24.395 -12.631  0.00  0.00    -0.470 OA
ATOM     15  C   UNL     1      35.336 -24.571 -11.681  0.00  0.00    +0.253 C 
ENDBRANCH   6  14
BRANCH   7  16
ATOM     16  O   UNL     1      36.177 -22.451 -17.410  0.00  0.00    -0.471 OA
ATOM     17  C   UNL     1      37.076 -21.354 -17.266  0.00  0.00    +0.252 C 
ENDBRANCH   7  16
TORSDOF 2
ENDMDL
