MODEL 1
REMARK VINA RESULT:      -9.5      0.000      0.000
REMARK  Name = 54736486
REMARK  6 active torsions:
REMARK  status: ('A' for Active; 'I' for Inactive)
REMARK    1  A    between atoms: C_3  and  C_14
REMARK    2  A    between atoms: C_4  and  O_12
REMARK    3  A    between atoms: C_14  and  C_15
REMARK    4  A    between atoms: C_14  and  C_21
REMARK    5  A    between atoms: C_21  and  C_22
REMARK    6  A    between atoms: C_22  and  O_24
REMARK                            x       y       z     vdW  Elec       q    Type
REMARK                         _______ _______ _______ _____ _____    ______ ____
ROOT
ATOM      1  O   UNL     1      36.364 -20.307 -19.847  0.00  0.00    -0.421 OA
ATOM      2  O   UNL     1      36.837 -18.661 -21.343  0.00  0.00    -0.245 OA
ATOM      3  C   UNL     1      34.561 -19.345 -21.218  0.00  0.00    +0.091 A 
ATOM      4  C   UNL     1      33.667 -20.159 -20.626  0.00  0.00    +0.139 A 
ATOM      5  C   UNL     1      36.000 -19.393 -20.827  0.00  0.00    +0.345 A 
ATOM      6  C   UNL     1      34.085 -21.112 -19.594  0.00  0.00    +0.068 A 
ATOM      7  C   UNL     1      35.428 -21.157 -19.234  0.00  0.00    +0.152 A 
ATOM      8  C   UNL     1      33.204 -21.987 -18.944  0.00  0.00    +0.006 C 
ATOM      9  C   UNL     1      35.909 -22.035 -18.263  0.00  0.00    +0.038 C 
ATOM     10  C   UNL     1      33.670 -22.873 -17.967  0.00  0.00    +0.000 C 
ATOM     11  C   UNL     1      35.022 -22.897 -17.628  0.00  0.00    +0.003 C 
ENDROOT
BRANCH   4  12
ATOM     12  O   UNL     1      32.319 -20.183 -20.913  0.00  0.00    -0.506 OA
ATOM     13  H   UNL     1      32.016 -19.926 -21.761  0.00  0.00    +0.292 HD
ENDBRANCH   4  12
BRANCH   3  14
ATOM     14  C   UNL     1      34.250 -18.339 -22.294  0.00  0.00    +0.056 C 
BRANCH  14  15
ATOM     15  C   UNL     1      33.912 -16.988 -21.690  0.00  0.00    -0.018 C 
ATOM     16  C   UNL     1      32.637 -16.751 -21.178  0.00  0.00    -0.004 C 
ATOM     17  C   UNL     1      34.879 -15.983 -21.647  0.00  0.00    -0.004 C 
ATOM     18  C   UNL     1      32.327 -15.510 -20.624  0.00  0.00    -0.000 C 
ATOM     19  C   UNL     1      34.569 -14.742 -21.093  0.00  0.00    -0.000 C 
ATOM     20  C   UNL     1      33.293 -14.504 -20.581  0.00  0.00    -0.000 C 
ENDBRANCH  14  15
BRANCH  14  21
ATOM     21  C   UNL     1      35.409 -18.286 -23.317  0.00  0.00    +0.038 C 
BRANCH  21  22
ATOM     22  C   UNL     1      34.944 -18.194 -24.779  0.00  0.00    +0.111 C 
ATOM     23  C   UNL     1      34.561 -16.766 -25.144  0.00  0.00    +0.032 C 
BRANCH  22  24
ATOM     24  O   UNL     1      33.809 -19.035 -24.963  0.00  0.00    -0.384 OA
ATOM     25  H   UNL     1      33.110 -18.775 -24.343  0.00  0.00    +0.210 HD
ENDBRANCH  22  24
ENDBRANCH  21  22
ENDBRANCH  14  21
ENDBRANCH   3  14
TORSDOF 6
ENDMDL
MODEL 2
REMARK VINA RESULT:      -9.1      0.749      2.324
REMARK  Name = 54736486
REMARK  6 active torsions:
REMARK  status: ('A' for Active; 'I' for Inactive)
REMARK    1  A    between atoms: C_3  and  C_14
REMARK    2  A    between atoms: C_4  and  O_12
REMARK    3  A    between atoms: C_14  and  C_15
REMARK    4  A    between atoms: C_14  and  C_21
REMARK    5  A    between atoms: C_21  and  C_22
REMARK    6  A    between atoms: C_22  and  O_24
REMARK                            x       y       z     vdW  Elec       q    Type
REMARK                         _______ _______ _______ _____ _____    ______ ____
ROOT
ATOM      1  O   UNL     1      33.139 -21.397 -19.637  0.00  0.00    -0.421 OA
ATOM      2  O   UNL     1      32.041 -20.229 -21.249  0.00  0.00    -0.245 OA
ATOM      3  C   UNL     1      34.338 -19.688 -20.940  0.00  0.00    +0.091 A 
ATOM      4  C   UNL     1      35.469 -19.951 -20.257  0.00  0.00    +0.139 A 
ATOM      5  C   UNL     1      33.085 -20.440 -20.640  0.00  0.00    +0.345 A 
ATOM      6  C   UNL     1      35.492 -20.969 -19.204  0.00  0.00    +0.068 A 
ATOM      7  C   UNL     1      34.321 -21.665 -18.924  0.00  0.00    +0.152 A 
ATOM      8  C   UNL     1      36.635 -21.284 -18.456  0.00  0.00    +0.006 C 
ATOM      9  C   UNL     1      34.257 -22.648 -17.936  0.00  0.00    +0.038 C 
ATOM     10  C   UNL     1      36.589 -22.268 -17.463  0.00  0.00    +0.000 C 
ATOM     11  C   UNL     1      35.400 -22.949 -17.203  0.00  0.00    +0.003 C 
ENDROOT
BRANCH   4  12
ATOM     12  O   UNL     1      36.674 -19.317 -20.466  0.00  0.00    -0.506 OA
ATOM     13  H   UNL     1      37.186 -19.031 -19.735  0.00  0.00    +0.292 HD
ENDBRANCH   4  12
BRANCH   3  14
ATOM     14  C   UNL     1      34.193 -18.661 -22.031  0.00  0.00    +0.056 C 
BRANCH  14  15
ATOM     15  C   UNL     1      33.908 -17.290 -21.447  0.00  0.00    -0.018 C 
ATOM     16  C   UNL     1      34.958 -16.417 -21.168  0.00  0.00    -0.004 C 
ATOM     17  C   UNL     1      32.592 -16.901 -21.190  0.00  0.00    -0.004 C 
ATOM     18  C   UNL     1      34.696 -15.157 -20.631  0.00  0.00    -0.000 C 
ATOM     19  C   UNL     1      32.329 -15.642 -20.653  0.00  0.00    -0.000 C 
ATOM     20  C   UNL     1      33.381 -14.769 -20.373  0.00  0.00    -0.000 C 
ENDBRANCH  14  15
BRANCH  14  21
ATOM     21  C   UNL     1      35.433 -18.693 -22.954  0.00  0.00    +0.038 C 
BRANCH  21  22
ATOM     22  C   UNL     1      35.103 -18.521 -24.445  0.00  0.00    +0.111 C 
ATOM     23  C   UNL     1      34.868 -17.055 -24.788  0.00  0.00    +0.032 C 
BRANCH  22  24
ATOM     24  O   UNL     1      33.924 -19.259 -24.752  0.00  0.00    -0.384 OA
ATOM     25  H   UNL     1      33.199 -18.643 -24.944  0.00  0.00    +0.210 HD
ENDBRANCH  22  24
ENDBRANCH  21  22
ENDBRANCH  14  21
ENDBRANCH   3  14
TORSDOF 6
ENDMDL
MODEL 3
REMARK VINA RESULT:      -8.9      4.279      9.199
REMARK  Name = 54736486
REMARK  6 active torsions:
REMARK  status: ('A' for Active; 'I' for Inactive)
REMARK    1  A    between atoms: C_3  and  C_14
REMARK    2  A    between atoms: C_4  and  O_12
REMARK    3  A    between atoms: C_14  and  C_15
REMARK    4  A    between atoms: C_14  and  C_21
REMARK    5  A    between atoms: C_21  and  C_22
REMARK    6  A    between atoms: C_22  and  O_24
REMARK                            x       y       z     vdW  Elec       q    Type
REMARK                         _______ _______ _______ _____ _____    ______ ____
ROOT
ATOM      1  O   UNL     1      33.187 -22.653 -18.418  0.00  0.00    -0.421 OA
ATOM      2  O   UNL     1      31.959 -23.851 -16.925  0.00  0.00    -0.245 OA
ATOM      3  C   UNL     1      34.206 -23.377 -16.298  0.00  0.00    +0.091 A 
ATOM      4  C   UNL     1      35.364 -22.782 -16.643  0.00  0.00    +0.139 A 
ATOM      5  C   UNL     1      33.029 -23.325 -17.213  0.00  0.00    +0.345 A 
ATOM      6  C   UNL     1      35.496 -22.080 -17.923  0.00  0.00    +0.068 A 
ATOM      7  C   UNL     1      34.399 -22.036 -18.776  0.00  0.00    +0.152 A 
ATOM      8  C   UNL     1      36.675 -21.445 -18.340  0.00  0.00    +0.006 C 
ATOM      9  C   UNL     1      34.441 -21.390 -20.012  0.00  0.00    +0.038 C 
ATOM     10  C   UNL     1      36.734 -20.792 -19.575  0.00  0.00    +0.000 C 
ATOM     11  C   UNL     1      35.618 -20.765 -20.410  0.00  0.00    +0.003 C 
ENDROOT
BRANCH   4  12
ATOM     12  O   UNL     1      36.501 -22.769 -15.864  0.00  0.00    -0.506 OA
ATOM     13  H   UNL     1      37.005 -23.551 -15.759  0.00  0.00    +0.292 HD
ENDBRANCH   4  12
BRANCH   3  14
ATOM     14  C   UNL     1      33.958 -24.134 -15.020  0.00  0.00    +0.056 C 
BRANCH  14  15
ATOM     15  C   UNL     1      35.200 -24.893 -14.592  0.00  0.00    -0.018 C 
ATOM     16  C   UNL     1      35.746 -25.867 -15.427  0.00  0.00    -0.004 C 
ATOM     17  C   UNL     1      35.796 -24.615 -13.361  0.00  0.00    -0.004 C 
ATOM     18  C   UNL     1      36.887 -26.564 -15.032  0.00  0.00    -0.000 C 
ATOM     19  C   UNL     1      36.937 -25.313 -12.966  0.00  0.00    -0.000 C 
ATOM     20  C   UNL     1      37.483 -26.287 -13.801  0.00  0.00    -0.000 C 
ENDBRANCH  14  15
BRANCH  14  21
ATOM     21  C   UNL     1      33.416 -23.173 -13.936  0.00  0.00    +0.038 C 
BRANCH  21  22
ATOM     22  C   UNL     1      31.960 -23.452 -13.531  0.00  0.00    +0.111 C 
ATOM     23  C   UNL     1      31.628 -24.933 -13.663  0.00  0.00    +0.032 C 
BRANCH  22  24
ATOM     24  O   UNL     1      31.088 -22.709 -14.377  0.00  0.00    -0.384 OA
ATOM     25  H   UNL     1      30.416 -23.303 -14.749  0.00  0.00    +0.210 HD
ENDBRANCH  22  24
ENDBRANCH  21  22
ENDBRANCH  14  21
ENDBRANCH   3  14
TORSDOF 6
ENDMDL
MODEL 4
REMARK VINA RESULT:      -8.9      4.910      9.023
REMARK  Name = 54736486
REMARK  6 active torsions:
REMARK  status: ('A' for Active; 'I' for Inactive)
REMARK    1  A    between atoms: C_3  and  C_14
REMARK    2  A    between atoms: C_4  and  O_12
REMARK    3  A    between atoms: C_14  and  C_15
REMARK    4  A    between atoms: C_14  and  C_21
REMARK    5  A    between atoms: C_21  and  C_22
REMARK    6  A    between atoms: C_22  and  O_24
REMARK                            x       y       z     vdW  Elec       q    Type
REMARK                         _______ _______ _______ _____ _____    ______ ____
ROOT
ATOM      1  O   UNL     1      31.864 -11.046 -22.201  0.00  0.00    -0.421 OA
ATOM      2  O   UNL     1      31.728 -13.311 -22.343  0.00  0.00    -0.245 OA
ATOM      3  C   UNL     1      33.432 -12.277 -23.644  0.00  0.00    +0.091 A 
ATOM      4  C   UNL     1      34.026 -11.121 -23.998  0.00  0.00    +0.139 A 
ATOM      5  C   UNL     1      32.286 -12.275 -22.690  0.00  0.00    +0.345 A 
ATOM      6  C   UNL     1      33.556  -9.840 -23.462  0.00  0.00    +0.068 A 
ATOM      7  C   UNL     1      32.484  -9.841 -22.577  0.00  0.00    +0.152 A 
ATOM      8  C   UNL     1      34.129  -8.605 -23.795  0.00  0.00    +0.006 C 
ATOM      9  C   UNL     1      31.975  -8.666 -22.023  0.00  0.00    +0.038 C 
ATOM     10  C   UNL     1      33.631  -7.417 -23.248  0.00  0.00    +0.000 C 
ATOM     11  C   UNL     1      32.554  -7.449 -22.363  0.00  0.00    +0.003 C 
ENDROOT
BRANCH   4  12
ATOM     12  O   UNL     1      35.093 -11.021 -24.864  0.00  0.00    -0.506 OA
ATOM     13  H   UNL     1      35.096 -11.511 -25.662  0.00  0.00    +0.292 HD
ENDBRANCH   4  12
BRANCH   3  14
ATOM     14  C   UNL     1      33.820 -13.646 -24.137  0.00  0.00    +0.056 C 
BRANCH  14  15
ATOM     15  C   UNL     1      34.153 -14.564 -22.976  0.00  0.00    -0.018 C 
ATOM     16  C   UNL     1      34.449 -14.027 -21.723  0.00  0.00    -0.004 C 
ATOM     17  C   UNL     1      34.163 -15.947 -23.162  0.00  0.00    -0.004 C 
ATOM     18  C   UNL     1      34.756 -14.871 -20.657  0.00  0.00    -0.000 C 
ATOM     19  C   UNL     1      34.470 -16.791 -22.095  0.00  0.00    -0.000 C 
ATOM     20  C   UNL     1      34.767 -16.254 -20.843  0.00  0.00    -0.000 C 
ENDBRANCH  14  15
BRANCH  14  21
ATOM     21  C   UNL     1      32.717 -14.203 -25.068  0.00  0.00    +0.038 C 
BRANCH  21  22
ATOM     22  C   UNL     1      33.236 -14.672 -26.435  0.00  0.00    +0.111 C 
ATOM     23  C   UNL     1      33.344 -13.507 -27.410  0.00  0.00    +0.032 C 
BRANCH  22  24
ATOM     24  O   UNL     1      32.337 -15.638 -26.972  0.00  0.00    -0.384 OA
ATOM     25  H   UNL     1      32.472 -16.488 -26.524  0.00  0.00    +0.210 HD
ENDBRANCH  22  24
ENDBRANCH  21  22
ENDBRANCH  14  21
ENDBRANCH   3  14
TORSDOF 6
ENDMDL
MODEL 5
REMARK VINA RESULT:      -8.9      4.925     10.101
REMARK  Name = 54736486
REMARK  6 active torsions:
REMARK  status: ('A' for Active; 'I' for Inactive)
REMARK    1  A    between atoms: C_3  and  C_14
REMARK    2  A    between atoms: C_4  and  O_12
REMARK    3  A    between atoms: C_14  and  C_15
REMARK    4  A    between atoms: C_14  and  C_21
REMARK    5  A    between atoms: C_21  and  C_22
REMARK    6  A    between atoms: C_22  and  O_24
REMARK                            x       y       z     vdW  Elec       q    Type
REMARK                         _______ _______ _______ _____ _____    ______ ____
ROOT
ATOM      1  O   UNL     1      33.846 -23.441 -16.788  0.00  0.00    -0.421 OA
ATOM      2  O   UNL     1      33.590 -24.678 -14.898  0.00  0.00    -0.245 OA
ATOM      3  C   UNL     1      35.738 -23.708 -15.236  0.00  0.00    +0.091 A 
ATOM      4  C   UNL     1      36.508 -22.942 -16.033  0.00  0.00    +0.139 A 
ATOM      5  C   UNL     1      34.319 -23.990 -15.604  0.00  0.00    +0.345 A 
ATOM      6  C   UNL     1      35.976 -22.377 -17.276  0.00  0.00    +0.068 A 
ATOM      7  C   UNL     1      34.655 -22.645 -17.618  0.00  0.00    +0.152 A 
ATOM      8  C   UNL     1      36.728 -21.576 -18.146  0.00  0.00    +0.006 C 
ATOM      9  C   UNL     1      34.072 -22.146 -18.783  0.00  0.00    +0.038 C 
ATOM     10  C   UNL     1      36.159 -21.068 -19.319  0.00  0.00    +0.000 C 
ATOM     11  C   UNL     1      34.832 -21.354 -19.637  0.00  0.00    +0.003 C 
ENDROOT
BRANCH   4  12
ATOM     12  O   UNL     1      37.823 -22.620 -15.775  0.00  0.00    -0.506 OA
ATOM     13  H   UNL     1      38.265 -21.991 -16.310  0.00  0.00    +0.292 HD
ENDBRANCH   4  12
BRANCH   3  14
ATOM     14  C   UNL     1      36.177 -24.349 -13.947  0.00  0.00    +0.056 C 
BRANCH  14  15
ATOM     15  C   UNL     1      37.557 -24.963 -14.092  0.00  0.00    -0.018 C 
ATOM     16  C   UNL     1      37.772 -25.989 -15.011  0.00  0.00    -0.004 C 
ATOM     17  C   UNL     1      38.612 -24.500 -13.305  0.00  0.00    -0.004 C 
ATOM     18  C   UNL     1      39.040 -26.554 -15.144  0.00  0.00    -0.000 C 
ATOM     19  C   UNL     1      39.880 -25.065 -13.437  0.00  0.00    -0.000 C 
ATOM     20  C   UNL     1      40.095 -26.092 -14.356  0.00  0.00    -0.000 C 
ENDBRANCH  14  15
BRANCH  14  21
ATOM     21  C   UNL     1      36.073 -23.329 -12.789  0.00  0.00    +0.038 C 
BRANCH  21  22
ATOM     22  C   UNL     1      35.160 -23.784 -11.640  0.00  0.00    +0.111 C 
ATOM     23  C   UNL     1      35.977 -24.195 -10.421  0.00  0.00    +0.032 C 
BRANCH  22  24
ATOM     24  O   UNL     1      34.386 -24.900 -12.070  0.00  0.00    -0.384 OA
ATOM     25  H   UNL     1      34.802 -25.300 -12.851  0.00  0.00    +0.210 HD
ENDBRANCH  22  24
ENDBRANCH  21  22
ENDBRANCH  14  21
ENDBRANCH   3  14
TORSDOF 6
ENDMDL
MODEL 6
REMARK VINA RESULT:      -8.8      4.340      8.624
REMARK  Name = 54736486
REMARK  6 active torsions:
REMARK  status: ('A' for Active; 'I' for Inactive)
REMARK    1  A    between atoms: C_3  and  C_14
REMARK    2  A    between atoms: C_4  and  O_12
REMARK    3  A    between atoms: C_14  and  C_15
REMARK    4  A    between atoms: C_14  and  C_21
REMARK    5  A    between atoms: C_21  and  C_22
REMARK    6  A    between atoms: C_22  and  O_24
REMARK                            x       y       z     vdW  Elec       q    Type
REMARK                         _______ _______ _______ _____ _____    ______ ____
ROOT
ATOM      1  O   UNL     1      37.131 -21.654 -17.003  0.00  0.00    -0.421 OA
ATOM      2  O   UNL     1      37.485 -22.611 -14.971  0.00  0.00    -0.245 OA
ATOM      3  C   UNL     1      35.491 -23.252 -16.100  0.00  0.00    +0.091 A 
ATOM      4  C   UNL     1      34.734 -23.110 -17.205  0.00  0.00    +0.139 A 
ATOM      5  C   UNL     1      36.771 -22.498 -15.961  0.00  0.00    +0.345 A 
ATOM      6  C   UNL     1      35.144 -22.210 -18.287  0.00  0.00    +0.068 A 
ATOM      7  C   UNL     1      36.335 -21.506 -18.152  0.00  0.00    +0.152 A 
ATOM      8  C   UNL     1      34.398 -22.017 -19.458  0.00  0.00    +0.006 C 
ATOM      9  C   UNL     1      36.797 -20.629 -19.134  0.00  0.00    +0.038 C 
ATOM     10  C   UNL     1      34.847 -21.142 -20.453  0.00  0.00    +0.000 C 
ATOM     11  C   UNL     1      36.045 -20.448 -20.290  0.00  0.00    +0.003 C 
ENDROOT
BRANCH   4  12
ATOM     12  O   UNL     1      33.543 -23.767 -17.429  0.00  0.00    -0.506 OA
ATOM     13  H   UNL     1      32.730 -23.337 -17.250  0.00  0.00    +0.292 HD
ENDBRANCH   4  12
BRANCH   3  14
ATOM     14  C   UNL     1      35.166 -24.134 -14.925  0.00  0.00    +0.056 C 
BRANCH  14  15
ATOM     15  C   UNL     1      33.706 -23.999 -14.534  0.00  0.00    -0.018 C 
ATOM     16  C   UNL     1      33.078 -22.756 -14.601  0.00  0.00    -0.004 C 
ATOM     17  C   UNL     1      32.992 -25.119 -14.107  0.00  0.00    -0.004 C 
ATOM     18  C   UNL     1      31.737 -22.631 -14.241  0.00  0.00    -0.000 C 
ATOM     19  C   UNL     1      31.650 -24.994 -13.747  0.00  0.00    -0.000 C 
ATOM     20  C   UNL     1      31.022 -23.751 -13.814  0.00  0.00    -0.000 C 
ENDBRANCH  14  15
BRANCH  14  21
ATOM     21  C   UNL     1      35.592 -25.591 -15.225  0.00  0.00    +0.038 C 
BRANCH  21  22
ATOM     22  C   UNL     1      36.842 -26.044 -14.456  0.00  0.00    +0.111 C 
ATOM     23  C   UNL     1      36.862 -25.459 -13.049  0.00  0.00    +0.032 C 
BRANCH  22  24
ATOM     24  O   UNL     1      38.006 -25.605 -15.151  0.00  0.00    -0.384 OA
ATOM     25  H   UNL     1      38.738 -26.216 -14.973  0.00  0.00    +0.210 HD
ENDBRANCH  22  24
ENDBRANCH  21  22
ENDBRANCH  14  21
ENDBRANCH   3  14
TORSDOF 6
ENDMDL
MODEL 7
REMARK VINA RESULT:      -8.7      4.240      6.773
REMARK  Name = 54736486
REMARK  6 active torsions:
REMARK  status: ('A' for Active; 'I' for Inactive)
REMARK    1  A    between atoms: C_3  and  C_14
REMARK    2  A    between atoms: C_4  and  O_12
REMARK    3  A    between atoms: C_14  and  C_15
REMARK    4  A    between atoms: C_14  and  C_21
REMARK    5  A    between atoms: C_21  and  C_22
REMARK    6  A    between atoms: C_22  and  O_24
REMARK                            x       y       z     vdW  Elec       q    Type
REMARK                         _______ _______ _______ _____ _____    ______ ____
ROOT
ATOM      1  O   UNL     1      33.397 -15.784 -25.768  0.00  0.00    -0.421 OA
ATOM      2  O   UNL     1      32.557 -13.773 -26.418  0.00  0.00    -0.245 OA
ATOM      3  C   UNL     1      33.704 -13.808 -24.333  0.00  0.00    +0.091 A 
ATOM      4  C   UNL     1      34.381 -14.555 -23.439  0.00  0.00    +0.139 A 
ATOM      5  C   UNL     1      33.172 -14.427 -25.582  0.00  0.00    +0.345 A 
ATOM      6  C   UNL     1      34.602 -15.985 -23.667  0.00  0.00    +0.068 A 
ATOM      7  C   UNL     1      34.101 -16.559 -24.830  0.00  0.00    +0.152 A 
ATOM      8  C   UNL     1      35.294 -16.814 -22.773  0.00  0.00    +0.006 C 
ATOM      9  C   UNL     1      34.267 -17.913 -25.123  0.00  0.00    +0.038 C 
ATOM     10  C   UNL     1      35.470 -18.173 -23.052  0.00  0.00    +0.000 C 
ATOM     11  C   UNL     1      34.956 -18.722 -24.226  0.00  0.00    +0.003 C 
ENDROOT
BRANCH   4  12
ATOM     12  O   UNL     1      34.915 -14.074 -22.263  0.00  0.00    -0.506 OA
ATOM     13  H   UNL     1      35.842 -14.098 -22.126  0.00  0.00    +0.292 HD
ENDBRANCH   4  12
BRANCH   3  14
ATOM     14  C   UNL     1      33.406 -12.339 -24.200  0.00  0.00    +0.056 C 
BRANCH  14  15
ATOM     15  C   UNL     1      32.616 -12.059 -22.935  0.00  0.00    -0.018 C 
ATOM     16  C   UNL     1      32.280 -13.105 -22.076  0.00  0.00    -0.004 C 
ATOM     17  C   UNL     1      32.226 -10.754 -22.631  0.00  0.00    -0.004 C 
ATOM     18  C   UNL     1      31.554 -12.848 -20.914  0.00  0.00    -0.000 C 
ATOM     19  C   UNL     1      31.500 -10.497 -21.469  0.00  0.00    -0.000 C 
ATOM     20  C   UNL     1      31.163 -11.543 -20.610  0.00  0.00    -0.000 C 
ENDBRANCH  14  15
BRANCH  14  21
ATOM     21  C   UNL     1      34.718 -11.524 -24.302  0.00  0.00    +0.038 C 
BRANCH  21  22
ATOM     22  C   UNL     1      34.621 -10.304 -25.230  0.00  0.00    +0.111 C 
ATOM     23  C   UNL     1      35.637 -10.394 -26.362  0.00  0.00    +0.032 C 
BRANCH  22  24
ATOM     24  O   UNL     1      34.875  -9.121 -24.479  0.00  0.00    -0.384 OA
ATOM     25  H   UNL     1      35.743  -8.763 -24.724  0.00  0.00    +0.210 HD
ENDBRANCH  22  24
ENDBRANCH  21  22
ENDBRANCH  14  21
ENDBRANCH   3  14
TORSDOF 6
ENDMDL
MODEL 8
REMARK VINA RESULT:      -8.4      7.098      9.773
REMARK  Name = 54736486
REMARK  6 active torsions:
REMARK  status: ('A' for Active; 'I' for Inactive)
REMARK    1  A    between atoms: C_3  and  C_14
REMARK    2  A    between atoms: C_4  and  O_12
REMARK    3  A    between atoms: C_14  and  C_15
REMARK    4  A    between atoms: C_14  and  C_21
REMARK    5  A    between atoms: C_21  and  C_22
REMARK    6  A    between atoms: C_22  and  O_24
REMARK                            x       y       z     vdW  Elec       q    Type
REMARK                         _______ _______ _______ _____ _____    ______ ____
ROOT
ATOM      1  O   UNL     1      33.166 -22.971 -16.772  0.00  0.00    -0.421 OA
ATOM      2  O   UNL     1      35.413 -23.292 -16.913  0.00  0.00    -0.245 OA
ATOM      3  C   UNL     1      34.328 -24.269 -15.033  0.00  0.00    +0.091 A 
ATOM      4  C   UNL     1      33.160 -24.465 -14.390  0.00  0.00    +0.139 A 
ATOM      5  C   UNL     1      34.367 -23.484 -16.301  0.00  0.00    +0.345 A 
ATOM      6  C   UNL     1      31.910 -23.910 -14.915  0.00  0.00    +0.068 A 
ATOM      7  C   UNL     1      31.951 -23.176 -16.096  0.00  0.00    +0.152 A 
ATOM      8  C   UNL     1      30.666 -24.077 -14.291  0.00  0.00    +0.006 C 
ATOM      9  C   UNL     1      30.807 -22.613 -16.662  0.00  0.00    +0.038 C 
ATOM     10  C   UNL     1      29.509 -23.520 -14.846  0.00  0.00    +0.000 C 
ATOM     11  C   UNL     1      29.580 -22.788 -16.030  0.00  0.00    +0.003 C 
ENDROOT
BRANCH   4  12
ATOM     12  O   UNL     1      33.022 -25.180 -13.220  0.00  0.00    -0.506 OA
ATOM     13  H   UNL     1      32.286 -25.748 -13.103  0.00  0.00    +0.292 HD
ENDBRANCH   4  12
BRANCH   3  14
ATOM     14  C   UNL     1      35.671 -24.779 -14.583  0.00  0.00    +0.056 C 
BRANCH  14  15
ATOM     15  C   UNL     1      36.032 -24.222 -13.219  0.00  0.00    -0.018 C 
ATOM     16  C   UNL     1      35.492 -24.793 -12.067  0.00  0.00    -0.004 C 
ATOM     17  C   UNL     1      36.905 -23.138 -13.117  0.00  0.00    -0.004 C 
ATOM     18  C   UNL     1      35.823 -24.281 -10.813  0.00  0.00    -0.000 C 
ATOM     19  C   UNL     1      37.236 -22.626 -11.863  0.00  0.00    -0.000 C 
ATOM     20  C   UNL     1      36.696 -23.197 -10.710  0.00  0.00    -0.000 C 
ENDBRANCH  14  15
BRANCH  14  21
ATOM     21  C   UNL     1      35.696 -26.324 -14.646  0.00  0.00    +0.038 C 
BRANCH  21  22
ATOM     22  C   UNL     1      37.034 -26.904 -15.129  0.00  0.00    +0.111 C 
ATOM     23  C   UNL     1      38.141 -25.860 -15.062  0.00  0.00    +0.032 C 
BRANCH  22  24
ATOM     24  O   UNL     1      36.897 -27.342 -16.477  0.00  0.00    -0.384 OA
ATOM     25  H   UNL     1      37.229 -26.653 -17.075  0.00  0.00    +0.210 HD
ENDBRANCH  22  24
ENDBRANCH  21  22
ENDBRANCH  14  21
ENDBRANCH   3  14
TORSDOF 6
ENDMDL
MODEL 9
REMARK VINA RESULT:      -8.3      8.727     11.888
REMARK  Name = 54736486
REMARK  6 active torsions:
REMARK  status: ('A' for Active; 'I' for Inactive)
REMARK    1  A    between atoms: C_3  and  C_14
REMARK    2  A    between atoms: C_4  and  O_12
REMARK    3  A    between atoms: C_14  and  C_15
REMARK    4  A    between atoms: C_14  and  C_21
REMARK    5  A    between atoms: C_21  and  C_22
REMARK    6  A    between atoms: C_22  and  O_24
REMARK                            x       y       z     vdW  Elec       q    Type
REMARK                         _______ _______ _______ _____ _____    ______ ____
ROOT
ATOM      1  O   UNL     1      32.299  -8.901 -19.671  0.00  0.00    -0.421 OA
ATOM      2  O   UNL     1      32.503  -6.638 -19.747  0.00  0.00    -0.245 OA
ATOM      3  C   UNL     1      32.011  -7.718 -21.810  0.00  0.00    +0.091 A 
ATOM      4  C   UNL     1      31.774  -8.888 -22.433  0.00  0.00    +0.139 A 
ATOM      5  C   UNL     1      32.289  -7.687 -20.344  0.00  0.00    +0.345 A 
ATOM      6  C   UNL     1      31.791 -10.152 -21.692  0.00  0.00    +0.068 A 
ATOM      7  C   UNL     1      32.055 -10.120 -20.326  0.00  0.00    +0.152 A 
ATOM      8  C   UNL     1      31.557 -11.401 -22.284  0.00  0.00    +0.006 C 
ATOM      9  C   UNL     1      32.091 -11.278 -19.548  0.00  0.00    +0.038 C 
ATOM     10  C   UNL     1      31.588 -12.571 -21.517  0.00  0.00    +0.000 C 
ATOM     11  C   UNL     1      31.856 -12.509 -20.151  0.00  0.00    +0.003 C 
ENDROOT
BRANCH   4  12
ATOM     12  O   UNL     1      31.501  -9.018 -23.777  0.00  0.00    -0.506 OA
ATOM     13  H   UNL     1      31.809  -8.372 -24.382  0.00  0.00    +0.292 HD
ENDBRANCH   4  12
BRANCH   3  14
ATOM     14  C   UNL     1      32.031  -6.364 -22.468  0.00  0.00    +0.056 C 
BRANCH  14  15
ATOM     15  C   UNL     1      32.990  -6.349 -23.644  0.00  0.00    -0.018 C 
ATOM     16  C   UNL     1      34.193  -7.051 -23.574  0.00  0.00    -0.004 C 
ATOM     17  C   UNL     1      32.668  -5.631 -24.796  0.00  0.00    -0.004 C 
ATOM     18  C   UNL     1      35.074  -7.037 -24.654  0.00  0.00    -0.000 C 
ATOM     19  C   UNL     1      33.550  -5.616 -25.877  0.00  0.00    -0.000 C 
ATOM     20  C   UNL     1      34.753  -6.318 -25.806  0.00  0.00    -0.000 C 
ENDBRANCH  14  15
BRANCH  14  21
ATOM     21  C   UNL     1      30.592  -5.938 -22.839  0.00  0.00    +0.038 C 
BRANCH  21  22
ATOM     22  C   UNL     1      30.103  -4.686 -22.095  0.00  0.00    +0.111 C 
ATOM     23  C   UNL     1      30.846  -3.442 -22.566  0.00  0.00    +0.032 C 
BRANCH  22  24
ATOM     24  O   UNL     1      30.328  -4.853 -20.698  0.00  0.00    -0.384 OA
ATOM     25  H   UNL     1      29.588  -5.346 -20.309  0.00  0.00    +0.210 HD
ENDBRANCH  22  24
ENDBRANCH  21  22
ENDBRANCH  14  21
ENDBRANCH   3  14
TORSDOF 6
ENDMDL
