MODEL 1
REMARK VINA RESULT:      -8.8      0.000      0.000
REMARK  Name = 25187896
REMARK  6 active torsions:
REMARK  status: ('A' for Active; 'I' for Inactive)
REMARK    1  A    between atoms: C_1  and  C_4
REMARK    2  A    between atoms: C_1  and  C_16
REMARK    3  A    between atoms: C_7  and  O_10
REMARK    4  A    between atoms: C_8  and  O_12
REMARK    5  A    between atoms: C_9  and  O_14
REMARK    6  A    between atoms: C_17  and  C_22
REMARK                            x       y       z     vdW  Elec       q    Type
REMARK                         _______ _______ _______ _____ _____    ______ ____
ROOT
ATOM      1  C   UNL     1      35.656 -18.331 -23.028  0.00  0.00    +0.073 C 
ATOM      2  C   UNL     1      37.180 -18.144 -22.851  0.00  0.00    +0.017 C 
ATOM      3  C   UNL     1      35.434 -19.017 -24.393  0.00  0.00    +0.017 C 
ENDROOT
BRANCH   1   4
ATOM      4  C   UNL     1      34.854 -17.020 -22.978  0.00  0.00    -0.005 C 
ATOM      5  C   UNL     1      34.524 -16.451 -21.749  0.00  0.00    +0.037 C 
ATOM      6  C   UNL     1      34.459 -16.400 -24.163  0.00  0.00    +0.037 C 
ATOM      7  C   UNL     1      33.731 -15.210 -24.119  0.00  0.00    +0.175 C 
ATOM      8  C   UNL     1      33.797 -15.261 -21.705  0.00  0.00    +0.175 C 
ATOM      9  C   UNL     1      33.401 -14.642 -22.890  0.00  0.00    +0.206 C 
BRANCH   7  10
ATOM     10  O   UNL     1      33.352 -14.615 -25.283  0.00  0.00    -0.468 OA
ATOM     11  C   UNL     1      32.933 -15.472 -26.344  0.00  0.00    +0.253 C 
ENDBRANCH   7  10
BRANCH   8  12
ATOM     12  O   UNL     1      33.480 -14.716 -20.497  0.00  0.00    -0.468 OA
ATOM     13  C   UNL     1      32.253 -15.129 -19.900  0.00  0.00    +0.253 C 
ENDBRANCH   8  12
BRANCH   9  14
ATOM     14  O   UNL     1      32.690 -13.478 -22.846  0.00  0.00    -0.465 OA
ATOM     15  C   UNL     1      33.353 -12.299 -23.301  0.00  0.00    +0.253 C 
ENDBRANCH   9  14
ENDBRANCH   1   4
BRANCH   1  16
ATOM     16  C   UNL     1      35.198 -19.243 -21.947  0.00  0.00    -0.088 C 
ATOM     17  C   UNL     1      34.828 -19.982 -21.075  0.00  0.00    -0.076 C 
BRANCH  17  22
ATOM     18  N   UNL     1      34.905 -22.495 -18.346  0.00  0.00    -0.336 NA
ATOM     19  N   UNL     1      32.620 -21.826 -18.720  0.00  0.00    -0.317 NA
ATOM     20  N   UNL     1      32.092 -20.229 -20.382  0.00  0.00    -0.334 N 
ATOM     21  N   UNL     1      33.157 -23.410 -17.075  0.00  0.00    -0.283 N 
ATOM     22  C   UNL     1      34.388 -20.867 -20.041  0.00  0.00    +0.179 C 
ATOM     23  C   UNL     1      35.275 -21.648 -19.328  0.00  0.00    +0.120 C 
ATOM     24  C   UNL     1      33.060 -20.999 -19.691  0.00  0.00    +0.186 C 
ATOM     25  C   UNL     1      36.742 -21.598 -19.609  0.00  0.00    +0.064 C 
ATOM     26  C   UNL     1      33.581 -22.534 -18.097  0.00  0.00    +0.196 C 
ATOM     27  H   UNL     1      31.139 -20.309 -20.147  0.00  0.00    +0.144 HD
ATOM     28  H   UNL     1      32.372 -19.613 -21.097  0.00  0.00    +0.144 HD
ATOM     29  H   UNL     1      33.818 -23.953 -16.586  0.00  0.00    +0.156 HD
ATOM     30  H   UNL     1      32.201 -23.480 -16.851  0.00  0.00    +0.156 HD
ENDBRANCH  17  22
ENDBRANCH   1  16
TORSDOF 6
ENDMDL
MODEL 2
REMARK VINA RESULT:      -8.8      0.032      2.429
REMARK  Name = 25187896
REMARK  6 active torsions:
REMARK  status: ('A' for Active; 'I' for Inactive)
REMARK    1  A    between atoms: C_1  and  C_4
REMARK    2  A    between atoms: C_1  and  C_16
REMARK    3  A    between atoms: C_7  and  O_10
REMARK    4  A    between atoms: C_8  and  O_12
REMARK    5  A    between atoms: C_9  and  O_14
REMARK    6  A    between atoms: C_17  and  C_22
REMARK                            x       y       z     vdW  Elec       q    Type
REMARK                         _______ _______ _______ _____ _____    ______ ____
ROOT
ATOM      1  C   UNL     1      35.658 -18.353 -23.014  0.00  0.00    +0.073 C 
ATOM      2  C   UNL     1      37.183 -18.173 -22.844  0.00  0.00    +0.017 C 
ATOM      3  C   UNL     1      35.427 -19.038 -24.379  0.00  0.00    +0.017 C 
ENDROOT
BRANCH   1   4
ATOM      4  C   UNL     1      34.862 -17.039 -22.960  0.00  0.00    -0.005 C 
ATOM      5  C   UNL     1      34.455 -16.422 -24.142  0.00  0.00    +0.037 C 
ATOM      6  C   UNL     1      34.547 -16.465 -21.729  0.00  0.00    +0.037 C 
ATOM      7  C   UNL     1      33.825 -15.272 -21.680  0.00  0.00    +0.175 C 
ATOM      8  C   UNL     1      33.731 -15.230 -24.093  0.00  0.00    +0.175 C 
ATOM      9  C   UNL     1      33.418 -14.655 -22.862  0.00  0.00    +0.206 C 
BRANCH   7  10
ATOM     10  O   UNL     1      33.524 -14.722 -20.471  0.00  0.00    -0.468 OA
ATOM     11  C   UNL     1      32.279 -15.092 -19.882  0.00  0.00    +0.253 C 
ENDBRANCH   7  10
BRANCH   8  12
ATOM     12  O   UNL     1      33.340 -14.638 -25.255  0.00  0.00    -0.468 OA
ATOM     13  C   UNL     1      32.950 -15.499 -26.323  0.00  0.00    +0.253 C 
ENDBRANCH   8  12
BRANCH   9  14
ATOM     14  O   UNL     1      32.711 -13.490 -22.813  0.00  0.00    -0.465 OA
ATOM     15  C   UNL     1      33.365 -12.317 -23.293  0.00  0.00    +0.253 C 
ENDBRANCH   9  14
ENDBRANCH   1   4
BRANCH   1  16
ATOM     16  C   UNL     1      35.201 -19.264 -21.931  0.00  0.00    -0.088 C 
ATOM     17  C   UNL     1      34.830 -20.001 -21.058  0.00  0.00    -0.076 C 
BRANCH  17  22
ATOM     18  N   UNL     1      34.893 -22.510 -18.324  0.00  0.00    -0.336 NA
ATOM     19  N   UNL     1      32.612 -21.832 -18.703  0.00  0.00    -0.317 NA
ATOM     20  N   UNL     1      32.093 -20.236 -20.368  0.00  0.00    -0.334 N 
ATOM     21  N   UNL     1      33.140 -23.415 -17.053  0.00  0.00    -0.283 N 
ATOM     22  C   UNL     1      34.386 -20.882 -20.023  0.00  0.00    +0.179 C 
ATOM     23  C   UNL     1      35.268 -21.666 -19.307  0.00  0.00    +0.120 C 
ATOM     24  C   UNL     1      33.056 -21.008 -19.675  0.00  0.00    +0.186 C 
ATOM     25  C   UNL     1      36.736 -21.623 -19.586  0.00  0.00    +0.064 C 
ATOM     26  C   UNL     1      33.569 -22.543 -18.077  0.00  0.00    +0.196 C 
ATOM     27  H   UNL     1      31.139 -20.311 -20.134  0.00  0.00    +0.144 HD
ATOM     28  H   UNL     1      32.376 -19.622 -21.084  0.00  0.00    +0.144 HD
ATOM     29  H   UNL     1      33.798 -23.959 -16.563  0.00  0.00    +0.156 HD
ATOM     30  H   UNL     1      32.183 -23.481 -16.831  0.00  0.00    +0.156 HD
ENDBRANCH  17  22
ENDBRANCH   1  16
TORSDOF 6
ENDMDL
MODEL 3
REMARK VINA RESULT:      -8.6      4.712      7.902
REMARK  Name = 25187896
REMARK  6 active torsions:
REMARK  status: ('A' for Active; 'I' for Inactive)
REMARK    1  A    between atoms: C_1  and  C_4
REMARK    2  A    between atoms: C_1  and  C_16
REMARK    3  A    between atoms: C_7  and  O_10
REMARK    4  A    between atoms: C_8  and  O_12
REMARK    5  A    between atoms: C_9  and  O_14
REMARK    6  A    between atoms: C_17  and  C_22
REMARK                            x       y       z     vdW  Elec       q    Type
REMARK                         _______ _______ _______ _____ _____    ______ ____
ROOT
ATOM      1  C   UNL     1      31.643 -11.205 -21.307  0.00  0.00    +0.073 C 
ATOM      2  C   UNL     1      30.128 -11.380 -21.560  0.00  0.00    +0.017 C 
ATOM      3  C   UNL     1      31.845 -11.122 -19.778  0.00  0.00    +0.017 C 
ENDROOT
BRANCH   1   4
ATOM      4  C   UNL     1      32.249  -9.958 -21.971  0.00  0.00    -0.005 C 
ATOM      5  C   UNL     1      33.101 -10.097 -23.066  0.00  0.00    +0.037 C 
ATOM      6  C   UNL     1      31.946  -8.689 -21.479  0.00  0.00    +0.037 C 
ATOM      7  C   UNL     1      32.496  -7.558 -22.082  0.00  0.00    +0.175 C 
ATOM      8  C   UNL     1      33.651  -8.965 -23.670  0.00  0.00    +0.175 C 
ATOM      9  C   UNL     1      33.348  -7.696 -23.176  0.00  0.00    +0.206 C 
BRANCH   7  10
ATOM     10  O   UNL     1      32.192  -6.324 -21.591  0.00  0.00    -0.468 OA
ATOM     11  C   UNL     1      30.915  -5.787 -21.931  0.00  0.00    +0.253 C 
ENDBRANCH   7  10
BRANCH   8  12
ATOM     12  O   UNL     1      34.481  -9.114 -24.738  0.00  0.00    -0.468 OA
ATOM     13  C   UNL     1      34.971 -10.428 -25.001  0.00  0.00    +0.253 C 
ENDBRANCH   8  12
BRANCH   9  14
ATOM     14  O   UNL     1      33.885  -6.590 -23.766  0.00  0.00    -0.465 OA
ATOM     15  C   UNL     1      33.154  -6.015 -24.847  0.00  0.00    +0.253 C 
ENDBRANCH   9  14
ENDBRANCH   1   4
BRANCH   1  16
ATOM     16  C   UNL     1      32.317 -12.428 -21.819  0.00  0.00    -0.088 C 
ATOM     17  C   UNL     1      32.863 -13.414 -22.233  0.00  0.00    -0.076 C 
BRANCH  17  22
ATOM     18  N   UNL     1      34.836 -16.556 -22.315  0.00  0.00    -0.336 NA
ATOM     19  N   UNL     1      34.121 -16.030 -24.555  0.00  0.00    -0.317 NA
ATOM     20  N   UNL     1      32.827 -14.097 -24.982  0.00  0.00    -0.334 N 
ATOM     21  N   UNL     1      35.405 -17.945 -24.119  0.00  0.00    -0.283 N 
ATOM     22  C   UNL     1      33.518 -14.584 -22.728  0.00  0.00    +0.179 C 
ATOM     23  C   UNL     1      34.204 -15.442 -21.892  0.00  0.00    +0.120 C 
ATOM     24  C   UNL     1      33.510 -14.932 -24.064  0.00  0.00    +0.186 C 
ATOM     25  C   UNL     1      34.288 -15.179 -20.423  0.00  0.00    +0.064 C 
ATOM     26  C   UNL     1      34.755 -16.786 -23.640  0.00  0.00    +0.196 C 
ATOM     27  H   UNL     1      32.810 -14.328 -25.939  0.00  0.00    +0.144 HD
ATOM     28  H   UNL     1      32.369 -13.287 -24.664  0.00  0.00    +0.144 HD
ATOM     29  H   UNL     1      35.885 -18.534 -23.492  0.00  0.00    +0.156 HD
ATOM     30  H   UNL     1      35.380 -18.162 -25.078  0.00  0.00    +0.156 HD
ENDBRANCH  17  22
ENDBRANCH   1  16
TORSDOF 6
ENDMDL
MODEL 4
REMARK VINA RESULT:      -8.6      4.711      7.671
REMARK  Name = 25187896
REMARK  6 active torsions:
REMARK  status: ('A' for Active; 'I' for Inactive)
REMARK    1  A    between atoms: C_1  and  C_4
REMARK    2  A    between atoms: C_1  and  C_16
REMARK    3  A    between atoms: C_7  and  O_10
REMARK    4  A    between atoms: C_8  and  O_12
REMARK    5  A    between atoms: C_9  and  O_14
REMARK    6  A    between atoms: C_17  and  C_22
REMARK                            x       y       z     vdW  Elec       q    Type
REMARK                         _______ _______ _______ _____ _____    ______ ____
ROOT
ATOM      1  C   UNL     1      31.648 -11.225 -21.307  0.00  0.00    +0.073 C 
ATOM      2  C   UNL     1      30.133 -11.406 -21.556  0.00  0.00    +0.017 C 
ATOM      3  C   UNL     1      31.854 -11.150 -19.778  0.00  0.00    +0.017 C 
ENDROOT
BRANCH   1   4
ATOM      4  C   UNL     1      32.245  -9.970 -21.965  0.00  0.00    -0.005 C 
ATOM      5  C   UNL     1      31.936  -8.706 -21.464  0.00  0.00    +0.037 C 
ATOM      6  C   UNL     1      33.095 -10.097 -23.063  0.00  0.00    +0.037 C 
ATOM      7  C   UNL     1      33.637  -8.959 -23.660  0.00  0.00    +0.175 C 
ATOM      8  C   UNL     1      32.479  -7.568 -22.061  0.00  0.00    +0.175 C 
ATOM      9  C   UNL     1      33.328  -7.695 -23.159  0.00  0.00    +0.206 C 
BRANCH   7  10
ATOM     10  O   UNL     1      34.467  -9.097 -24.732  0.00  0.00    -0.468 OA
ATOM     11  C   UNL     1      34.957 -10.407 -25.008  0.00  0.00    +0.253 C 
ENDBRANCH   7  10
BRANCH   8  12
ATOM     12  O   UNL     1      32.169  -6.339 -21.561  0.00  0.00    -0.468 OA
ATOM     13  C   UNL     1      30.888  -5.807 -21.893  0.00  0.00    +0.253 C 
ENDBRANCH   8  12
BRANCH   9  14
ATOM     14  O   UNL     1      33.859  -6.582 -23.743  0.00  0.00    -0.465 OA
ATOM     15  C   UNL     1      33.119  -5.999 -24.813  0.00  0.00    +0.253 C 
ENDBRANCH   9  14
ENDBRANCH   1   4
BRANCH   1  16
ATOM     16  C   UNL     1      32.327 -12.440 -21.829  0.00  0.00    -0.088 C 
ATOM     17  C   UNL     1      32.877 -13.422 -22.249  0.00  0.00    -0.076 C 
BRANCH  17  22
ATOM     18  N   UNL     1      34.846 -16.566 -22.324  0.00  0.00    -0.336 NA
ATOM     19  N   UNL     1      34.149 -16.033 -24.569  0.00  0.00    -0.317 NA
ATOM     20  N   UNL     1      32.860 -14.098 -25.000  0.00  0.00    -0.334 N 
ATOM     21  N   UNL     1      35.427 -17.951 -24.128  0.00  0.00    -0.283 N 
ATOM     22  C   UNL     1      33.534 -14.592 -22.742  0.00  0.00    +0.179 C 
ATOM     23  C   UNL     1      34.212 -15.452 -21.903  0.00  0.00    +0.120 C 
ATOM     24  C   UNL     1      33.536 -14.935 -24.078  0.00  0.00    +0.186 C 
ATOM     25  C   UNL     1      34.286 -15.194 -20.432  0.00  0.00    +0.064 C 
ATOM     26  C   UNL     1      34.775 -16.793 -23.650  0.00  0.00    +0.196 C 
ATOM     27  H   UNL     1      32.850 -14.326 -25.958  0.00  0.00    +0.144 HD
ATOM     28  H   UNL     1      32.401 -13.287 -24.683  0.00  0.00    +0.144 HD
ATOM     29  H   UNL     1      35.901 -18.543 -23.499  0.00  0.00    +0.156 HD
ATOM     30  H   UNL     1      35.409 -18.166 -25.088  0.00  0.00    +0.156 HD
ENDBRANCH  17  22
ENDBRANCH   1  16
TORSDOF 6
ENDMDL
MODEL 5
REMARK VINA RESULT:      -8.5      3.449      6.167
REMARK  Name = 25187896
REMARK  6 active torsions:
REMARK  status: ('A' for Active; 'I' for Inactive)
REMARK    1  A    between atoms: C_1  and  C_4
REMARK    2  A    between atoms: C_1  and  C_16
REMARK    3  A    between atoms: C_7  and  O_10
REMARK    4  A    between atoms: C_8  and  O_12
REMARK    5  A    between atoms: C_9  and  O_14
REMARK    6  A    between atoms: C_17  and  C_22
REMARK                            x       y       z     vdW  Elec       q    Type
REMARK                         _______ _______ _______ _____ _____    ______ ____
ROOT
ATOM      1  C   UNL     1      33.513 -12.427 -24.781  0.00  0.00    +0.073 C 
ATOM      2  C   UNL     1      34.698 -11.989 -25.671  0.00  0.00    +0.017 C 
ATOM      3  C   UNL     1      32.357 -12.829 -25.723  0.00  0.00    +0.017 C 
ENDROOT
BRANCH   1   4
ATOM      4  C   UNL     1      33.026 -11.341 -23.808  0.00  0.00    -0.005 C 
ATOM      5  C   UNL     1      32.194 -11.683 -22.742  0.00  0.00    +0.037 C 
ATOM      6  C   UNL     1      33.416 -10.015 -23.991  0.00  0.00    +0.037 C 
ATOM      7  C   UNL     1      32.974  -9.030 -23.109  0.00  0.00    +0.175 C 
ATOM      8  C   UNL     1      31.753 -10.697 -21.858  0.00  0.00    +0.175 C 
ATOM      9  C   UNL     1      32.143  -9.371 -22.043  0.00  0.00    +0.206 C 
BRANCH   7  10
ATOM     10  O   UNL     1      33.363  -7.738 -23.299  0.00  0.00    -0.468 OA
ATOM     11  C   UNL     1      34.753  -7.505 -23.520  0.00  0.00    +0.253 C 
ENDBRANCH   7  10
BRANCH   8  12
ATOM     12  O   UNL     1      30.941 -11.044 -20.821  0.00  0.00    -0.468 OA
ATOM     13  C   UNL     1      31.570 -11.556 -19.648  0.00  0.00    +0.253 C 
ENDBRANCH   8  12
BRANCH   9  14
ATOM     14  O   UNL     1      31.711  -8.408 -21.180  0.00  0.00    -0.465 OA
ATOM     15  C   UNL     1      32.620  -8.001 -20.158  0.00  0.00    +0.253 C 
ENDBRANCH   9  14
ENDBRANCH   1   4
BRANCH   1  16
ATOM     16  C   UNL     1      33.956 -13.625 -24.020  0.00  0.00    -0.088 C 
ATOM     17  C   UNL     1      34.315 -14.593 -23.407  0.00  0.00    -0.076 C 
BRANCH  17  22
ATOM     18  N   UNL     1      35.116 -16.861 -20.580  0.00  0.00    -0.336 NA
ATOM     19  N   UNL     1      35.623 -17.990 -22.648  0.00  0.00    -0.317 NA
ATOM     20  N   UNL     1      35.267 -16.914 -24.724  0.00  0.00    -0.334 N 
ATOM     21  N   UNL     1      35.972 -19.046 -20.582  0.00  0.00    -0.283 N 
ATOM     22  C   UNL     1      34.746 -15.749 -22.683  0.00  0.00    +0.179 C 
ATOM     23  C   UNL     1      34.721 -15.793 -21.303  0.00  0.00    +0.120 C 
ATOM     24  C   UNL     1      35.212 -16.887 -23.308  0.00  0.00    +0.186 C 
ATOM     25  C   UNL     1      34.237 -14.625 -20.505  0.00  0.00    +0.064 C 
ATOM     26  C   UNL     1      35.550 -17.910 -21.306  0.00  0.00    +0.196 C 
ATOM     27  H   UNL     1      35.597 -17.717 -25.189  0.00  0.00    +0.144 HD
ATOM     28  H   UNL     1      34.976 -16.130 -25.243  0.00  0.00    +0.144 HD
ATOM     29  H   UNL     1      35.940 -19.042 -19.598  0.00  0.00    +0.156 HD
ATOM     30  H   UNL     1      36.300 -19.841 -21.061  0.00  0.00    +0.156 HD
ENDBRANCH  17  22
ENDBRANCH   1  16
TORSDOF 6
ENDMDL
MODEL 6
REMARK VINA RESULT:      -8.5      3.449      6.434
REMARK  Name = 25187896
REMARK  6 active torsions:
REMARK  status: ('A' for Active; 'I' for Inactive)
REMARK    1  A    between atoms: C_1  and  C_4
REMARK    2  A    between atoms: C_1  and  C_16
REMARK    3  A    between atoms: C_7  and  O_10
REMARK    4  A    between atoms: C_8  and  O_12
REMARK    5  A    between atoms: C_9  and  O_14
REMARK    6  A    between atoms: C_17  and  C_22
REMARK                            x       y       z     vdW  Elec       q    Type
REMARK                         _______ _______ _______ _____ _____    ______ ____
ROOT
ATOM      1  C   UNL     1      33.513 -12.429 -24.788  0.00  0.00    +0.073 C 
ATOM      2  C   UNL     1      34.698 -11.993 -25.679  0.00  0.00    +0.017 C 
ATOM      3  C   UNL     1      32.357 -12.830 -25.730  0.00  0.00    +0.017 C 
ENDROOT
BRANCH   1   4
ATOM      4  C   UNL     1      33.027 -11.342 -23.816  0.00  0.00    -0.005 C 
ATOM      5  C   UNL     1      33.416 -10.016 -24.002  0.00  0.00    +0.037 C 
ATOM      6  C   UNL     1      32.196 -11.682 -22.749  0.00  0.00    +0.037 C 
ATOM      7  C   UNL     1      31.755 -10.696 -21.866  0.00  0.00    +0.175 C 
ATOM      8  C   UNL     1      32.974  -9.029 -23.119  0.00  0.00    +0.175 C 
ATOM      9  C   UNL     1      32.144  -9.370 -22.052  0.00  0.00    +0.206 C 
BRANCH   7  10
ATOM     10  O   UNL     1      30.944 -11.042 -20.828  0.00  0.00    -0.468 OA
ATOM     11  C   UNL     1      31.574 -11.555 -19.656  0.00  0.00    +0.253 C 
ENDBRANCH   7  10
BRANCH   8  12
ATOM     12  O   UNL     1      33.361  -7.738 -23.313  0.00  0.00    -0.468 OA
ATOM     13  C   UNL     1      34.753  -7.501 -23.516  0.00  0.00    +0.253 C 
ENDBRANCH   8  12
BRANCH   9  14
ATOM     14  O   UNL     1      31.712  -8.406 -21.190  0.00  0.00    -0.465 OA
ATOM     15  C   UNL     1      32.621  -7.996 -20.170  0.00  0.00    +0.253 C 
ENDBRANCH   9  14
ENDBRANCH   1   4
BRANCH   1  16
ATOM     16  C   UNL     1      33.955 -13.626 -24.026  0.00  0.00    -0.088 C 
ATOM     17  C   UNL     1      34.313 -14.594 -23.412  0.00  0.00    -0.076 C 
BRANCH  17  22
ATOM     18  N   UNL     1      35.117 -16.856 -20.582  0.00  0.00    -0.336 NA
ATOM     19  N   UNL     1      35.619 -17.990 -22.648  0.00  0.00    -0.317 NA
ATOM     20  N   UNL     1      35.260 -16.919 -24.725  0.00  0.00    -0.334 N 
ATOM     21  N   UNL     1      35.971 -19.042 -20.580  0.00  0.00    -0.283 N 
ATOM     22  C   UNL     1      34.744 -15.749 -22.686  0.00  0.00    +0.179 C 
ATOM     23  C   UNL     1      34.721 -15.790 -21.307  0.00  0.00    +0.120 C 
ATOM     24  C   UNL     1      35.207 -16.889 -23.310  0.00  0.00    +0.186 C 
ATOM     25  C   UNL     1      34.240 -14.620 -20.510  0.00  0.00    +0.064 C 
ATOM     26  C   UNL     1      35.548 -17.907 -21.306  0.00  0.00    +0.196 C 
ATOM     27  H   UNL     1      35.588 -17.723 -25.189  0.00  0.00    +0.144 HD
ATOM     28  H   UNL     1      34.969 -16.136 -25.245  0.00  0.00    +0.144 HD
ATOM     29  H   UNL     1      35.940 -19.036 -19.596  0.00  0.00    +0.156 HD
ATOM     30  H   UNL     1      36.297 -19.839 -21.058  0.00  0.00    +0.156 HD
ENDBRANCH  17  22
ENDBRANCH   1  16
TORSDOF 6
ENDMDL
MODEL 7
REMARK VINA RESULT:      -8.0      5.217      8.736
REMARK  Name = 25187896
REMARK  6 active torsions:
REMARK  status: ('A' for Active; 'I' for Inactive)
REMARK    1  A    between atoms: C_1  and  C_4
REMARK    2  A    between atoms: C_1  and  C_16
REMARK    3  A    between atoms: C_7  and  O_10
REMARK    4  A    between atoms: C_8  and  O_12
REMARK    5  A    between atoms: C_9  and  O_14
REMARK    6  A    between atoms: C_17  and  C_22
REMARK                            x       y       z     vdW  Elec       q    Type
REMARK                         _______ _______ _______ _____ _____    ______ ____
ROOT
ATOM      1  C   UNL     1      33.450 -15.107 -21.166  0.00  0.00    +0.073 C 
ATOM      2  C   UNL     1      34.536 -14.898 -20.087  0.00  0.00    +0.017 C 
ATOM      3  C   UNL     1      32.209 -15.695 -20.459  0.00  0.00    +0.017 C 
ENDROOT
BRANCH   1   4
ATOM      4  C   UNL     1      33.876 -16.042 -22.310  0.00  0.00    -0.005 C 
ATOM      5  C   UNL     1      33.785 -15.611 -23.633  0.00  0.00    +0.037 C 
ATOM      6  C   UNL     1      34.355 -17.320 -22.024  0.00  0.00    +0.037 C 
ATOM      7  C   UNL     1      34.742 -18.168 -23.062  0.00  0.00    +0.175 C 
ATOM      8  C   UNL     1      34.173 -16.459 -24.671  0.00  0.00    +0.175 C 
ATOM      9  C   UNL     1      34.650 -17.737 -24.385  0.00  0.00    +0.206 C 
BRANCH   7  10
ATOM     10  O   UNL     1      35.208 -19.414 -22.769  0.00  0.00    -0.468 OA
ATOM     11  C   UNL     1      35.308 -19.761 -21.389  0.00  0.00    +0.253 C 
ENDBRANCH   7  10
BRANCH   8  12
ATOM     12  O   UNL     1      34.079 -16.025 -25.959  0.00  0.00    -0.468 OA
ATOM     13  C   UNL     1      33.037 -15.097 -26.257  0.00  0.00    +0.253 C 
ENDBRANCH   8  12
BRANCH   9  14
ATOM     14  O   UNL     1      35.030 -18.566 -25.399  0.00  0.00    -0.465 OA
ATOM     15  C   UNL     1      34.324 -19.799 -25.524  0.00  0.00    +0.253 C 
ENDBRANCH   9  14
ENDBRANCH   1   4
BRANCH   1  16
ATOM     16  C   UNL     1      33.108 -13.767 -21.711  0.00  0.00    -0.088 C 
ATOM     17  C   UNL     1      32.833 -12.683 -22.148  0.00  0.00    -0.076 C 
BRANCH  17  22
ATOM     18  N   UNL     1      31.106  -9.433 -22.627  0.00  0.00    -0.336 NA
ATOM     19  N   UNL     1      32.941  -9.574 -24.184  0.00  0.00    -0.317 NA
ATOM     20  N   UNL     1      34.329 -11.487 -24.236  0.00  0.00    -0.334 N 
ATOM     21  N   UNL     1      31.555  -7.680 -24.122  0.00  0.00    -0.283 N 
ATOM     22  C   UNL     1      32.508 -11.389 -22.664  0.00  0.00    +0.179 C 
ATOM     23  C   UNL     1      31.448 -10.656 -22.172  0.00  0.00    +0.120 C 
ATOM     24  C   UNL     1      33.226 -10.792 -23.680  0.00  0.00    +0.186 C 
ATOM     25  C   UNL     1      30.590 -11.189 -21.070  0.00  0.00    +0.064 C 
ATOM     26  C   UNL     1      31.883  -8.958 -23.620  0.00  0.00    +0.196 C 
ATOM     27  H   UNL     1      34.854 -11.078 -24.962  0.00  0.00    +0.144 HD
ATOM     28  H   UNL     1      34.571 -12.378 -23.897  0.00  0.00    +0.144 HD
ATOM     29  H   UNL     1      30.791  -7.186 -23.745  0.00  0.00    +0.156 HD
ATOM     30  H   UNL     1      32.089  -7.285 -24.848  0.00  0.00    +0.156 HD
ENDBRANCH  17  22
ENDBRANCH   1  16
TORSDOF 6
ENDMDL
MODEL 8
REMARK VINA RESULT:      -8.0      5.208      8.496
REMARK  Name = 25187896
REMARK  6 active torsions:
REMARK  status: ('A' for Active; 'I' for Inactive)
REMARK    1  A    between atoms: C_1  and  C_4
REMARK    2  A    between atoms: C_1  and  C_16
REMARK    3  A    between atoms: C_7  and  O_10
REMARK    4  A    between atoms: C_8  and  O_12
REMARK    5  A    between atoms: C_9  and  O_14
REMARK    6  A    between atoms: C_17  and  C_22
REMARK                            x       y       z     vdW  Elec       q    Type
REMARK                         _______ _______ _______ _____ _____    ______ ____
ROOT
ATOM      1  C   UNL     1      33.454 -15.115 -21.147  0.00  0.00    +0.073 C 
ATOM      2  C   UNL     1      34.543 -14.903 -20.071  0.00  0.00    +0.017 C 
ATOM      3  C   UNL     1      32.215 -15.700 -20.435  0.00  0.00    +0.017 C 
ENDROOT
BRANCH   1   4
ATOM      4  C   UNL     1      33.877 -16.051 -22.290  0.00  0.00    -0.005 C 
ATOM      5  C   UNL     1      34.336 -17.337 -22.005  0.00  0.00    +0.037 C 
ATOM      6  C   UNL     1      33.801 -15.615 -23.613  0.00  0.00    +0.037 C 
ATOM      7  C   UNL     1      34.185 -16.465 -24.651  0.00  0.00    +0.175 C 
ATOM      8  C   UNL     1      34.719 -18.187 -23.043  0.00  0.00    +0.175 C 
ATOM      9  C   UNL     1      34.644 -17.750 -24.365  0.00  0.00    +0.206 C 
BRANCH   7  10
ATOM     10  O   UNL     1      34.106 -16.027 -25.938  0.00  0.00    -0.468 OA
ATOM     11  C   UNL     1      33.063 -15.103 -26.245  0.00  0.00    +0.253 C 
ENDBRANCH   7  10
BRANCH   8  12
ATOM     12  O   UNL     1      35.165 -19.440 -22.750  0.00  0.00    -0.468 OA
ATOM     13  C   UNL     1      35.242 -19.796 -21.371  0.00  0.00    +0.253 C 
ENDBRANCH   8  12
BRANCH   9  14
ATOM     14  O   UNL     1      35.018 -18.581 -25.380  0.00  0.00    -0.465 OA
ATOM     15  C   UNL     1      34.281 -19.793 -25.528  0.00  0.00    +0.253 C 
ENDBRANCH   9  14
ENDBRANCH   1   4
BRANCH   1  16
ATOM     16  C   UNL     1      33.111 -13.775 -21.693  0.00  0.00    -0.088 C 
ATOM     17  C   UNL     1      32.834 -12.692 -22.133  0.00  0.00    -0.076 C 
BRANCH  17  22
ATOM     18  N   UNL     1      31.096  -9.448 -22.612  0.00  0.00    -0.336 NA
ATOM     19  N   UNL     1      32.929  -9.585 -24.171  0.00  0.00    -0.317 NA
ATOM     20  N   UNL     1      34.323 -11.493 -24.223  0.00  0.00    -0.334 N 
ATOM     21  N   UNL     1      31.538  -7.696 -24.109  0.00  0.00    -0.283 N 
ATOM     22  C   UNL     1      32.504 -11.400 -22.649  0.00  0.00    +0.179 C 
ATOM     23  C   UNL     1      31.442 -10.670 -22.156  0.00  0.00    +0.120 C 
ATOM     24  C   UNL     1      33.219 -10.802 -23.667  0.00  0.00    +0.186 C 
ATOM     25  C   UNL     1      30.588 -11.205 -21.052  0.00  0.00    +0.064 C 
ATOM     26  C   UNL     1      31.871  -8.972 -23.606  0.00  0.00    +0.196 C 
ATOM     27  H   UNL     1      34.846 -11.084 -24.950  0.00  0.00    +0.144 HD
ATOM     28  H   UNL     1      34.568 -12.384 -23.884  0.00  0.00    +0.144 HD
ATOM     29  H   UNL     1      30.773  -7.203 -23.732  0.00  0.00    +0.156 HD
ATOM     30  H   UNL     1      32.069  -7.299 -24.836  0.00  0.00    +0.156 HD
ENDBRANCH  17  22
ENDBRANCH   1  16
TORSDOF 6
ENDMDL
MODEL 9
REMARK VINA RESULT:      -7.5      7.111     10.648
REMARK  Name = 25187896
REMARK  6 active torsions:
REMARK  status: ('A' for Active; 'I' for Inactive)
REMARK    1  A    between atoms: C_1  and  C_4
REMARK    2  A    between atoms: C_1  and  C_16
REMARK    3  A    between atoms: C_7  and  O_10
REMARK    4  A    between atoms: C_8  and  O_12
REMARK    5  A    between atoms: C_9  and  O_14
REMARK    6  A    between atoms: C_17  and  C_22
REMARK                            x       y       z     vdW  Elec       q    Type
REMARK                         _______ _______ _______ _____ _____    ______ ____
ROOT
ATOM      1  C   UNL     1      31.650 -11.055 -21.029  0.00  0.00    +0.073 C 
ATOM      2  C   UNL     1      32.251 -10.759 -19.636  0.00  0.00    +0.017 C 
ATOM      3  C   UNL     1      30.118 -11.154 -20.855  0.00  0.00    +0.017 C 
ENDROOT
BRANCH   1   4
ATOM      4  C   UNL     1      32.175 -12.347 -21.677  0.00  0.00    -0.005 C 
ATOM      5  C   UNL     1      32.490 -13.447 -20.881  0.00  0.00    +0.037 C 
ATOM      6  C   UNL     1      32.335 -12.417 -23.060  0.00  0.00    +0.037 C 
ATOM      7  C   UNL     1      32.812 -13.589 -23.648  0.00  0.00    +0.175 C 
ATOM      8  C   UNL     1      32.967 -14.620 -21.469  0.00  0.00    +0.175 C 
ATOM      9  C   UNL     1      33.128 -14.689 -22.852  0.00  0.00    +0.206 C 
BRANCH   7  10
ATOM     10  O   UNL     1      32.964 -13.645 -25.001  0.00  0.00    -0.468 OA
ATOM     11  C   UNL     1      33.718 -12.600 -25.612  0.00  0.00    +0.253 C 
ENDBRANCH   7  10
BRANCH   8  12
ATOM     12  O   UNL     1      33.271 -15.687 -20.680  0.00  0.00    -0.468 OA
ATOM     13  C   UNL     1      34.603 -15.765 -20.178  0.00  0.00    +0.253 C 
ENDBRANCH   8  12
BRANCH   9  14
ATOM     14  O   UNL     1      33.593 -15.835 -23.427  0.00  0.00    -0.465 OA
ATOM     15  C   UNL     1      34.997 -15.916 -23.663  0.00  0.00    +0.253 C 
ENDBRANCH   9  14
ENDBRANCH   1   4
BRANCH   1  16
ATOM     16  C   UNL     1      31.964  -9.891 -21.899  0.00  0.00    -0.088 C 
ATOM     17  C   UNL     1      32.219  -8.952 -22.603  0.00  0.00    -0.076 C 
BRANCH  17  22
ATOM     18  N   UNL     1      34.061  -6.710 -24.916  0.00  0.00    -0.336 NA
ATOM     19  N   UNL     1      31.911  -5.733 -24.437  0.00  0.00    -0.317 NA
ATOM     20  N   UNL     1      30.389  -6.825 -22.994  0.00  0.00    -0.334 N 
ATOM     21  N   UNL     1      33.430  -4.659 -25.867  0.00  0.00    -0.283 N 
ATOM     22  C   UNL     1      32.526  -7.838 -23.445  0.00  0.00    +0.179 C 
ATOM     23  C   UNL     1      33.730  -7.741 -24.112  0.00  0.00    +0.120 C 
ATOM     24  C   UNL     1      31.646  -6.794 -23.647  0.00  0.00    +0.186 C 
ATOM     25  C   UNL     1      34.771  -8.806 -23.978  0.00  0.00    +0.064 C 
ATOM     26  C   UNL     1      33.119  -5.754 -25.032  0.00  0.00    +0.196 C 
ATOM     27  H   UNL     1      29.747  -6.090 -23.125  0.00  0.00    +0.144 HD
ATOM     28  H   UNL     1      30.156  -7.582 -22.410  0.00  0.00    +0.144 HD
ATOM     29  H   UNL     1      34.301  -4.624 -26.327  0.00  0.00    +0.156 HD
ATOM     30  H   UNL     1      32.779  -3.931 -25.988  0.00  0.00    +0.156 HD
ENDBRANCH  17  22
ENDBRANCH   1  16
TORSDOF 6
ENDMDL
