MODEL 1
REMARK VINA RESULT:      -5.3      0.000      0.000
REMARK  Name = 1110
REMARK  5 active torsions:
REMARK  status: ('A' for Active; 'I' for Inactive)
REMARK    1  A    between atoms: C_1  and  C_3
REMARK    2  A    between atoms: C_1  and  C_6
REMARK    3  A    between atoms: C_3  and  O_4
REMARK    4  A    between atoms: C_6  and  C_8
REMARK    5  A    between atoms: C_8  and  O_9
REMARK                            x       y       z     vdW  Elec       q    Type
REMARK                         _______ _______ _______ _____ _____    ______ ____
ROOT
ATOM      1  C   UNL     1      38.973 -25.421 -14.240  0.00  0.00    +0.121 C 
ENDROOT
BRANCH   1   3
ATOM      2  O   UNL     1      41.122 -26.516 -14.096  0.00  0.00    -0.250 OA
ATOM      3  C   UNL     1      40.256 -25.997 -14.787  0.00  0.00    +0.314 C 
BRANCH   3   4
ATOM      4  O   UNL     1      40.338 -25.896 -16.137  0.00  0.00    -0.480 OA
ATOM      5  H   UNL     1      39.557 -25.847 -16.652  0.00  0.00    +0.295 HD
ENDBRANCH   3   4
ENDBRANCH   1   3
BRANCH   1   6
ATOM      6  C   UNL     1      37.878 -26.474 -14.190  0.00  0.00    +0.121 C 
BRANCH   6   8
ATOM      7  O   UNL     1      36.099 -25.353 -15.378  0.00  0.00    -0.250 OA
ATOM      8  C   UNL     1      36.881 -26.292 -15.307  0.00  0.00    +0.314 C 
BRANCH   8   9
ATOM      9  O   UNL     1      36.934 -27.291 -16.223  0.00  0.00    -0.480 OA
ATOM     10  H   UNL     1      36.169 -27.802 -16.403  0.00  0.00    +0.295 HD
ENDBRANCH   8   9
ENDBRANCH   6   8
ENDBRANCH   1   6
TORSDOF 5
ENDMDL
MODEL 2
REMARK VINA RESULT:      -5.3      0.070      3.754
REMARK  Name = 1110
REMARK  5 active torsions:
REMARK  status: ('A' for Active; 'I' for Inactive)
REMARK    1  A    between atoms: C_1  and  C_3
REMARK    2  A    between atoms: C_1  and  C_6
REMARK    3  A    between atoms: C_3  and  O_4
REMARK    4  A    between atoms: C_6  and  C_8
REMARK    5  A    between atoms: C_8  and  O_9
REMARK                            x       y       z     vdW  Elec       q    Type
REMARK                         _______ _______ _______ _____ _____    ______ ____
ROOT
ATOM      1  C   UNL     1      37.873 -26.562 -14.254  0.00  0.00    +0.121 C 
ENDROOT
BRANCH   1   3
ATOM      2  O   UNL     1      36.084 -25.399 -15.389  0.00  0.00    -0.250 OA
ATOM      3  C   UNL     1      36.850 -26.353 -15.342  0.00  0.00    +0.314 C 
BRANCH   3   4
ATOM      4  O   UNL     1      36.882 -27.331 -16.282  0.00  0.00    -0.480 OA
ATOM      5  H   UNL     1      36.865 -27.107 -17.191  0.00  0.00    +0.295 HD
ENDBRANCH   3   4
ENDBRANCH   1   3
BRANCH   1   6
ATOM      6  C   UNL     1      38.944 -25.483 -14.295  0.00  0.00    +0.121 C 
BRANCH   6   8
ATOM      7  O   UNL     1      41.124 -26.503 -14.091  0.00  0.00    -0.250 OA
ATOM      8  C   UNL     1      40.256 -26.022 -14.808  0.00  0.00    +0.314 C 
BRANCH   8   9
ATOM      9  O   UNL     1      40.379 -25.906 -16.154  0.00  0.00    -0.480 OA
ATOM     10  H   UNL     1      39.660 -26.131 -16.711  0.00  0.00    +0.295 HD
ENDBRANCH   8   9
ENDBRANCH   6   8
ENDBRANCH   1   6
TORSDOF 5
ENDMDL
MODEL 3
REMARK VINA RESULT:      -5.1      2.307      3.798
REMARK  Name = 1110
REMARK  5 active torsions:
REMARK  status: ('A' for Active; 'I' for Inactive)
REMARK    1  A    between atoms: C_1  and  C_3
REMARK    2  A    between atoms: C_1  and  C_6
REMARK    3  A    between atoms: C_3  and  O_4
REMARK    4  A    between atoms: C_6  and  C_8
REMARK    5  A    between atoms: C_8  and  O_9
REMARK                            x       y       z     vdW  Elec       q    Type
REMARK                         _______ _______ _______ _____ _____    ______ ____
ROOT
ATOM      1  C   UNL     1      37.948 -24.934 -13.727  0.00  0.00    +0.121 C 
ENDROOT
BRANCH   1   3
ATOM      2  O   UNL     1      37.901 -24.573 -11.338  0.00  0.00    -0.250 OA
ATOM      3  C   UNL     1      37.598 -25.268 -12.298  0.00  0.00    +0.314 C 
BRANCH   3   4
ATOM      4  O   UNL     1      36.887 -26.419 -12.191  0.00  0.00    -0.480 OA
ATOM      5  H   UNL     1      37.280 -27.235 -12.429  0.00  0.00    +0.295 HD
ENDBRANCH   3   4
ENDBRANCH   1   3
BRANCH   1   6
ATOM      6  C   UNL     1      38.781 -26.038 -14.358  0.00  0.00    +0.121 C 
BRANCH   6   8
ATOM      7  O   UNL     1      40.834 -24.777 -14.179  0.00  0.00    -0.250 OA
ATOM      8  C   UNL     1      40.117 -25.522 -14.834  0.00  0.00    +0.314 C 
BRANCH   8   9
ATOM      9  O   UNL     1      40.435 -25.961 -16.077  0.00  0.00    -0.480 OA
ATOM     10  H   UNL     1      40.566 -26.876 -16.231  0.00  0.00    +0.295 HD
ENDBRANCH   8   9
ENDBRANCH   6   8
ENDBRANCH   1   6
TORSDOF 5
ENDMDL
MODEL 4
REMARK VINA RESULT:      -5.0      1.990      2.196
REMARK  Name = 1110
REMARK  5 active torsions:
REMARK  status: ('A' for Active; 'I' for Inactive)
REMARK    1  A    between atoms: C_1  and  C_3
REMARK    2  A    between atoms: C_1  and  C_6
REMARK    3  A    between atoms: C_3  and  O_4
REMARK    4  A    between atoms: C_6  and  C_8
REMARK    5  A    between atoms: C_8  and  O_9
REMARK                            x       y       z     vdW  Elec       q    Type
REMARK                         _______ _______ _______ _____ _____    ______ ____
ROOT
ATOM      1  C   UNL     1      38.927 -25.759 -14.346  0.00  0.00    +0.121 C 
ENDROOT
BRANCH   1   3
ATOM      2  O   UNL     1      41.046 -26.908 -14.514  0.00  0.00    -0.250 OA
ATOM      3  C   UNL     1      40.425 -25.854 -14.492  0.00  0.00    +0.314 C 
BRANCH   3   4
ATOM      4  O   UNL     1      41.015 -24.639 -14.620  0.00  0.00    -0.480 OA
ATOM      5  H   UNL     1      40.494 -23.860 -14.587  0.00  0.00    +0.295 HD
ENDBRANCH   3   4
ENDBRANCH   1   3
BRANCH   1   6
ATOM      6  C   UNL     1      38.537 -25.431 -12.913  0.00  0.00    +0.121 C 
BRANCH   6   8
ATOM      7  O   UNL     1      36.525 -25.672 -11.599  0.00  0.00    -0.250 OA
ATOM      8  C   UNL     1      37.205 -26.038 -12.549  0.00  0.00    +0.314 C 
BRANCH   8   9
ATOM      9  O   UNL     1      36.844 -27.047 -13.380  0.00  0.00    -0.480 OA
ATOM     10  H   UNL     1      36.800 -26.898 -14.305  0.00  0.00    +0.295 HD
ENDBRANCH   8   9
ENDBRANCH   6   8
ENDBRANCH   1   6
TORSDOF 5
ENDMDL
MODEL 5
REMARK VINA RESULT:      -5.0      2.735      3.400
REMARK  Name = 1110
REMARK  5 active torsions:
REMARK  status: ('A' for Active; 'I' for Inactive)
REMARK    1  A    between atoms: C_1  and  C_3
REMARK    2  A    between atoms: C_1  and  C_6
REMARK    3  A    between atoms: C_3  and  O_4
REMARK    4  A    between atoms: C_6  and  C_8
REMARK    5  A    between atoms: C_8  and  O_9
REMARK                            x       y       z     vdW  Elec       q    Type
REMARK                         _______ _______ _______ _____ _____    ______ ____
ROOT
ATOM      1  C   UNL     1      39.152 -25.571 -13.632  0.00  0.00    +0.121 C 
ENDROOT
BRANCH   1   3
ATOM      2  O   UNL     1      40.653 -26.025 -15.471  0.00  0.00    -0.250 OA
ATOM      3  C   UNL     1      39.810 -25.298 -14.962  0.00  0.00    +0.314 C 
BRANCH   3   4
ATOM      4  O   UNL     1      39.348 -24.166 -15.549  0.00  0.00    -0.480 OA
ATOM      5  H   UNL     1      39.115 -24.170 -16.457  0.00  0.00    +0.295 HD
ENDBRANCH   3   4
ENDBRANCH   1   3
BRANCH   1   6
ATOM      6  C   UNL     1      38.035 -24.576 -13.360  0.00  0.00    +0.121 C 
BRANCH   6   8
ATOM      7  O   UNL     1      37.350 -24.630 -11.044  0.00  0.00    -0.250 OA
ATOM      8  C   UNL     1      38.035 -24.121 -11.922  0.00  0.00    +0.314 C 
BRANCH   8   9
ATOM      9  O   UNL     1      38.870 -23.074 -11.705  0.00  0.00    -0.480 OA
ATOM     10  H   UNL     1      39.780 -23.226 -11.543  0.00  0.00    +0.295 HD
ENDBRANCH   8   9
ENDBRANCH   6   8
ENDBRANCH   1   6
TORSDOF 5
ENDMDL
MODEL 6
REMARK VINA RESULT:      -5.0      1.563      3.636
REMARK  Name = 1110
REMARK  5 active torsions:
REMARK  status: ('A' for Active; 'I' for Inactive)
REMARK    1  A    between atoms: C_1  and  C_3
REMARK    2  A    between atoms: C_1  and  C_6
REMARK    3  A    between atoms: C_3  and  O_4
REMARK    4  A    between atoms: C_6  and  C_8
REMARK    5  A    between atoms: C_8  and  O_9
REMARK                            x       y       z     vdW  Elec       q    Type
REMARK                         _______ _______ _______ _____ _____    ______ ____
ROOT
ATOM      1  C   UNL     1      38.236 -24.770 -13.625  0.00  0.00    +0.121 C 
ENDROOT
BRANCH   1   3
ATOM      2  O   UNL     1      37.749 -22.908 -15.086  0.00  0.00    -0.250 OA
ATOM      3  C   UNL     1      37.607 -24.093 -14.817  0.00  0.00    +0.314 C 
BRANCH   3   4
ATOM      4  O   UNL     1      36.878 -24.948 -15.578  0.00  0.00    -0.480 OA
ATOM      5  H   UNL     1      37.311 -25.579 -16.118  0.00  0.00    +0.295 HD
ENDBRANCH   3   4
ENDBRANCH   1   3
BRANCH   1   6
ATOM      6  C   UNL     1      39.157 -25.900 -14.060  0.00  0.00    +0.121 C 
BRANCH   6   8
ATOM      7  O   UNL     1      41.129 -24.565 -14.466  0.00  0.00    -0.250 OA
ATOM      8  C   UNL     1      40.318 -25.386 -14.875  0.00  0.00    +0.314 C 
BRANCH   8   9
ATOM      9  O   UNL     1      40.362 -25.923 -16.120  0.00  0.00    -0.480 OA
ATOM     10  H   UNL     1      40.014 -25.446 -16.847  0.00  0.00    +0.295 HD
ENDBRANCH   8   9
ENDBRANCH   6   8
ENDBRANCH   1   6
TORSDOF 5
ENDMDL
MODEL 7
REMARK VINA RESULT:      -4.8      2.875      3.516
REMARK  Name = 1110
REMARK  5 active torsions:
REMARK  status: ('A' for Active; 'I' for Inactive)
REMARK    1  A    between atoms: C_1  and  C_3
REMARK    2  A    between atoms: C_1  and  C_6
REMARK    3  A    between atoms: C_3  and  O_4
REMARK    4  A    between atoms: C_6  and  C_8
REMARK    5  A    between atoms: C_8  and  O_9
REMARK                            x       y       z     vdW  Elec       q    Type
REMARK                         _______ _______ _______ _____ _____    ______ ____
ROOT
ATOM      1  C   UNL     1      38.291 -25.181 -12.759  0.00  0.00    +0.121 C 
ENDROOT
BRANCH   1   3
ATOM      2  O   UNL     1      38.672 -23.038 -11.708  0.00  0.00    -0.250 OA
ATOM      3  C   UNL     1      38.041 -24.086 -11.752  0.00  0.00    +0.314 C 
BRANCH   3   4
ATOM      4  O   UNL     1      37.021 -24.379 -10.907  0.00  0.00    -0.480 OA
ATOM      5  H   UNL     1      36.635 -25.232 -10.918  0.00  0.00    +0.295 HD
ENDBRANCH   3   4
ENDBRANCH   1   3
BRANCH   1   6
ATOM      6  C   UNL     1      37.006 -25.579 -13.466  0.00  0.00    +0.121 C 
BRANCH   6   8
ATOM      7  O   UNL     1      38.334 -27.197 -14.672  0.00  0.00    -0.250 OA
ATOM      8  C   UNL     1      37.240 -26.691 -14.459  0.00  0.00    +0.314 C 
BRANCH   8   9
ATOM      9  O   UNL     1      36.107 -27.062 -15.106  0.00  0.00    -0.480 OA
ATOM     10  H   UNL     1      36.015 -26.893 -16.024  0.00  0.00    +0.295 HD
ENDBRANCH   8   9
ENDBRANCH   6   8
ENDBRANCH   1   6
TORSDOF 5
ENDMDL
MODEL 8
REMARK VINA RESULT:      -4.8      8.333      9.935
REMARK  Name = 1110
REMARK  5 active torsions:
REMARK  status: ('A' for Active; 'I' for Inactive)
REMARK    1  A    between atoms: C_1  and  C_3
REMARK    2  A    between atoms: C_1  and  C_6
REMARK    3  A    between atoms: C_3  and  O_4
REMARK    4  A    between atoms: C_6  and  C_8
REMARK    5  A    between atoms: C_8  and  O_9
REMARK                            x       y       z     vdW  Elec       q    Type
REMARK                         _______ _______ _______ _____ _____    ______ ____
ROOT
ATOM      1  C   UNL     1      30.146 -24.011 -15.880  0.00  0.00    +0.121 C 
ENDROOT
BRANCH   1   3
ATOM      2  O   UNL     1      31.062 -25.526 -14.235  0.00  0.00    -0.250 OA
ATOM      3  C   UNL     1      30.080 -25.058 -14.796  0.00  0.00    +0.314 C 
BRANCH   3   4
ATOM      4  O   UNL     1      28.806 -25.413 -14.492  0.00  0.00    -0.480 OA
ATOM      5  H   UNL     1      28.184 -25.555 -15.177  0.00  0.00    +0.295 HD
ENDBRANCH   3   4
ENDBRANCH   1   3
BRANCH   1   6
ATOM      6  C   UNL     1      29.132 -22.905 -15.636  0.00  0.00    +0.121 C 
BRANCH   6   8
ATOM      7  O   UNL     1      27.630 -21.759 -17.142  0.00  0.00    -0.250 OA
ATOM      8  C   UNL     1      28.133 -22.809 -16.762  0.00  0.00    +0.314 C 
BRANCH   8   9
ATOM      9  O   UNL     1      27.838 -24.017 -17.305  0.00  0.00    -0.480 OA
ATOM     10  H   UNL     1      26.967 -24.356 -17.246  0.00  0.00    +0.295 HD
ENDBRANCH   8   9
ENDBRANCH   6   8
ENDBRANCH   1   6
TORSDOF 5
ENDMDL
MODEL 9
REMARK VINA RESULT:      -4.7      2.489      3.602
REMARK  Name = 1110
REMARK  5 active torsions:
REMARK  status: ('A' for Active; 'I' for Inactive)
REMARK    1  A    between atoms: C_1  and  C_3
REMARK    2  A    between atoms: C_1  and  C_6
REMARK    3  A    between atoms: C_3  and  O_4
REMARK    4  A    between atoms: C_6  and  C_8
REMARK    5  A    between atoms: C_8  and  O_9
REMARK                            x       y       z     vdW  Elec       q    Type
REMARK                         _______ _______ _______ _____ _____    ______ ____
ROOT
ATOM      1  C   UNL     1      36.714 -25.779 -14.119  0.00  0.00    +0.121 C 
ENDROOT
BRANCH   1   3
ATOM      2  O   UNL     1      38.567 -27.198 -14.748  0.00  0.00    -0.250 OA
ATOM      3  C   UNL     1      37.460 -26.745 -15.006  0.00  0.00    +0.314 C 
BRANCH   3   4
ATOM      4  O   UNL     1      36.758 -27.079 -16.119  0.00  0.00    -0.480 OA
ATOM      5  H   UNL     1      36.539 -26.421 -16.748  0.00  0.00    +0.295 HD
ENDBRANCH   3   4
ENDBRANCH   1   3
BRANCH   1   6
ATOM      6  C   UNL     1      37.148 -25.921 -12.669  0.00  0.00    +0.121 C 
BRANCH   6   8
ATOM      7  O   UNL     1      38.923 -24.291 -12.842  0.00  0.00    -0.250 OA
ATOM      8  C   UNL     1      37.970 -24.738 -12.218  0.00  0.00    +0.314 C 
BRANCH   8   9
ATOM      9  O   UNL     1      37.547 -24.229 -11.034  0.00  0.00    -0.480 OA
ATOM     10  H   UNL     1      36.942 -23.513 -11.022  0.00  0.00    +0.295 HD
ENDBRANCH   8   9
ENDBRANCH   6   8
ENDBRANCH   1   6
TORSDOF 5
ENDMDL
