MODEL 1
REMARK VINA RESULT:      -5.4      0.000      0.000
REMARK  Name = 9834298
REMARK  10 active torsions:
REMARK  status: ('A' for Active; 'I' for Inactive)
REMARK    1  A    between atoms: C_1  and  C_2
REMARK    2  A    between atoms: C_1  and  C_9
REMARK    3  A    between atoms: C_2  and  S_3
REMARK    4  A    between atoms: C_2  and  C_5
REMARK    5  A    between atoms: C_5  and  C_6
REMARK    6  A    between atoms: C_6  and  S_7
REMARK    7  A    between atoms: C_9  and  C_10
REMARK    8  A    between atoms: C_10  and  C_11
REMARK    9  A    between atoms: C_11  and  C_13
REMARK   10  A    between atoms: C_13  and  O_14
REMARK                            x       y       z     vdW  Elec       q    Type
REMARK                         _______ _______ _______ _____ _____    ______ ____
ROOT
ATOM      1  C   UNL     1      34.505 -19.457 -21.903  0.00  0.00    +0.011 C 
ENDROOT
BRANCH   1   2
ATOM      2  C   UNL     1      35.261 -18.127 -22.091  0.00  0.00    +0.045 C 
BRANCH   2   3
ATOM      3  S   UNL     1      34.897 -17.410 -23.738  0.00  0.00    -0.169 S 
ATOM      4  H   UNL     1      36.003 -17.493 -24.524  0.00  0.00    +0.102 HD
ENDBRANCH   2   3
BRANCH   2   5
ATOM      5  C   UNL     1      34.998 -17.062 -21.011  0.00  0.00    +0.022 C 
BRANCH   5   6
ATOM      6  C   UNL     1      34.486 -15.745 -21.595  0.00  0.00    +0.054 C 
BRANCH   6   7
ATOM      7  S   UNL     1      32.803 -15.393 -21.006  0.00  0.00    -0.168 S 
ATOM      8  H   UNL     1      32.470 -14.113 -21.323  0.00  0.00    +0.102 HD
ENDBRANCH   6   7
ENDBRANCH   5   6
ENDBRANCH   2   5
ENDBRANCH   1   2
BRANCH   1   9
ATOM      9  C   UNL     1      33.259 -19.393 -21.010  0.00  0.00    +0.001 C 
BRANCH   9  10
ATOM     10  C   UNL     1      33.213 -20.586 -20.048  0.00  0.00    +0.012 C 
BRANCH  10  11
ATOM     11  C   UNL     1      34.601 -21.161 -19.760  0.00  0.00    +0.109 C 
BRANCH  11  13
ATOM     12  O   UNL     1      33.928 -23.485 -19.468  0.00  0.00    -0.250 OA
ATOM     13  C   UNL     1      34.558 -22.511 -19.080  0.00  0.00    +0.314 C 
BRANCH  13  14
ATOM     14  O   UNL     1      35.302 -22.517 -17.942  0.00  0.00    -0.480 OA
ATOM     15  H   UNL     1      36.103 -23.002 -17.909  0.00  0.00    +0.295 HD
ENDBRANCH  13  14
ENDBRANCH  11  13
ENDBRANCH  10  11
ENDBRANCH   9  10
ENDBRANCH   1   9
TORSDOF 10
ENDMDL
MODEL 2
REMARK VINA RESULT:      -5.4      4.917      6.239
REMARK  Name = 9834298
REMARK  10 active torsions:
REMARK  status: ('A' for Active; 'I' for Inactive)
REMARK    1  A    between atoms: C_1  and  C_2
REMARK    2  A    between atoms: C_1  and  C_9
REMARK    3  A    between atoms: C_2  and  S_3
REMARK    4  A    between atoms: C_2  and  C_5
REMARK    5  A    between atoms: C_5  and  C_6
REMARK    6  A    between atoms: C_6  and  S_7
REMARK    7  A    between atoms: C_9  and  C_10
REMARK    8  A    between atoms: C_10  and  C_11
REMARK    9  A    between atoms: C_11  and  C_13
REMARK   10  A    between atoms: C_13  and  O_14
REMARK                            x       y       z     vdW  Elec       q    Type
REMARK                         _______ _______ _______ _____ _____    ______ ____
ROOT
ATOM      1  C   UNL     1      35.789 -18.364 -23.041  0.00  0.00    +0.011 C 
ENDROOT
BRANCH   1   2
ATOM      2  C   UNL     1      35.356 -18.278 -21.565  0.00  0.00    +0.045 C 
BRANCH   2   3
ATOM      3  S   UNL     1      34.748 -16.593 -21.174  0.00  0.00    -0.169 S 
ATOM      4  H   UNL     1      35.296 -15.701 -22.041  0.00  0.00    +0.102 HD
ENDBRANCH   2   3
BRANCH   2   5
ATOM      5  C   UNL     1      34.297 -19.307 -21.129  0.00  0.00    +0.022 C 
BRANCH   5   6
ATOM      6  C   UNL     1      34.897 -20.467 -20.333  0.00  0.00    +0.054 C 
BRANCH   6   7
ATOM      7  S   UNL     1      33.586 -21.457 -19.555  0.00  0.00    -0.168 S 
ATOM      8  H   UNL     1      32.509 -20.666 -19.305  0.00  0.00    +0.102 HD
ENDBRANCH   6   7
ENDBRANCH   5   6
ENDBRANCH   2   5
ENDBRANCH   1   2
BRANCH   1   9
ATOM      9  C   UNL     1      34.872 -19.186 -23.957  0.00  0.00    +0.001 C 
BRANCH   9  10
ATOM     10  C   UNL     1      34.288 -18.312 -25.074  0.00  0.00    +0.012 C 
BRANCH  10  11
ATOM     11  C   UNL     1      34.828 -16.882 -25.041  0.00  0.00    +0.109 C 
BRANCH  11  13
ATOM     12  O   UNL     1      33.391 -15.641 -26.570  0.00  0.00    -0.250 OA
ATOM     13  C   UNL     1      33.798 -15.845 -25.434  0.00  0.00    +0.314 C 
BRANCH  13  14
ATOM     14  O   UNL     1      33.379 -15.130 -24.358  0.00  0.00    -0.480 OA
ATOM     15  H   UNL     1      32.474 -14.908 -24.267  0.00  0.00    +0.295 HD
ENDBRANCH  13  14
ENDBRANCH  11  13
ENDBRANCH  10  11
ENDBRANCH   9  10
ENDBRANCH   1   9
TORSDOF 10
ENDMDL
MODEL 3
REMARK VINA RESULT:      -5.2      1.598      2.481
REMARK  Name = 9834298
REMARK  10 active torsions:
REMARK  status: ('A' for Active; 'I' for Inactive)
REMARK    1  A    between atoms: C_1  and  C_2
REMARK    2  A    between atoms: C_1  and  C_9
REMARK    3  A    between atoms: C_2  and  S_3
REMARK    4  A    between atoms: C_2  and  C_5
REMARK    5  A    between atoms: C_5  and  C_6
REMARK    6  A    between atoms: C_6  and  S_7
REMARK    7  A    between atoms: C_9  and  C_10
REMARK    8  A    between atoms: C_10  and  C_11
REMARK    9  A    between atoms: C_11  and  C_13
REMARK   10  A    between atoms: C_13  and  O_14
REMARK                            x       y       z     vdW  Elec       q    Type
REMARK                         _______ _______ _______ _____ _____    ______ ____
ROOT
ATOM      1  C   UNL     1      34.623 -19.628 -21.005  0.00  0.00    +0.011 C 
ENDROOT
BRANCH   1   2
ATOM      2  C   UNL     1      34.483 -18.489 -22.034  0.00  0.00    +0.045 C 
BRANCH   2   3
ATOM      3  S   UNL     1      34.813 -16.868 -21.242  0.00  0.00    -0.169 S 
ATOM      4  H   UNL     1      36.144 -16.597 -21.300  0.00  0.00    +0.102 HD
ENDBRANCH   2   3
BRANCH   2   5
ATOM      5  C   UNL     1      35.364 -18.623 -23.289  0.00  0.00    +0.022 C 
BRANCH   5   6
ATOM      6  C   UNL     1      34.564 -18.497 -24.586  0.00  0.00    +0.054 C 
BRANCH   6   7
ATOM      7  S   UNL     1      34.498 -16.765 -25.133  0.00  0.00    -0.168 S 
ATOM      8  H   UNL     1      34.479 -15.947 -24.046  0.00  0.00    +0.102 HD
ENDBRANCH   6   7
ENDBRANCH   5   6
ENDBRANCH   2   5
ENDBRANCH   1   2
BRANCH   1   9
ATOM      9  C   UNL     1      33.306 -20.227 -20.493  0.00  0.00    +0.001 C 
BRANCH   9  10
ATOM     10  C   UNL     1      33.571 -21.383 -19.522  0.00  0.00    +0.012 C 
BRANCH  10  11
ATOM     11  C   UNL     1      35.004 -21.909 -19.614  0.00  0.00    +0.109 C 
BRANCH  11  13
ATOM     12  O   UNL     1      36.744 -21.452 -17.970  0.00  0.00    -0.250 OA
ATOM     13  C   UNL     1      35.694 -22.003 -18.271  0.00  0.00    +0.314 C 
BRANCH  13  14
ATOM     14  O   UNL     1      35.008 -22.807 -17.417  0.00  0.00    -0.480 OA
ATOM     15  H   UNL     1      34.229 -23.240 -17.705  0.00  0.00    +0.295 HD
ENDBRANCH  13  14
ENDBRANCH  11  13
ENDBRANCH  10  11
ENDBRANCH   9  10
ENDBRANCH   1   9
TORSDOF 10
ENDMDL
MODEL 4
REMARK VINA RESULT:      -5.2      1.002      1.253
REMARK  Name = 9834298
REMARK  10 active torsions:
REMARK  status: ('A' for Active; 'I' for Inactive)
REMARK    1  A    between atoms: C_1  and  C_2
REMARK    2  A    between atoms: C_1  and  C_9
REMARK    3  A    between atoms: C_2  and  S_3
REMARK    4  A    between atoms: C_2  and  C_5
REMARK    5  A    between atoms: C_5  and  C_6
REMARK    6  A    between atoms: C_6  and  S_7
REMARK    7  A    between atoms: C_9  and  C_10
REMARK    8  A    between atoms: C_10  and  C_11
REMARK    9  A    between atoms: C_11  and  C_13
REMARK   10  A    between atoms: C_13  and  O_14
REMARK                            x       y       z     vdW  Elec       q    Type
REMARK                         _______ _______ _______ _____ _____    ______ ____
ROOT
ATOM      1  C   UNL     1      34.735 -19.448 -22.118  0.00  0.00    +0.011 C 
ENDROOT
BRANCH   1   2
ATOM      2  C   UNL     1      35.336 -18.033 -22.219  0.00  0.00    +0.045 C 
BRANCH   2   3
ATOM      3  S   UNL     1      34.861 -17.248 -23.805  0.00  0.00    -0.169 S 
ATOM      4  H   UNL     1      35.566 -16.097 -23.971  0.00  0.00    +0.102 HD
ENDBRANCH   2   3
BRANCH   2   5
ATOM      5  C   UNL     1      34.979 -17.082 -21.061  0.00  0.00    +0.022 C 
BRANCH   5   6
ATOM      6  C   UNL     1      34.504 -15.713 -21.550  0.00  0.00    +0.054 C 
BRANCH   6   7
ATOM      7  S   UNL     1      32.837 -15.352 -20.923  0.00  0.00    -0.168 S 
ATOM      8  H   UNL     1      32.526 -16.228 -19.930  0.00  0.00    +0.102 HD
ENDBRANCH   6   7
ENDBRANCH   5   6
ENDBRANCH   2   5
ENDBRANCH   1   2
BRANCH   1   9
ATOM      9  C   UNL     1      34.463 -19.956 -20.695  0.00  0.00    +0.001 C 
BRANCH   9  10
ATOM     10  C   UNL     1      35.514 -20.989 -20.272  0.00  0.00    +0.012 C 
BRANCH  10  11
ATOM     11  C   UNL     1      35.128 -21.724 -18.987  0.00  0.00    +0.109 C 
BRANCH  11  13
ATOM     12  O   UNL     1      32.734 -22.133 -18.790  0.00  0.00    -0.250 OA
ATOM     13  C   UNL     1      33.847 -22.519 -19.117  0.00  0.00    +0.314 C 
BRANCH  13  14
ATOM     14  O   UNL     1      34.081 -23.754 -19.632  0.00  0.00    -0.480 OA
ATOM     15  H   UNL     1      34.868 -24.212 -19.412  0.00  0.00    +0.295 HD
ENDBRANCH  13  14
ENDBRANCH  11  13
ENDBRANCH  10  11
ENDBRANCH   9  10
ENDBRANCH   1   9
TORSDOF 10
ENDMDL
MODEL 5
REMARK VINA RESULT:      -5.2      1.781      2.233
REMARK  Name = 9834298
REMARK  10 active torsions:
REMARK  status: ('A' for Active; 'I' for Inactive)
REMARK    1  A    between atoms: C_1  and  C_2
REMARK    2  A    between atoms: C_1  and  C_9
REMARK    3  A    between atoms: C_2  and  S_3
REMARK    4  A    between atoms: C_2  and  C_5
REMARK    5  A    between atoms: C_5  and  C_6
REMARK    6  A    between atoms: C_6  and  S_7
REMARK    7  A    between atoms: C_9  and  C_10
REMARK    8  A    between atoms: C_10  and  C_11
REMARK    9  A    between atoms: C_11  and  C_13
REMARK   10  A    between atoms: C_13  and  O_14
REMARK                            x       y       z     vdW  Elec       q    Type
REMARK                         _______ _______ _______ _____ _____    ______ ____
ROOT
ATOM      1  C   UNL     1      35.396 -18.249 -22.356  0.00  0.00    +0.011 C 
ENDROOT
BRANCH   1   2
ATOM      2  C   UNL     1      34.567 -16.953 -22.441  0.00  0.00    +0.045 C 
BRANCH   2   3
ATOM      3  S   UNL     1      34.634 -16.044 -20.851  0.00  0.00    -0.169 S 
ATOM      4  H   UNL     1      35.932 -15.821 -20.510  0.00  0.00    +0.102 HD
ENDBRANCH   2   3
BRANCH   2   5
ATOM      5  C   UNL     1      34.956 -15.996 -23.583  0.00  0.00    +0.022 C 
BRANCH   5   6
ATOM      6  C   UNL     1      33.743 -15.317 -24.221  0.00  0.00    +0.054 C 
BRANCH   6   7
ATOM      7  S   UNL     1      33.691 -13.554 -23.786  0.00  0.00    -0.168 S 
ATOM      8  H   UNL     1      33.144 -12.850 -24.813  0.00  0.00    +0.102 HD
ENDBRANCH   6   7
ENDBRANCH   5   6
ENDBRANCH   2   5
ENDBRANCH   1   2
BRANCH   1   9
ATOM      9  C   UNL     1      34.596 -19.535 -22.108  0.00  0.00    +0.001 C 
BRANCH   9  10
ATOM     10  C   UNL     1      34.701 -19.972 -20.643  0.00  0.00    +0.012 C 
BRANCH  10  11
ATOM     11  C   UNL     1      33.432 -20.668 -20.147  0.00  0.00    +0.109 C 
BRANCH  11  13
ATOM     12  O   UNL     1      34.742 -22.593 -19.429  0.00  0.00    -0.250 OA
ATOM     13  C   UNL     1      33.711 -21.937 -19.372  0.00  0.00    +0.314 C 
BRANCH  13  14
ATOM     14  O   UNL     1      32.650 -22.289 -18.600  0.00  0.00    -0.480 OA
ATOM     15  H   UNL     1      32.657 -23.105 -18.139  0.00  0.00    +0.295 HD
ENDBRANCH  13  14
ENDBRANCH  11  13
ENDBRANCH  10  11
ENDBRANCH   9  10
ENDBRANCH   1   9
TORSDOF 10
ENDMDL
MODEL 6
REMARK VINA RESULT:      -5.2      7.594      9.720
REMARK  Name = 9834298
REMARK  10 active torsions:
REMARK  status: ('A' for Active; 'I' for Inactive)
REMARK    1  A    between atoms: C_1  and  C_2
REMARK    2  A    between atoms: C_1  and  C_9
REMARK    3  A    between atoms: C_2  and  S_3
REMARK    4  A    between atoms: C_2  and  C_5
REMARK    5  A    between atoms: C_5  and  C_6
REMARK    6  A    between atoms: C_6  and  S_7
REMARK    7  A    between atoms: C_9  and  C_10
REMARK    8  A    between atoms: C_10  and  C_11
REMARK    9  A    between atoms: C_11  and  C_13
REMARK   10  A    between atoms: C_13  and  O_14
REMARK                            x       y       z     vdW  Elec       q    Type
REMARK                         _______ _______ _______ _____ _____    ______ ____
ROOT
ATOM      1  C   UNL     1      36.570 -25.475 -14.344  0.00  0.00    +0.011 C 
ENDROOT
BRANCH   1   2
ATOM      2  C   UNL     1      35.460 -24.492 -13.922  0.00  0.00    +0.045 C 
BRANCH   2   3
ATOM      3  S   UNL     1      35.348 -24.399 -12.095  0.00  0.00    -0.169 S 
ATOM      4  H   UNL     1      35.720 -25.590 -11.556  0.00  0.00    +0.102 HD
ENDBRANCH   2   3
BRANCH   2   5
ATOM      5  C   UNL     1      35.592 -23.068 -14.491  0.00  0.00    +0.022 C 
BRANCH   5   6
ATOM      6  C   UNL     1      35.838 -23.056 -16.000  0.00  0.00    +0.054 C 
BRANCH   6   7
ATOM      7  S   UNL     1      37.218 -21.949 -16.416  0.00  0.00    -0.168 S 
ATOM      8  H   UNL     1      37.739 -21.425 -15.275  0.00  0.00    +0.102 HD
ENDBRANCH   6   7
ENDBRANCH   5   6
ENDBRANCH   2   5
ENDBRANCH   1   2
BRANCH   1   9
ATOM      9  C   UNL     1      37.252 -26.239 -13.200  0.00  0.00    +0.001 C 
BRANCH   9  10
ATOM     10  C   UNL     1      38.647 -25.670 -12.916  0.00  0.00    +0.012 C 
BRANCH  10  11
ATOM     11  C   UNL     1      39.299 -25.070 -14.163  0.00  0.00    +0.109 C 
BRANCH  11  13
ATOM     12  O   UNL     1      41.208 -26.583 -14.103  0.00  0.00    -0.250 OA
ATOM     13  C   UNL     1      40.388 -25.944 -14.746  0.00  0.00    +0.314 C 
BRANCH  13  14
ATOM     14  O   UNL     1      40.367 -25.921 -16.105  0.00  0.00    -0.480 OA
ATOM     15  H   UNL     1      40.147 -26.697 -16.582  0.00  0.00    +0.295 HD
ENDBRANCH  13  14
ENDBRANCH  11  13
ENDBRANCH  10  11
ENDBRANCH   9  10
ENDBRANCH   1   9
TORSDOF 10
ENDMDL
MODEL 7
REMARK VINA RESULT:      -5.2      6.201      7.426
REMARK  Name = 9834298
REMARK  10 active torsions:
REMARK  status: ('A' for Active; 'I' for Inactive)
REMARK    1  A    between atoms: C_1  and  C_2
REMARK    2  A    between atoms: C_1  and  C_9
REMARK    3  A    between atoms: C_2  and  S_3
REMARK    4  A    between atoms: C_2  and  C_5
REMARK    5  A    between atoms: C_5  and  C_6
REMARK    6  A    between atoms: C_6  and  S_7
REMARK    7  A    between atoms: C_9  and  C_10
REMARK    8  A    between atoms: C_10  and  C_11
REMARK    9  A    between atoms: C_11  and  C_13
REMARK   10  A    between atoms: C_13  and  O_14
REMARK                            x       y       z     vdW  Elec       q    Type
REMARK                         _______ _______ _______ _____ _____    ______ ____
ROOT
ATOM      1  C   UNL     1      32.002 -22.977 -16.873  0.00  0.00    +0.011 C 
ENDROOT
BRANCH   1   2
ATOM      2  C   UNL     1      33.434 -23.376 -17.277  0.00  0.00    +0.045 C 
BRANCH   2   3
ATOM      3  S   UNL     1      33.947 -22.474 -18.789  0.00  0.00    -0.169 S 
ATOM      4  H   UNL     1      35.291 -22.271 -18.762  0.00  0.00    +0.102 HD
ENDBRANCH   2   3
BRANCH   2   5
ATOM      5  C   UNL     1      34.505 -23.178 -16.188  0.00  0.00    +0.022 C 
BRANCH   5   6
ATOM      6  C   UNL     1      35.787 -22.546 -16.730  0.00  0.00    +0.054 C 
BRANCH   6   7
ATOM      7  S   UNL     1      37.191 -22.899 -15.631  0.00  0.00    -0.168 S 
ATOM      8  H   UNL     1      38.079 -21.871 -15.687  0.00  0.00    +0.102 HD
ENDBRANCH   6   7
ENDBRANCH   5   6
ENDBRANCH   2   5
ENDBRANCH   1   2
BRANCH   1   9
ATOM      9  C   UNL     1      31.603 -23.302 -15.427  0.00  0.00    +0.001 C 
BRANCH   9  10
ATOM     10  C   UNL     1      30.150 -22.897 -15.155  0.00  0.00    +0.012 C 
BRANCH  10  11
ATOM     11  C   UNL     1      29.146 -23.902 -15.720  0.00  0.00    +0.109 C 
BRANCH  11  13
ATOM     12  O   UNL     1      27.635 -24.016 -17.629  0.00  0.00    -0.250 OA
ATOM     13  C   UNL     1      28.349 -23.358 -16.886  0.00  0.00    +0.314 C 
BRANCH  13  14
ATOM     14  O   UNL     1      28.538 -22.020 -17.035  0.00  0.00    -0.480 OA
ATOM     15  H   UNL     1      28.938 -21.688 -17.814  0.00  0.00    +0.295 HD
ENDBRANCH  13  14
ENDBRANCH  11  13
ENDBRANCH  10  11
ENDBRANCH   9  10
ENDBRANCH   1   9
TORSDOF 10
ENDMDL
MODEL 8
REMARK VINA RESULT:      -5.1      7.370      9.392
REMARK  Name = 9834298
REMARK  10 active torsions:
REMARK  status: ('A' for Active; 'I' for Inactive)
REMARK    1  A    between atoms: C_1  and  C_2
REMARK    2  A    between atoms: C_1  and  C_9
REMARK    3  A    between atoms: C_2  and  S_3
REMARK    4  A    between atoms: C_2  and  C_5
REMARK    5  A    between atoms: C_5  and  C_6
REMARK    6  A    between atoms: C_6  and  S_7
REMARK    7  A    between atoms: C_9  and  C_10
REMARK    8  A    between atoms: C_10  and  C_11
REMARK    9  A    between atoms: C_11  and  C_13
REMARK   10  A    between atoms: C_13  and  O_14
REMARK                            x       y       z     vdW  Elec       q    Type
REMARK                         _______ _______ _______ _____ _____    ______ ____
ROOT
ATOM      1  C   UNL     1      31.911 -12.393 -21.700  0.00  0.00    +0.011 C 
ENDROOT
BRANCH   1   2
ATOM      2  C   UNL     1      32.409 -13.799 -22.090  0.00  0.00    +0.045 C 
BRANCH   2   3
ATOM      3  S   UNL     1      33.767 -13.680 -23.315  0.00  0.00    -0.169 S 
ATOM      4  H   UNL     1      34.615 -12.679 -22.956  0.00  0.00    +0.102 HD
ENDBRANCH   2   3
BRANCH   2   5
ATOM      5  C   UNL     1      32.867 -14.684 -20.916  0.00  0.00    +0.022 C 
BRANCH   5   6
ATOM      6  C   UNL     1      34.379 -14.917 -20.911  0.00  0.00    +0.054 C 
BRANCH   6   7
ATOM      7  S   UNL     1      34.756 -16.686 -21.088  0.00  0.00    -0.168 S 
ATOM      8  H   UNL     1      35.694 -16.854 -22.058  0.00  0.00    +0.102 HD
ENDBRANCH   6   7
ENDBRANCH   5   6
ENDBRANCH   2   5
ENDBRANCH   1   2
BRANCH   1   9
ATOM      9  C   UNL     1      31.666 -12.166 -20.202  0.00  0.00    +0.001 C 
BRANCH   9  10
ATOM     10  C   UNL     1      30.998 -10.808 -19.956  0.00  0.00    +0.012 C 
BRANCH  10  11
ATOM     11  C   UNL     1      31.951  -9.792 -19.325  0.00  0.00    +0.109 C 
BRANCH  11  13
ATOM     12  O   UNL     1      32.255  -8.733 -21.499  0.00  0.00    -0.250 OA
ATOM     13  C   UNL     1      32.381  -8.703 -20.283  0.00  0.00    +0.314 C 
BRANCH  13  14
ATOM     14  O   UNL     1      32.960  -7.664 -19.624  0.00  0.00    -0.480 OA
ATOM     15  H   UNL     1      33.143  -7.734 -18.708  0.00  0.00    +0.295 HD
ENDBRANCH  13  14
ENDBRANCH  11  13
ENDBRANCH  10  11
ENDBRANCH   9  10
ENDBRANCH   1   9
TORSDOF 10
ENDMDL
MODEL 9
REMARK VINA RESULT:      -5.1      1.669      2.247
REMARK  Name = 9834298
REMARK  10 active torsions:
REMARK  status: ('A' for Active; 'I' for Inactive)
REMARK    1  A    between atoms: C_1  and  C_2
REMARK    2  A    between atoms: C_1  and  C_9
REMARK    3  A    between atoms: C_2  and  S_3
REMARK    4  A    between atoms: C_2  and  C_5
REMARK    5  A    between atoms: C_5  and  C_6
REMARK    6  A    between atoms: C_6  and  S_7
REMARK    7  A    between atoms: C_9  and  C_10
REMARK    8  A    between atoms: C_10  and  C_11
REMARK    9  A    between atoms: C_11  and  C_13
REMARK   10  A    between atoms: C_13  and  O_14
REMARK                            x       y       z     vdW  Elec       q    Type
REMARK                         _______ _______ _______ _____ _____    ______ ____
ROOT
ATOM      1  C   UNL     1      35.513 -18.992 -21.382  0.00  0.00    +0.011 C 
ENDROOT
BRANCH   1   2
ATOM      2  C   UNL     1      34.650 -17.927 -22.086  0.00  0.00    +0.045 C 
BRANCH   2   3
ATOM      3  S   UNL     1      34.693 -16.349 -21.154  0.00  0.00    -0.169 S 
ATOM      4  H   UNL     1      35.067 -16.591 -19.869  0.00  0.00    +0.102 HD
ENDBRANCH   2   3
BRANCH   2   5
ATOM      5  C   UNL     1      35.013 -17.652 -23.556  0.00  0.00    +0.022 C 
BRANCH   5   6
ATOM      6  C   UNL     1      34.961 -16.164 -23.907  0.00  0.00    +0.054 C 
BRANCH   6   7
ATOM      7  S   UNL     1      33.826 -15.872 -25.296  0.00  0.00    -0.168 S 
ATOM      8  H   UNL     1      33.003 -16.945 -25.442  0.00  0.00    +0.102 HD
ENDBRANCH   6   7
ENDBRANCH   5   6
ENDBRANCH   2   5
ENDBRANCH   1   2
BRANCH   1   9
ATOM      9  C   UNL     1      34.741 -20.068 -20.606  0.00  0.00    +0.001 C 
BRANCH   9  10
ATOM     10  C   UNL     1      35.687 -21.164 -20.102  0.00  0.00    +0.012 C 
BRANCH  10  11
ATOM     11  C   UNL     1      35.153 -21.869 -18.853  0.00  0.00    +0.109 C 
BRANCH  11  13
ATOM     12  O   UNL     1      34.042 -23.888 -19.646  0.00  0.00    -0.250 OA
ATOM     13  C   UNL     1      33.977 -22.777 -19.138  0.00  0.00    +0.314 C 
BRANCH  13  14
ATOM     14  O   UNL     1      32.803 -22.196 -18.776  0.00  0.00    -0.480 OA
ATOM     15  H   UNL     1      32.712 -21.812 -17.926  0.00  0.00    +0.295 HD
ENDBRANCH  13  14
ENDBRANCH  11  13
ENDBRANCH  10  11
ENDBRANCH   9  10
ENDBRANCH   1   9
TORSDOF 10
ENDMDL
