MODEL 1
REMARK VINA RESULT:      -8.6      0.000      0.000
REMARK  Name = 16666708
REMARK  7 active torsions:
REMARK  status: ('A' for Active; 'I' for Inactive)
REMARK    1  A    between atoms: C_3  and  N_19
REMARK    2  A    between atoms: C_4  and  C_12
REMARK    3  A    between atoms: N_11  and  O_14
REMARK    4  A    between atoms: O_14  and  C_15
REMARK    5  A    between atoms: C_15  and  C_16
REMARK    6  A    between atoms: C_16  and  O_17
REMARK    7  A    between atoms: N_19  and  C_23
REMARK                            x       y       z     vdW  Elec       q    Type
REMARK                         _______ _______ _______ _____ _____    ______ ____
ROOT
ATOM      1  O   UNL     1      30.472 -24.234 -12.827  0.00  0.00    -0.270 OA
ATOM      2  N   UNL     1      32.405 -23.431 -13.865  0.00  0.00    -0.242 N 
ATOM      3  C   UNL     1      33.123 -23.138 -15.050  0.00  0.00    +0.111 C 
ATOM      4  C   UNL     1      32.513 -23.404 -16.231  0.00  0.00    +0.083 C 
ATOM      5  C   UNL     1      30.485 -24.249 -15.175  0.00  0.00    +0.032 C 
ATOM      6  C   UNL     1      31.110 -23.975 -13.848  0.00  0.00    +0.250 C 
ATOM      7  C   UNL     1      31.183 -23.964 -16.279  0.00  0.00    +0.007 C 
ATOM      8  C   UNL     1      33.051 -23.150 -12.580  0.00  0.00    +0.122 C 
ATOM      9  C   UNL     1      29.107 -24.831 -15.200  0.00  0.00    +0.036 C 
ENDROOT
BRANCH   4  12
ATOM     10  O   UNL     1      34.257 -23.623 -17.792  0.00  0.00    -0.268 OA
ATOM     11  N   UNL     1      32.404 -22.338 -18.337  0.00  0.00    -0.190 N 
ATOM     12  C   UNL     1      33.161 -23.141 -17.531  0.00  0.00    +0.270 C 
ATOM     13  H   UNL     1      31.552 -21.943 -18.039  0.00  0.00    +0.183 HD
BRANCH  11  14
ATOM     14  O   UNL     1      32.930 -22.116 -19.624  0.00  0.00    -0.263 OA
BRANCH  14  15
ATOM     15  C   UNL     1      33.154 -20.721 -19.782  0.00  0.00    +0.203 C 
BRANCH  15  16
ATOM     16  C   UNL     1      34.599 -20.494 -20.183  0.00  0.00    +0.172 C 
BRANCH  16  17
ATOM     17  O   UNL     1      35.422 -21.440 -19.509  0.00  0.00    -0.379 OA
ATOM     18  H   UNL     1      36.064 -20.971 -18.954  0.00  0.00    +0.211 HD
ENDBRANCH  16  17
ENDBRANCH  15  16
ENDBRANCH  14  15
ENDBRANCH  11  14
ENDBRANCH   4  12
BRANCH   3  19
ATOM     19  N   UNL     1      34.393 -22.604 -14.985  0.00  0.00    -0.299 N 
ATOM     20  H   UNL     1      34.449 -21.620 -14.993  0.00  0.00    +0.153 HD
BRANCH  19  23
ATOM     21  I   UNL     1      39.853 -25.683 -14.638  0.00  0.00    -0.042 I 
ATOM     22  F   UNL     1      36.720 -21.555 -16.095  0.00  0.00    -0.203 F 
ATOM     23  C   UNL     1      35.603 -23.284 -14.909  0.00  0.00    +0.077 C 
ATOM     24  C   UNL     1      36.770 -22.742 -15.474  0.00  0.00    +0.154 C 
ATOM     25  C   UNL     1      35.684 -24.529 -14.264  0.00  0.00    +0.017 C 
ATOM     26  C   UNL     1      37.983 -23.427 -15.397  0.00  0.00    +0.037 C 
ATOM     27  C   UNL     1      36.896 -25.214 -14.187  0.00  0.00    +0.007 C 
ATOM     28  C   UNL     1      38.046 -24.662 -14.753  0.00  0.00    +0.032 C 
ENDBRANCH  19  23
ENDBRANCH   3  19
TORSDOF 7
ENDMDL
MODEL 2
REMARK VINA RESULT:      -8.0     11.480     15.364
REMARK  Name = 16666708
REMARK  7 active torsions:
REMARK  status: ('A' for Active; 'I' for Inactive)
REMARK    1  A    between atoms: C_3  and  N_19
REMARK    2  A    between atoms: C_4  and  C_12
REMARK    3  A    between atoms: N_11  and  O_14
REMARK    4  A    between atoms: O_14  and  C_15
REMARK    5  A    between atoms: C_15  and  C_16
REMARK    6  A    between atoms: C_16  and  O_17
REMARK    7  A    between atoms: N_19  and  C_23
REMARK                            x       y       z     vdW  Elec       q    Type
REMARK                         _______ _______ _______ _____ _____    ______ ____
ROOT
ATOM      1  O   UNL     1      34.170 -13.144 -27.746  0.00  0.00    -0.270 OA
ATOM      2  N   UNL     1      34.117 -11.958 -25.735  0.00  0.00    -0.242 N 
ATOM      3  C   UNL     1      33.717 -11.869 -24.379  0.00  0.00    +0.111 C 
ATOM      4  C   UNL     1      33.012 -12.909 -23.868  0.00  0.00    +0.083 C 
ATOM      5  C   UNL     1      33.050 -14.168 -25.954  0.00  0.00    +0.032 C 
ATOM      6  C   UNL     1      33.828 -13.052 -26.567  0.00  0.00    +0.250 C 
ATOM      7  C   UNL     1      32.684 -14.062 -24.673  0.00  0.00    +0.007 C 
ATOM      8  C   UNL     1      34.877 -10.841 -26.303  0.00  0.00    +0.122 C 
ATOM      9  C   UNL     1      32.720 -15.351 -26.809  0.00  0.00    +0.036 C 
ENDROOT
BRANCH   4  12
ATOM     10  O   UNL     1      31.672 -12.155 -22.089  0.00  0.00    -0.268 OA
ATOM     11  N   UNL     1      33.178 -13.882 -21.721  0.00  0.00    -0.190 N 
ATOM     12  C   UNL     1      32.542 -12.931 -22.468  0.00  0.00    +0.270 C 
ATOM     13  H   UNL     1      33.908 -14.436 -22.081  0.00  0.00    +0.183 HD
BRANCH  11  14
ATOM     14  O   UNL     1      32.716 -14.008 -20.396  0.00  0.00    -0.263 OA
BRANCH  14  15
ATOM     15  C   UNL     1      32.650 -15.391 -20.075  0.00  0.00    +0.203 C 
BRANCH  15  16
ATOM     16  C   UNL     1      33.653 -16.145 -20.927  0.00  0.00    +0.172 C 
BRANCH  16  17
ATOM     17  O   UNL     1      34.961 -15.922 -20.411  0.00  0.00    -0.379 OA
ATOM     18  H   UNL     1      35.618 -16.165 -21.082  0.00  0.00    +0.211 HD
ENDBRANCH  16  17
ENDBRANCH  15  16
ENDBRANCH  14  15
ENDBRANCH  11  14
ENDBRANCH   4  12
BRANCH   3  19
ATOM     19  N   UNL     1      34.039 -10.761 -23.624  0.00  0.00    -0.299 N 
ATOM     20  H   UNL     1      34.785 -10.872 -22.991  0.00  0.00    +0.153 HD
BRANCH  19  23
ATOM     21  I   UNL     1      31.328  -5.100 -23.737  0.00  0.00    -0.042 I 
ATOM     22  F   UNL     1      35.556  -8.431 -23.748  0.00  0.00    -0.203 F 
ATOM     23  C   UNL     1      33.441  -9.506 -23.650  0.00  0.00    +0.077 C 
ATOM     24  C   UNL     1      34.220  -8.338 -23.712  0.00  0.00    +0.154 C 
ATOM     25  C   UNL     1      32.042  -9.380 -23.613  0.00  0.00    +0.017 C 
ATOM     26  C   UNL     1      33.617  -7.081 -23.736  0.00  0.00    +0.037 C 
ATOM     27  C   UNL     1      31.439  -8.123 -23.637  0.00  0.00    +0.007 C 
ATOM     28  C   UNL     1      32.227  -6.973 -23.700  0.00  0.00    +0.032 C 
ENDBRANCH  19  23
ENDBRANCH   3  19
TORSDOF 7
ENDMDL
MODEL 3
REMARK VINA RESULT:      -7.9     13.175     15.646
REMARK  Name = 16666708
REMARK  7 active torsions:
REMARK  status: ('A' for Active; 'I' for Inactive)
REMARK    1  A    between atoms: C_3  and  N_19
REMARK    2  A    between atoms: C_4  and  C_12
REMARK    3  A    between atoms: N_11  and  O_14
REMARK    4  A    between atoms: O_14  and  C_15
REMARK    5  A    between atoms: C_15  and  C_16
REMARK    6  A    between atoms: C_16  and  O_17
REMARK    7  A    between atoms: N_19  and  C_23
REMARK                            x       y       z     vdW  Elec       q    Type
REMARK                         _______ _______ _______ _____ _____    ______ ____
ROOT
ATOM      1  O   UNL     1      33.897 -13.172 -27.591  0.00  0.00    -0.270 OA
ATOM      2  N   UNL     1      33.930 -12.008 -25.566  0.00  0.00    -0.242 N 
ATOM      3  C   UNL     1      33.618 -11.949 -24.186  0.00  0.00    +0.111 C 
ATOM      4  C   UNL     1      32.995 -13.023 -23.641  0.00  0.00    +0.083 C 
ATOM      5  C   UNL     1      32.946 -14.260 -25.741  0.00  0.00    +0.032 C 
ATOM      6  C   UNL     1      33.632 -13.106 -26.390  0.00  0.00    +0.250 C 
ATOM      7  C   UNL     1      32.662 -14.181 -24.436  0.00  0.00    +0.007 C 
ATOM      8  C   UNL     1      34.602 -10.854 -26.171  0.00  0.00    +0.122 C 
ATOM      9  C   UNL     1      32.610 -15.449 -26.585  0.00  0.00    +0.036 C 
ENDROOT
BRANCH   4  12
ATOM     10  O   UNL     1      33.217 -13.818 -21.440  0.00  0.00    -0.268 OA
ATOM     11  N   UNL     1      31.587 -12.236 -21.914  0.00  0.00    -0.190 N 
ATOM     12  C   UNL     1      32.621 -13.078 -22.213  0.00  0.00    +0.270 C 
ATOM     13  H   UNL     1      31.120 -11.708 -22.601  0.00  0.00    +0.183 HD
BRANCH  11  14
ATOM     14  O   UNL     1      31.237 -12.181 -20.552  0.00  0.00    -0.263 OA
BRANCH  14  15
ATOM     15  C   UNL     1      30.959 -10.829 -20.214  0.00  0.00    +0.203 C 
BRANCH  15  16
ATOM     16  C   UNL     1      31.764 -10.450 -18.986  0.00  0.00    +0.172 C 
BRANCH  16  17
ATOM     17  O   UNL     1      32.607  -9.348 -19.305  0.00  0.00    -0.379 OA
ATOM     18  H   UNL     1      32.061  -8.586 -19.553  0.00  0.00    +0.211 HD
ENDBRANCH  16  17
ENDBRANCH  15  16
ENDBRANCH  14  15
ENDBRANCH  11  14
ENDBRANCH   4  12
BRANCH   3  19
ATOM     19  N   UNL     1      33.943 -10.835 -23.441  0.00  0.00    -0.299 N 
ATOM     20  H   UNL     1      34.669 -10.950 -22.786  0.00  0.00    +0.153 HD
BRANCH  19  23
ATOM     21  I   UNL     1      31.355  -5.122 -23.722  0.00  0.00    -0.042 I 
ATOM     22  F   UNL     1      35.498  -8.556 -23.811  0.00  0.00    -0.203 F 
ATOM     23  C   UNL     1      33.372  -9.569 -23.505  0.00  0.00    +0.077 C 
ATOM     24  C   UNL     1      34.170  -8.427 -23.691  0.00  0.00    +0.154 C 
ATOM     25  C   UNL     1      31.982  -9.405 -23.382  0.00  0.00    +0.017 C 
ATOM     26  C   UNL     1      33.594  -7.158 -23.753  0.00  0.00    +0.037 C 
ATOM     27  C   UNL     1      31.406  -8.136 -23.443  0.00  0.00    +0.007 C 
ATOM     28  C   UNL     1      32.212  -7.013 -23.630  0.00  0.00    +0.032 C 
ENDBRANCH  19  23
ENDBRANCH   3  19
TORSDOF 7
ENDMDL
MODEL 4
REMARK VINA RESULT:      -7.7      3.205      5.429
REMARK  Name = 16666708
REMARK  7 active torsions:
REMARK  status: ('A' for Active; 'I' for Inactive)
REMARK    1  A    between atoms: C_3  and  N_19
REMARK    2  A    between atoms: C_4  and  C_12
REMARK    3  A    between atoms: N_11  and  O_14
REMARK    4  A    between atoms: O_14  and  C_15
REMARK    5  A    between atoms: C_15  and  C_16
REMARK    6  A    between atoms: C_16  and  O_17
REMARK    7  A    between atoms: N_19  and  C_23
REMARK                            x       y       z     vdW  Elec       q    Type
REMARK                         _______ _______ _______ _____ _____    ______ ____
ROOT
ATOM      1  O   UNL     1      30.094 -22.576 -14.969  0.00  0.00    -0.270 OA
ATOM      2  N   UNL     1      31.994 -23.015 -16.255  0.00  0.00    -0.242 N 
ATOM      3  C   UNL     1      33.360 -23.381 -16.330  0.00  0.00    +0.111 C 
ATOM      4  C   UNL     1      34.006 -23.624 -15.162  0.00  0.00    +0.083 C 
ATOM      5  C   UNL     1      32.040 -23.170 -13.796  0.00  0.00    +0.032 C 
ATOM      6  C   UNL     1      31.282 -22.892 -15.051  0.00  0.00    +0.250 C 
ATOM      7  C   UNL     1      33.328 -23.514 -13.893  0.00  0.00    +0.007 C 
ATOM      8  C   UNL     1      31.282 -22.748 -17.507  0.00  0.00    +0.122 C 
ATOM      9  C   UNL     1      31.317 -23.047 -12.491  0.00  0.00    +0.036 C 
ENDROOT
BRANCH   4  12
ATOM     10  O   UNL     1      35.834 -24.978 -15.753  0.00  0.00    -0.268 OA
ATOM     11  N   UNL     1      36.167 -23.191 -14.312  0.00  0.00    -0.190 N 
ATOM     12  C   UNL     1      35.430 -24.014 -15.115  0.00  0.00    +0.270 C 
ATOM     13  H   UNL     1      35.762 -22.464 -13.786  0.00  0.00    +0.183 HD
BRANCH  11  14
ATOM     14  O   UNL     1      37.549 -23.461 -14.289  0.00  0.00    -0.263 OA
BRANCH  14  15
ATOM     15  C   UNL     1      37.852 -24.148 -13.082  0.00  0.00    +0.203 C 
BRANCH  15  16
ATOM     16  C   UNL     1      37.319 -23.346 -11.910  0.00  0.00    +0.172 C 
BRANCH  16  17
ATOM     17  O   UNL     1      37.957 -22.074 -11.889  0.00  0.00    -0.379 OA
ATOM     18  H   UNL     1      37.906 -21.674 -12.771  0.00  0.00    +0.211 HD
ENDBRANCH  16  17
ENDBRANCH  15  16
ENDBRANCH  14  15
ENDBRANCH  11  14
ENDBRANCH   4  12
BRANCH   3  19
ATOM     19  N   UNL     1      33.992 -23.482 -17.552  0.00  0.00    -0.299 N 
ATOM     20  H   UNL     1      34.191 -24.396 -17.861  0.00  0.00    +0.153 HD
BRANCH  19  23
ATOM     21  I   UNL     1      35.736 -18.825 -21.384  0.00  0.00    -0.042 I 
ATOM     22  F   UNL     1      36.608 -22.531 -17.579  0.00  0.00    -0.203 F 
ATOM     23  C   UNL     1      34.380 -22.451 -18.400  0.00  0.00    +0.077 C 
ATOM     24  C   UNL     1      35.705 -21.981 -18.403  0.00  0.00    +0.154 C 
ATOM     25  C   UNL     1      33.455 -21.857 -19.273  0.00  0.00    +0.017 C 
ATOM     26  C   UNL     1      36.091 -20.946 -19.254  0.00  0.00    +0.037 C 
ATOM     27  C   UNL     1      33.841 -20.821 -20.124  0.00  0.00    +0.007 C 
ATOM     28  C   UNL     1      35.160 -20.367 -20.115  0.00  0.00    +0.032 C 
ENDBRANCH  19  23
ENDBRANCH   3  19
TORSDOF 7
ENDMDL
MODEL 5
REMARK VINA RESULT:      -7.7      3.395      6.299
REMARK  Name = 16666708
REMARK  7 active torsions:
REMARK  status: ('A' for Active; 'I' for Inactive)
REMARK    1  A    between atoms: C_3  and  N_19
REMARK    2  A    between atoms: C_4  and  C_12
REMARK    3  A    between atoms: N_11  and  O_14
REMARK    4  A    between atoms: O_14  and  C_15
REMARK    5  A    between atoms: C_15  and  C_16
REMARK    6  A    between atoms: C_16  and  O_17
REMARK    7  A    between atoms: N_19  and  C_23
REMARK                            x       y       z     vdW  Elec       q    Type
REMARK                         _______ _______ _______ _____ _____    ______ ____
ROOT
ATOM      1  O   UNL     1      37.660 -22.406 -15.437  0.00  0.00    -0.270 OA
ATOM      2  N   UNL     1      36.027 -22.428 -17.107  0.00  0.00    -0.242 N 
ATOM      3  C   UNL     1      34.683 -22.643 -17.498  0.00  0.00    +0.111 C 
ATOM      4  C   UNL     1      33.807 -23.026 -16.536  0.00  0.00    +0.083 C 
ATOM      5  C   UNL     1      35.491 -23.013 -14.774  0.00  0.00    +0.032 C 
ATOM      6  C   UNL     1      36.495 -22.589 -15.793  0.00  0.00    +0.250 C 
ATOM      7  C   UNL     1      34.228 -23.209 -15.167  0.00  0.00    +0.007 C 
ATOM      8  C   UNL     1      36.987 -22.015 -18.135  0.00  0.00    +0.122 C 
ATOM      9  C   UNL     1      35.951 -23.197 -13.362  0.00  0.00    +0.036 C 
ENDROOT
BRANCH   4  12
ATOM     10  O   UNL     1      31.893 -22.953 -17.899  0.00  0.00    -0.268 OA
ATOM     11  N   UNL     1      31.741 -23.888 -15.781  0.00  0.00    -0.190 N 
ATOM     12  C   UNL     1      32.381 -23.278 -16.823  0.00  0.00    +0.270 C 
ATOM     13  H   UNL     1      32.186 -24.073 -14.923  0.00  0.00    +0.183 HD
BRANCH  11  14
ATOM     14  O   UNL     1      30.396 -24.229 -16.024  0.00  0.00    -0.263 OA
BRANCH  14  15
ATOM     15  C   UNL     1      29.582 -23.546 -15.079  0.00  0.00    +0.203 C 
BRANCH  15  16
ATOM     16  C   UNL     1      28.587 -22.676 -15.822  0.00  0.00    +0.172 C 
BRANCH  16  17
ATOM     17  O   UNL     1      29.133 -22.323 -17.088  0.00  0.00    -0.379 OA
ATOM     18  H   UNL     1      29.697 -23.043 -17.409  0.00  0.00    +0.211 HD
ENDBRANCH  16  17
ENDBRANCH  15  16
ENDBRANCH  14  15
ENDBRANCH  11  14
ENDBRANCH   4  12
BRANCH   3  19
ATOM     19  N   UNL     1      34.298 -22.464 -18.810  0.00  0.00    -0.299 N 
ATOM     20  H   UNL     1      33.856 -23.233 -19.239  0.00  0.00    +0.153 HD
BRANCH  19  23
ATOM     21  I   UNL     1      35.020 -17.352 -22.382  0.00  0.00    -0.042 I 
ATOM     22  F   UNL     1      32.171 -20.744 -19.324  0.00  0.00    -0.203 F 
ATOM     23  C   UNL     1      34.456 -21.331 -19.600  0.00  0.00    +0.077 C 
ATOM     24  C   UNL     1      33.373 -20.472 -19.851  0.00  0.00    +0.154 C 
ATOM     25  C   UNL     1      35.704 -21.022 -20.165  0.00  0.00    +0.017 C 
ATOM     26  C   UNL     1      33.534 -19.337 -20.646  0.00  0.00    +0.037 C 
ATOM     27  C   UNL     1      35.866 -19.887 -20.960  0.00  0.00    +0.007 C 
ATOM     28  C   UNL     1      34.780 -19.044 -21.199  0.00  0.00    +0.032 C 
ENDBRANCH  19  23
ENDBRANCH   3  19
TORSDOF 7
ENDMDL
MODEL 6
REMARK VINA RESULT:      -7.5      3.202      5.431
REMARK  Name = 16666708
REMARK  7 active torsions:
REMARK  status: ('A' for Active; 'I' for Inactive)
REMARK    1  A    between atoms: C_3  and  N_19
REMARK    2  A    between atoms: C_4  and  C_12
REMARK    3  A    between atoms: N_11  and  O_14
REMARK    4  A    between atoms: O_14  and  C_15
REMARK    5  A    between atoms: C_15  and  C_16
REMARK    6  A    between atoms: C_16  and  O_17
REMARK    7  A    between atoms: N_19  and  C_23
REMARK                            x       y       z     vdW  Elec       q    Type
REMARK                         _______ _______ _______ _____ _____    ______ ____
ROOT
ATOM      1  O   UNL     1      36.975 -26.210 -12.577  0.00  0.00    -0.270 OA
ATOM      2  N   UNL     1      35.721 -24.456 -13.476  0.00  0.00    -0.242 N 
ATOM      3  C   UNL     1      35.561 -23.447 -14.457  0.00  0.00    +0.111 C 
ATOM      4  C   UNL     1      36.536 -23.326 -15.393  0.00  0.00    +0.083 C 
ATOM      5  C   UNL     1      37.864 -25.152 -14.475  0.00  0.00    +0.032 C 
ATOM      6  C   UNL     1      36.821 -25.328 -13.422  0.00  0.00    +0.250 C 
ATOM      7  C   UNL     1      37.691 -24.192 -15.389  0.00  0.00    +0.007 C 
ATOM      8  C   UNL     1      34.678 -24.598 -12.457  0.00  0.00    +0.122 C 
ATOM      9  C   UNL     1      39.053 -26.060 -14.450  0.00  0.00    +0.036 C 
ENDROOT
BRANCH   4  12
ATOM     10  O   UNL     1      37.140 -21.284 -16.389  0.00  0.00    -0.268 OA
ATOM     11  N   UNL     1      35.638 -22.676 -17.479  0.00  0.00    -0.190 N 
ATOM     12  C   UNL     1      36.478 -22.313 -16.465  0.00  0.00    +0.270 C 
ATOM     13  H   UNL     1      35.096 -23.498 -17.448  0.00  0.00    +0.183 HD
BRANCH  11  14
ATOM     14  O   UNL     1      35.601 -21.789 -18.572  0.00  0.00    -0.263 OA
BRANCH  14  15
ATOM     15  C   UNL     1      34.446 -22.079 -19.347  0.00  0.00    +0.203 C 
BRANCH  15  16
ATOM     16  C   UNL     1      33.943 -20.798 -19.984  0.00  0.00    +0.172 C 
BRANCH  16  17
ATOM     17  O   UNL     1      32.572 -20.618 -19.645  0.00  0.00    -0.379 OA
ATOM     18  H   UNL     1      32.507 -20.089 -18.835  0.00  0.00    +0.211 HD
ENDBRANCH  16  17
ENDBRANCH  15  16
ENDBRANCH  14  15
ENDBRANCH  11  14
ENDBRANCH   4  12
BRANCH   3  19
ATOM     19  N   UNL     1      34.451 -22.628 -14.445  0.00  0.00    -0.299 N 
ATOM     20  H   UNL     1      34.586 -21.724 -14.078  0.00  0.00    +0.153 HD
BRANCH  19  23
ATOM     21  I   UNL     1      28.656 -23.963 -16.457  0.00  0.00    -0.042 I 
ATOM     22  F   UNL     1      32.275 -22.606 -12.710  0.00  0.00    -0.203 F 
ATOM     23  C   UNL     1      33.167 -22.923 -14.888  0.00  0.00    +0.077 C 
ATOM     24  C   UNL     1      32.078 -22.908 -14.001  0.00  0.00    +0.154 C 
ATOM     25  C   UNL     1      32.932 -23.243 -16.236  0.00  0.00    +0.017 C 
ATOM     26  C   UNL     1      30.791 -23.206 -14.449  0.00  0.00    +0.037 C 
ATOM     27  C   UNL     1      31.646 -23.540 -16.684  0.00  0.00    +0.007 C 
ATOM     28  C   UNL     1      30.575 -23.521 -15.790  0.00  0.00    +0.032 C 
ENDBRANCH  19  23
ENDBRANCH   3  19
TORSDOF 7
ENDMDL
MODEL 7
REMARK VINA RESULT:      -7.5     11.371     14.295
REMARK  Name = 16666708
REMARK  7 active torsions:
REMARK  status: ('A' for Active; 'I' for Inactive)
REMARK    1  A    between atoms: C_3  and  N_19
REMARK    2  A    between atoms: C_4  and  C_12
REMARK    3  A    between atoms: N_11  and  O_14
REMARK    4  A    between atoms: O_14  and  C_15
REMARK    5  A    between atoms: C_15  and  C_16
REMARK    6  A    between atoms: C_16  and  O_17
REMARK    7  A    between atoms: N_19  and  C_23
REMARK                            x       y       z     vdW  Elec       q    Type
REMARK                         _______ _______ _______ _____ _____    ______ ____
ROOT
ATOM      1  O   UNL     1      35.498  -9.662 -25.997  0.00  0.00    -0.270 OA
ATOM      2  N   UNL     1      34.182 -11.459 -25.295  0.00  0.00    -0.242 N 
ATOM      3  C   UNL     1      33.283 -12.020 -24.355  0.00  0.00    +0.111 C 
ATOM      4  C   UNL     1      32.927 -11.252 -23.296  0.00  0.00    +0.083 C 
ATOM      5  C   UNL     1      34.294  -9.362 -24.004  0.00  0.00    +0.032 C 
ATOM      6  C   UNL     1      34.717 -10.164 -25.189  0.00  0.00    +0.250 C 
ATOM      7  C   UNL     1      33.444  -9.914 -23.131  0.00  0.00    +0.007 C 
ATOM      8  C   UNL     1      34.577 -12.276 -26.445  0.00  0.00    +0.122 C 
ATOM      9  C   UNL     1      34.844  -7.979 -23.854  0.00  0.00    +0.036 C 
ENDROOT
BRANCH   4  12
ATOM     10  O   UNL     1      31.926 -12.920 -21.977  0.00  0.00    -0.268 OA
ATOM     11  N   UNL     1      31.285 -10.709 -21.686  0.00  0.00    -0.190 N 
ATOM     12  C   UNL     1      31.997 -11.729 -22.253  0.00  0.00    +0.270 C 
ATOM     13  H   UNL     1      31.358  -9.778 -21.996  0.00  0.00    +0.183 HD
BRANCH  11  14
ATOM     14  O   UNL     1      30.439 -11.089 -20.626  0.00  0.00    -0.263 OA
BRANCH  14  15
ATOM     15  C   UNL     1      31.045 -10.690 -19.404  0.00  0.00    +0.203 C 
BRANCH  15  16
ATOM     16  C   UNL     1      31.415  -9.222 -19.491  0.00  0.00    +0.172 C 
BRANCH  16  17
ATOM     17  O   UNL     1      32.833  -9.100 -19.476  0.00  0.00    -0.379 OA
ATOM     18  H   UNL     1      33.234  -9.980 -19.555  0.00  0.00    +0.211 HD
ENDBRANCH  16  17
ENDBRANCH  15  16
ENDBRANCH  14  15
ENDBRANCH  11  14
ENDBRANCH   4  12
BRANCH   3  19
ATOM     19  N   UNL     1      32.799 -13.300 -24.528  0.00  0.00    -0.299 N 
ATOM     20  H   UNL     1      31.892 -13.372 -24.906  0.00  0.00    +0.153 HD
BRANCH  19  23
ATOM     21  I   UNL     1      35.673 -18.720 -23.196  0.00  0.00    -0.042 I 
ATOM     22  F   UNL     1      32.947 -15.358 -26.395  0.00  0.00    -0.203 F 
ATOM     23  C   UNL     1      33.435 -14.501 -24.235  0.00  0.00    +0.077 C 
ATOM     24  C   UNL     1      33.502 -15.532 -25.188  0.00  0.00    +0.154 C 
ATOM     25  C   UNL     1      34.025 -14.709 -22.978  0.00  0.00    +0.017 C 
ATOM     26  C   UNL     1      34.140 -16.736 -24.891  0.00  0.00    +0.037 C 
ATOM     27  C   UNL     1      34.663 -15.913 -22.680  0.00  0.00    +0.007 C 
ATOM     28  C   UNL     1      34.721 -16.926 -23.638  0.00  0.00    +0.032 C 
ENDBRANCH  19  23
ENDBRANCH   3  19
TORSDOF 7
ENDMDL
MODEL 8
REMARK VINA RESULT:      -7.4      3.891      7.178
REMARK  Name = 16666708
REMARK  7 active torsions:
REMARK  status: ('A' for Active; 'I' for Inactive)
REMARK    1  A    between atoms: C_3  and  N_19
REMARK    2  A    between atoms: C_4  and  C_12
REMARK    3  A    between atoms: N_11  and  O_14
REMARK    4  A    between atoms: O_14  and  C_15
REMARK    5  A    between atoms: C_15  and  C_16
REMARK    6  A    between atoms: C_16  and  O_17
REMARK    7  A    between atoms: N_19  and  C_23
REMARK                            x       y       z     vdW  Elec       q    Type
REMARK                         _______ _______ _______ _____ _____    ______ ____
ROOT
ATOM      1  O   UNL     1      35.426 -22.249 -18.363  0.00  0.00    -0.270 OA
ATOM      2  N   UNL     1      33.917 -23.303 -16.923  0.00  0.00    -0.242 N 
ATOM      3  C   UNL     1      33.590 -23.771 -15.627  0.00  0.00    +0.111 C 
ATOM      4  C   UNL     1      34.507 -23.585 -14.646  0.00  0.00    +0.083 C 
ATOM      5  C   UNL     1      36.101 -22.483 -16.126  0.00  0.00    +0.032 C 
ATOM      6  C   UNL     1      35.127 -22.663 -17.242  0.00  0.00    +0.250 C 
ATOM      7  C   UNL     1      35.768 -22.934 -14.911  0.00  0.00    +0.007 C 
ATOM      8  C   UNL     1      32.938 -23.499 -17.995  0.00  0.00    +0.122 C 
ATOM      9  C   UNL     1      37.402 -21.808 -16.425  0.00  0.00    +0.036 C 
ENDROOT
BRANCH   4  12
ATOM     10  O   UNL     1      33.177 -23.902 -12.734  0.00  0.00    -0.268 OA
ATOM     11  N   UNL     1      35.400 -24.565 -12.690  0.00  0.00    -0.190 N 
ATOM     12  C   UNL     1      34.278 -24.029 -13.256  0.00  0.00    +0.270 C 
ATOM     13  H   UNL     1      36.268 -24.587 -13.155  0.00  0.00    +0.183 HD
BRANCH  11  14
ATOM     14  O   UNL     1      35.224 -25.083 -11.393  0.00  0.00    -0.263 OA
BRANCH  14  15
ATOM     15  C   UNL     1      36.023 -24.323 -10.495  0.00  0.00    +0.203 C 
BRANCH  15  16
ATOM     16  C   UNL     1      37.211 -23.757 -11.248  0.00  0.00    +0.172 C 
BRANCH  16  17
ATOM     17  O   UNL     1      37.136 -22.336 -11.234  0.00  0.00    -0.379 OA
ATOM     18  H   UNL     1      36.216 -22.061 -11.366  0.00  0.00    +0.211 HD
ENDBRANCH  16  17
ENDBRANCH  15  16
ENDBRANCH  14  15
ENDBRANCH  11  14
ENDBRANCH   4  12
BRANCH   3  19
ATOM     19  N   UNL     1      32.381 -24.391 -15.392  0.00  0.00    -0.299 N 
ATOM     20  H   UNL     1      32.428 -25.318 -15.061  0.00  0.00    +0.153 HD
BRANCH  19  23
ATOM     21  I   UNL     1      26.614 -22.033 -16.161  0.00  0.00    -0.042 I 
ATOM     22  F   UNL     1      31.671 -21.921 -14.322  0.00  0.00    -0.203 F 
ATOM     23  C   UNL     1      31.104 -23.867 -15.561  0.00  0.00    +0.077 C 
ATOM     24  C   UNL     1      30.760 -22.618 -15.015  0.00  0.00    +0.154 C 
ATOM     25  C   UNL     1      30.130 -24.576 -16.283  0.00  0.00    +0.017 C 
ATOM     26  C   UNL     1      29.478 -22.096 -15.186  0.00  0.00    +0.037 C 
ATOM     27  C   UNL     1      28.848 -24.054 -16.454  0.00  0.00    +0.007 C 
ATOM     28  C   UNL     1      28.523 -22.813 -15.906  0.00  0.00    +0.032 C 
ENDBRANCH  19  23
ENDBRANCH   3  19
TORSDOF 7
ENDMDL
MODEL 9
REMARK VINA RESULT:      -7.3      3.168      5.598
REMARK  Name = 16666708
REMARK  7 active torsions:
REMARK  status: ('A' for Active; 'I' for Inactive)
REMARK    1  A    between atoms: C_3  and  N_19
REMARK    2  A    between atoms: C_4  and  C_12
REMARK    3  A    between atoms: N_11  and  O_14
REMARK    4  A    between atoms: O_14  and  C_15
REMARK    5  A    between atoms: C_15  and  C_16
REMARK    6  A    between atoms: C_16  and  O_17
REMARK    7  A    between atoms: N_19  and  C_23
REMARK                            x       y       z     vdW  Elec       q    Type
REMARK                         _______ _______ _______ _____ _____    ______ ____
ROOT
ATOM      1  O   UNL     1      30.370 -23.028 -15.422  0.00  0.00    -0.270 OA
ATOM      2  N   UNL     1      32.324 -23.088 -16.701  0.00  0.00    -0.242 N 
ATOM      3  C   UNL     1      33.737 -23.159 -16.769  0.00  0.00    +0.111 C 
ATOM      4  C   UNL     1      34.416 -23.229 -15.597  0.00  0.00    +0.083 C 
ATOM      5  C   UNL     1      32.393 -23.166 -14.238  0.00  0.00    +0.032 C 
ATOM      6  C   UNL     1      31.598 -23.088 -15.498  0.00  0.00    +0.250 C 
ATOM      7  C   UNL     1      33.726 -23.232 -14.329  0.00  0.00    +0.007 C 
ATOM      8  C   UNL     1      31.576 -23.010 -17.958  0.00  0.00    +0.122 C 
ATOM      9  C   UNL     1      31.656 -23.166 -12.936  0.00  0.00    +0.036 C 
ENDROOT
BRANCH   4  12
ATOM     10  O   UNL     1      36.575 -22.308 -15.719  0.00  0.00    -0.268 OA
ATOM     11  N   UNL     1      36.333 -24.573 -15.281  0.00  0.00    -0.190 N 
ATOM     12  C   UNL     1      35.889 -23.308 -15.543  0.00  0.00    +0.270 C 
ATOM     13  H   UNL     1      35.722 -25.342 -15.202  0.00  0.00    +0.183 HD
BRANCH  11  14
ATOM     14  O   UNL     1      37.728 -24.699 -15.135  0.00  0.00    -0.263 OA
BRANCH  14  15
ATOM     15  C   UNL     1      38.011 -25.998 -14.633  0.00  0.00    +0.203 C 
BRANCH  15  16
ATOM     16  C   UNL     1      36.837 -26.911 -14.933  0.00  0.00    +0.172 C 
BRANCH  16  17
ATOM     17  O   UNL     1      36.879 -27.286 -16.305  0.00  0.00    -0.379 OA
ATOM     18  H   UNL     1      37.357 -28.125 -16.395  0.00  0.00    +0.211 HD
ENDBRANCH  16  17
ENDBRANCH  15  16
ENDBRANCH  14  15
ENDBRANCH  11  14
ENDBRANCH   4  12
BRANCH   3  19
ATOM     19  N   UNL     1      34.380 -23.155 -17.989  0.00  0.00    -0.299 N 
ATOM     20  H   UNL     1      34.765 -24.015 -18.278  0.00  0.00    +0.153 HD
BRANCH  19  23
ATOM     21  I   UNL     1      35.136 -18.326 -21.929  0.00  0.00    -0.042 I 
ATOM     22  F   UNL     1      36.904 -22.122 -18.548  0.00  0.00    -0.203 F 
ATOM     23  C   UNL     1      34.550 -22.086 -18.862  0.00  0.00    +0.077 C 
ATOM     24  C   UNL     1      35.831 -21.575 -19.134  0.00  0.00    +0.154 C 
ATOM     25  C   UNL     1      33.442 -21.493 -19.490  0.00  0.00    +0.017 C 
ATOM     26  C   UNL     1      35.997 -20.501 -20.009  0.00  0.00    +0.037 C 
ATOM     27  C   UNL     1      33.609 -20.420 -20.365  0.00  0.00    +0.007 C 
ATOM     28  C   UNL     1      34.887 -19.925 -20.625  0.00  0.00    +0.032 C 
ENDBRANCH  19  23
ENDBRANCH   3  19
TORSDOF 7
ENDMDL
