MODEL 1
REMARK VINA RESULT:      -6.9      0.000      0.000
REMARK  Name = 84265
REMARK  6 active torsions:
REMARK  status: ('A' for Active; 'I' for Inactive)
REMARK    1  A    between atoms: C_2  and  O_12
REMARK    2  A    between atoms: C_3  and  N_8
REMARK    3  A    between atoms: C_4  and  O_14
REMARK    4  A    between atoms: C_5  and  C_18
REMARK    5  A    between atoms: C_6  and  O_16
REMARK    6  A    between atoms: C_18  and  O_19
REMARK                            x       y       z     vdW  Elec       q    Type
REMARK                         _______ _______ _______ _____ _____    ______ ____
ROOT
ATOM      1  O   UNL     1      38.162 -26.784 -14.386  0.00  0.00    -0.327 OA
ATOM      2  C   UNL     1      37.008 -24.171 -14.734  0.00  0.00    +0.162 C 
ATOM      3  C   UNL     1      36.208 -25.343 -14.152  0.00  0.00    +0.158 C 
ATOM      4  C   UNL     1      38.506 -24.369 -14.480  0.00  0.00    +0.169 C 
ATOM      5  C   UNL     1      38.951 -25.747 -14.989  0.00  0.00    +0.176 C 
ATOM      6  C   UNL     1      36.763 -26.679 -14.666  0.00  0.00    +0.253 C 
ENDROOT
BRANCH   3   8
ATOM      7  O   UNL     1      34.182 -24.021 -12.546  0.00  0.00    -0.275 OA
ATOM      8  N   UNL     1      34.799 -25.217 -14.447  0.00  0.00    -0.299 N 
ATOM      9  C   UNL     1      33.906 -24.563 -13.613  0.00  0.00    +0.223 C 
ATOM     10  C   UNL     1      32.507 -24.555 -14.169  0.00  0.00    +0.095 C 
ATOM     11  H   UNL     1      34.457 -25.614 -15.280  0.00  0.00    +0.150 HD
ENDBRANCH   3   8
BRANCH   2  12
ATOM     12  O   UNL     1      36.576 -22.953 -14.134  0.00  0.00    -0.380 OA
ATOM     13  H   UNL     1      37.059 -22.209 -14.526  0.00  0.00    +0.211 HD
ENDBRANCH   2  12
BRANCH   4  14
ATOM     14  O   UNL     1      38.748 -24.265 -13.075  0.00  0.00    -0.379 OA
ATOM     15  H   UNL     1      38.911 -23.337 -12.843  0.00  0.00    +0.211 HD
ENDBRANCH   4  14
BRANCH   6  16
ATOM     16  O   UNL     1      36.493 -26.825 -16.060  0.00  0.00    -0.359 OA
ATOM     17  H   UNL     1      36.975 -26.144 -16.556  0.00  0.00    +0.213 HD
ENDBRANCH   6  16
BRANCH   5  18
ATOM     18  C   UNL     1      40.412 -26.052 -14.676  0.00  0.00    +0.169 C 
BRANCH  18  19
ATOM     19  O   UNL     1      41.122 -24.829 -14.601  0.00  0.00    -0.379 OA
ATOM     20  H   UNL     1      40.580 -24.167 -14.146  0.00  0.00    +0.211 HD
ENDBRANCH  18  19
ENDBRANCH   5  18
TORSDOF 6
ENDMDL
MODEL 2
REMARK VINA RESULT:      -6.8      1.691      2.565
REMARK  Name = 84265
REMARK  6 active torsions:
REMARK  status: ('A' for Active; 'I' for Inactive)
REMARK    1  A    between atoms: C_2  and  O_12
REMARK    2  A    between atoms: C_3  and  N_8
REMARK    3  A    between atoms: C_4  and  O_14
REMARK    4  A    between atoms: C_5  and  C_18
REMARK    5  A    between atoms: C_6  and  O_16
REMARK    6  A    between atoms: C_18  and  O_19
REMARK                            x       y       z     vdW  Elec       q    Type
REMARK                         _______ _______ _______ _____ _____    ______ ____
ROOT
ATOM      1  O   UNL     1      37.182 -24.895 -15.090  0.00  0.00    -0.327 OA
ATOM      2  C   UNL     1      35.765 -24.451 -12.626  0.00  0.00    +0.162 C 
ATOM      3  C   UNL     1      35.046 -24.502 -13.980  0.00  0.00    +0.158 C 
ATOM      4  C   UNL     1      37.064 -25.263 -12.680  0.00  0.00    +0.169 C 
ATOM      5  C   UNL     1      37.924 -24.804 -13.865  0.00  0.00    +0.176 C 
ATOM      6  C   UNL     1      36.001 -24.088 -15.109  0.00  0.00    +0.253 C 
ENDROOT
BRANCH   3   8
ATOM      7  O   UNL     1      32.284 -25.397 -13.987  0.00  0.00    -0.275 OA
ATOM      8  N   UNL     1      33.857 -23.680 -13.976  0.00  0.00    -0.299 N 
ATOM      9  C   UNL     1      32.575 -24.203 -13.980  0.00  0.00    +0.223 C 
ATOM     10  C   UNL     1      31.520 -23.129 -13.948  0.00  0.00    +0.095 C 
ATOM     11  H   UNL     1      33.965 -22.702 -13.969  0.00  0.00    +0.150 HD
ENDBRANCH   3   8
BRANCH   2  12
ATOM     12  O   UNL     1      34.912 -24.978 -11.612  0.00  0.00    -0.380 OA
ATOM     13  H   UNL     1      34.911 -25.947 -11.661  0.00  0.00    +0.211 HD
ENDBRANCH   2  12
BRANCH   4  14
ATOM     14  O   UNL     1      36.732 -26.646 -12.823  0.00  0.00    -0.379 OA
ATOM     15  H   UNL     1      37.065 -26.972 -13.674  0.00  0.00    +0.211 HD
ENDBRANCH   4  14
BRANCH   6  16
ATOM     16  O   UNL     1      36.311 -22.699 -15.012  0.00  0.00    -0.359 OA
ATOM     17  H   UNL     1      37.042 -22.573 -14.386  0.00  0.00    +0.213 HD
ENDBRANCH   6  16
BRANCH   5  18
ATOM     18  C   UNL     1      39.188 -25.640 -14.039  0.00  0.00    +0.169 C 
BRANCH  18  19
ATOM     19  O   UNL     1      38.843 -26.847 -14.696  0.00  0.00    -0.379 OA
ATOM     20  H   UNL     1      38.371 -26.644 -15.518  0.00  0.00    +0.211 HD
ENDBRANCH  18  19
ENDBRANCH   5  18
TORSDOF 6
ENDMDL
MODEL 3
REMARK VINA RESULT:      -6.7      1.584      2.782
REMARK  Name = 84265
REMARK  6 active torsions:
REMARK  status: ('A' for Active; 'I' for Inactive)
REMARK    1  A    between atoms: C_2  and  O_12
REMARK    2  A    between atoms: C_3  and  N_8
REMARK    3  A    between atoms: C_4  and  O_14
REMARK    4  A    between atoms: C_5  and  C_18
REMARK    5  A    between atoms: C_6  and  O_16
REMARK    6  A    between atoms: C_18  and  O_19
REMARK                            x       y       z     vdW  Elec       q    Type
REMARK                         _______ _______ _______ _____ _____    ______ ____
ROOT
ATOM      1  O   UNL     1      38.522 -23.878 -14.292  0.00  0.00    -0.327 OA
ATOM      2  C   UNL     1      36.457 -25.881 -14.326  0.00  0.00    +0.162 C 
ATOM      3  C   UNL     1      36.251 -24.490 -14.938  0.00  0.00    +0.158 C 
ATOM      4  C   UNL     1      37.945 -26.250 -14.325  0.00  0.00    +0.169 C 
ATOM      5  C   UNL     1      38.763 -25.140 -13.652  0.00  0.00    +0.176 C 
ATOM      6  C   UNL     1      37.154 -23.461 -14.245  0.00  0.00    +0.253 C 
ENDROOT
BRANCH   3   8
ATOM      7  O   UNL     1      34.661 -23.320 -17.067  0.00  0.00    -0.275 OA
ATOM      8  N   UNL     1      34.864 -24.090 -14.879  0.00  0.00    -0.299 N 
ATOM      9  C   UNL     1      34.188 -23.537 -15.955  0.00  0.00    +0.223 C 
ATOM     10  C   UNL     1      32.749 -23.235 -15.631  0.00  0.00    +0.095 C 
ATOM     11  H   UNL     1      34.376 -24.215 -14.034  0.00  0.00    +0.150 HD
ENDBRANCH   3   8
BRANCH   2  12
ATOM     12  O   UNL     1      35.724 -26.847 -15.076  0.00  0.00    -0.380 OA
ATOM     13  H   UNL     1      34.838 -26.501 -15.269  0.00  0.00    +0.211 HD
ENDBRANCH   2  12
BRANCH   4  14
ATOM     14  O   UNL     1      38.373 -26.420 -15.678  0.00  0.00    -0.379 OA
ATOM     15  H   UNL     1      38.671 -27.334 -15.810  0.00  0.00    +0.211 HD
ENDBRANCH   4  14
BRANCH   6  16
ATOM     16  O   UNL     1      36.717 -23.241 -12.904  0.00  0.00    -0.359 OA
ATOM     17  H   UNL     1      37.275 -23.750 -12.294  0.00  0.00    +0.213 HD
ENDBRANCH   6  16
BRANCH   5  18
ATOM     18  C   UNL     1      40.266 -25.394 -13.707  0.00  0.00    +0.169 C 
BRANCH  18  19
ATOM     19  O   UNL     1      40.769 -24.861 -14.918  0.00  0.00    -0.379 OA
ATOM     20  H   UNL     1      40.686 -25.524 -15.622  0.00  0.00    +0.211 HD
ENDBRANCH  18  19
ENDBRANCH   5  18
TORSDOF 6
ENDMDL
MODEL 4
REMARK VINA RESULT:      -6.6      1.734      5.011
REMARK  Name = 84265
REMARK  6 active torsions:
REMARK  status: ('A' for Active; 'I' for Inactive)
REMARK    1  A    between atoms: C_2  and  O_12
REMARK    2  A    between atoms: C_3  and  N_8
REMARK    3  A    between atoms: C_4  and  O_14
REMARK    4  A    between atoms: C_5  and  C_18
REMARK    5  A    between atoms: C_6  and  O_16
REMARK    6  A    between atoms: C_18  and  O_19
REMARK                            x       y       z     vdW  Elec       q    Type
REMARK                         _______ _______ _______ _____ _____    ______ ____
ROOT
ATOM      1  O   UNL     1      35.380 -24.576 -14.937  0.00  0.00    -0.327 OA
ATOM      2  C   UNL     1      36.666 -25.177 -12.434  0.00  0.00    +0.162 C 
ATOM      3  C   UNL     1      37.449 -25.085 -13.750  0.00  0.00    +0.158 C 
ATOM      4  C   UNL     1      35.394 -24.324 -12.509  0.00  0.00    +0.169 C 
ATOM      5  C   UNL     1      34.578 -24.701 -13.752  0.00  0.00    +0.176 C 
ATOM      6  C   UNL     1      36.537 -25.416 -14.940  0.00  0.00    +0.253 C 
ENDROOT
BRANCH   3   8
ATOM      7  O   UNL     1      40.044 -24.563 -14.943  0.00  0.00    -0.275 OA
ATOM      8  N   UNL     1      38.612 -25.942 -13.730  0.00  0.00    -0.299 N 
ATOM      9  C   UNL     1      39.813 -25.603 -14.332  0.00  0.00    +0.223 C 
ATOM     10  C   UNL     1      40.866 -26.662 -14.140  0.00  0.00    +0.095 C 
ATOM     11  H   UNL     1      38.548 -26.808 -13.267  0.00  0.00    +0.150 HD
ENDBRANCH   3   8
BRANCH   2  12
ATOM     12  O   UNL     1      37.485 -24.725 -11.358  0.00  0.00    -0.380 OA
ATOM     13  H   UNL     1      38.335 -25.191 -11.381  0.00  0.00    +0.211 HD
ENDBRANCH   2  12
BRANCH   4  14
ATOM     14  O   UNL     1      35.772 -22.947 -12.570  0.00  0.00    -0.379 OA
ATOM     15  H   UNL     1      35.031 -22.424 -12.916  0.00  0.00    +0.211 HD
ENDBRANCH   4  14
BRANCH   6  16
ATOM     16  O   UNL     1      36.184 -26.799 -14.924  0.00  0.00    -0.359 OA
ATOM     17  H   UNL     1      36.563 -27.220 -14.136  0.00  0.00    +0.213 HD
ENDBRANCH   6  16
BRANCH   5  18
ATOM     18  C   UNL     1      33.349 -23.819 -13.944  0.00  0.00    +0.169 C 
BRANCH  18  19
ATOM     19  O   UNL     1      32.973 -23.289 -12.686  0.00  0.00    -0.379 OA
ATOM     20  H   UNL     1      33.373 -22.413 -12.572  0.00  0.00    +0.211 HD
ENDBRANCH  18  19
ENDBRANCH   5  18
TORSDOF 6
ENDMDL
MODEL 5
REMARK VINA RESULT:      -6.5     11.211     12.760
REMARK  Name = 84265
REMARK  6 active torsions:
REMARK  status: ('A' for Active; 'I' for Inactive)
REMARK    1  A    between atoms: C_2  and  O_12
REMARK    2  A    between atoms: C_3  and  N_8
REMARK    3  A    between atoms: C_4  and  O_14
REMARK    4  A    between atoms: C_5  and  C_18
REMARK    5  A    between atoms: C_6  and  O_16
REMARK    6  A    between atoms: C_18  and  O_19
REMARK                            x       y       z     vdW  Elec       q    Type
REMARK                         _______ _______ _______ _____ _____    ______ ____
ROOT
ATOM      1  O   UNL     1      33.259 -14.965 -21.638  0.00  0.00    -0.327 OA
ATOM      2  C   UNL     1      35.294 -16.498 -22.977  0.00  0.00    +0.162 C 
ATOM      3  C   UNL     1      34.361 -17.121 -21.931  0.00  0.00    +0.158 C 
ATOM      4  C   UNL     1      34.623 -15.288 -23.637  0.00  0.00    +0.169 C 
ATOM      5  C   UNL     1      34.134 -14.305 -22.566  0.00  0.00    +0.176 C 
ATOM      6  C   UNL     1      33.874 -16.053 -20.942  0.00  0.00    +0.253 C 
ENDROOT
BRANCH   3   8
ATOM      7  O   UNL     1      33.252 -19.747 -21.375  0.00  0.00    -0.275 OA
ATOM      8  N   UNL     1      35.003 -18.217 -21.241  0.00  0.00    -0.299 N 
ATOM      9  C   UNL     1      34.388 -19.439 -21.022  0.00  0.00    +0.223 C 
ATOM     10  C   UNL     1      35.286 -20.410 -20.303  0.00  0.00    +0.095 C 
ATOM     11  H   UNL     1      35.921 -18.089 -20.910  0.00  0.00    +0.150 HD
ENDBRANCH   3   8
BRANCH   2  12
ATOM     12  O   UNL     1      35.617 -17.469 -23.969  0.00  0.00    -0.380 OA
ATOM     13  H   UNL     1      36.499 -17.284 -24.328  0.00  0.00    +0.211 HD
ENDBRANCH   2  12
BRANCH   4  14
ATOM     14  O   UNL     1      33.518 -15.750 -24.418  0.00  0.00    -0.379 OA
ATOM     15  H   UNL     1      33.238 -16.622 -24.097  0.00  0.00    +0.211 HD
ENDBRANCH   4  14
BRANCH   6  16
ATOM     16  O   UNL     1      34.953 -15.610 -20.120  0.00  0.00    -0.359 OA
ATOM     17  H   UNL     1      35.284 -16.353 -19.591  0.00  0.00    +0.213 HD
ENDBRANCH   6  16
BRANCH   5  18
ATOM     18  C   UNL     1      33.365 -13.125 -23.150  0.00  0.00    +0.169 C 
BRANCH  18  19
ATOM     19  O   UNL     1      31.978 -13.374 -23.005  0.00  0.00    -0.379 OA
ATOM     20  H   UNL     1      31.599 -13.602 -23.867  0.00  0.00    +0.211 HD
ENDBRANCH  18  19
ENDBRANCH   5  18
TORSDOF 6
ENDMDL
MODEL 6
REMARK VINA RESULT:      -6.4      1.831      2.695
REMARK  Name = 84265
REMARK  6 active torsions:
REMARK  status: ('A' for Active; 'I' for Inactive)
REMARK    1  A    between atoms: C_2  and  O_12
REMARK    2  A    between atoms: C_3  and  N_8
REMARK    3  A    between atoms: C_4  and  O_14
REMARK    4  A    between atoms: C_5  and  C_18
REMARK    5  A    between atoms: C_6  and  O_16
REMARK    6  A    between atoms: C_18  and  O_19
REMARK                            x       y       z     vdW  Elec       q    Type
REMARK                         _______ _______ _______ _____ _____    ______ ____
ROOT
ATOM      1  O   UNL     1      36.264 -25.241 -15.411  0.00  0.00    -0.327 OA
ATOM      2  C   UNL     1      35.243 -23.631 -13.256  0.00  0.00    +0.162 C 
ATOM      3  C   UNL     1      34.319 -24.287 -14.290  0.00  0.00    +0.158 C 
ATOM      4  C   UNL     1      36.550 -24.422 -13.129  0.00  0.00    +0.169 C 
ATOM      5  C   UNL     1      37.188 -24.611 -14.512  0.00  0.00    +0.176 C 
ATOM      6  C   UNL     1      35.061 -24.493 -15.617  0.00  0.00    +0.253 C 
ENDROOT
BRANCH   3   8
ATOM      7  O   UNL     1      31.590 -25.112 -13.736  0.00  0.00    -0.275 OA
ATOM      8  N   UNL     1      33.112 -23.515 -14.482  0.00  0.00    -0.299 N 
ATOM      9  C   UNL     1      31.849 -23.998 -14.186  0.00  0.00    +0.223 C 
ATOM     10  C   UNL     1      30.771 -22.982 -14.456  0.00  0.00    +0.095 C 
ATOM     11  H   UNL     1      33.193 -22.602 -14.840  0.00  0.00    +0.150 HD
ENDBRANCH   3   8
BRANCH   2  12
ATOM     12  O   UNL     1      34.587 -23.582 -11.991  0.00  0.00    -0.380 OA
ATOM     13  H   UNL     1      34.422 -22.658 -11.748  0.00  0.00    +0.211 HD
ENDBRANCH   2  12
BRANCH   4  14
ATOM     14  O   UNL     1      36.258 -25.694 -12.547  0.00  0.00    -0.379 OA
ATOM     15  H   UNL     1      37.027 -26.278 -12.644  0.00  0.00    +0.211 HD
ENDBRANCH   4  14
BRANCH   6  16
ATOM     16  O   UNL     1      35.324 -23.236 -16.239  0.00  0.00    -0.359 OA
ATOM     17  H   UNL     1      34.867 -23.197 -17.095  0.00  0.00    +0.213 HD
ENDBRANCH   6  16
BRANCH   5  18
ATOM     18  C   UNL     1      38.442 -25.479 -14.472  0.00  0.00    +0.169 C 
BRANCH  18  19
ATOM     19  O   UNL     1      38.336 -26.470 -15.479  0.00  0.00    -0.379 OA
ATOM     20  H   UNL     1      38.568 -26.084 -16.337  0.00  0.00    +0.211 HD
ENDBRANCH  18  19
ENDBRANCH   5  18
TORSDOF 6
ENDMDL
MODEL 7
REMARK VINA RESULT:      -6.4      2.074      3.181
REMARK  Name = 84265
REMARK  6 active torsions:
REMARK  status: ('A' for Active; 'I' for Inactive)
REMARK    1  A    between atoms: C_2  and  O_12
REMARK    2  A    between atoms: C_3  and  N_8
REMARK    3  A    between atoms: C_4  and  O_14
REMARK    4  A    between atoms: C_5  and  C_18
REMARK    5  A    between atoms: C_6  and  O_16
REMARK    6  A    between atoms: C_18  and  O_19
REMARK                            x       y       z     vdW  Elec       q    Type
REMARK                         _______ _______ _______ _____ _____    ______ ____
ROOT
ATOM      1  O   UNL     1      36.268 -23.339 -11.992  0.00  0.00    -0.327 OA
ATOM      2  C   UNL     1      35.944 -25.126 -14.223  0.00  0.00    +0.162 C 
ATOM      3  C   UNL     1      34.799 -24.238 -13.718  0.00  0.00    +0.158 C 
ATOM      4  C   UNL     1      37.299 -24.499 -13.876  0.00  0.00    +0.169 C 
ATOM      5  C   UNL     1      37.365 -24.181 -12.376  0.00  0.00    +0.176 C 
ATOM      6  C   UNL     1      34.984 -23.922 -12.228  0.00  0.00    +0.253 C 
ENDROOT
BRANCH   3   8
ATOM      7  O   UNL     1      32.265 -22.890 -14.157  0.00  0.00    -0.275 OA
ATOM      8  N   UNL     1      33.512 -24.847 -13.967  0.00  0.00    -0.299 N 
ATOM      9  C   UNL     1      32.353 -24.115 -14.165  0.00  0.00    +0.223 C 
ATOM     10  C   UNL     1      31.160 -24.995 -14.428  0.00  0.00    +0.095 C 
ATOM     11  H   UNL     1      33.457 -25.829 -13.997  0.00  0.00    +0.150 HD
ENDBRANCH   3   8
BRANCH   2  12
ATOM     12  O   UNL     1      35.837 -25.286 -15.635  0.00  0.00    -0.380 OA
ATOM     13  H   UNL     1      34.914 -25.468 -15.871  0.00  0.00    +0.211 HD
ENDBRANCH   2  12
BRANCH   4  14
ATOM     14  O   UNL     1      37.455 -23.299 -14.637  0.00  0.00    -0.379 OA
ATOM     15  H   UNL     1      37.805 -22.597 -14.066  0.00  0.00    +0.211 HD
ENDBRANCH   4  14
BRANCH   6  16
ATOM     16  O   UNL     1      34.788 -25.098 -11.444  0.00  0.00    -0.359 OA
ATOM     17  H   UNL     1      35.159 -25.864 -11.911  0.00  0.00    +0.213 HD
ENDBRANCH   6  16
BRANCH   5  18
ATOM     18  C   UNL     1      38.649 -23.461 -11.978  0.00  0.00    +0.169 C 
BRANCH  18  19
ATOM     19  O   UNL     1      38.381 -22.073 -11.899  0.00  0.00    -0.379 OA
ATOM     20  H   UNL     1      37.600 -21.926 -11.343  0.00  0.00    +0.211 HD
ENDBRANCH  18  19
ENDBRANCH   5  18
TORSDOF 6
ENDMDL
MODEL 8
REMARK VINA RESULT:      -6.2      1.834      5.209
REMARK  Name = 84265
REMARK  6 active torsions:
REMARK  status: ('A' for Active; 'I' for Inactive)
REMARK    1  A    between atoms: C_2  and  O_12
REMARK    2  A    between atoms: C_3  and  N_8
REMARK    3  A    between atoms: C_4  and  O_14
REMARK    4  A    between atoms: C_5  and  C_18
REMARK    5  A    between atoms: C_6  and  O_16
REMARK    6  A    between atoms: C_18  and  O_19
REMARK                            x       y       z     vdW  Elec       q    Type
REMARK                         _______ _______ _______ _____ _____    ______ ____
ROOT
ATOM      1  O   UNL     1      35.269 -22.690 -15.051  0.00  0.00    -0.327 OA
ATOM      2  C   UNL     1      36.027 -25.460 -15.220  0.00  0.00    +0.162 C 
ATOM      3  C   UNL     1      36.988 -24.384 -14.700  0.00  0.00    +0.158 C 
ATOM      4  C   UNL     1      34.573 -25.029 -15.002  0.00  0.00    +0.169 C 
ATOM      5  C   UNL     1      34.340 -23.636 -15.600  0.00  0.00    +0.176 C 
ATOM      6  C   UNL     1      36.639 -23.016 -15.303  0.00  0.00    +0.253 C 
ENDROOT
BRANCH   3   8
ATOM      7  O   UNL     1      38.756 -25.974 -13.033  0.00  0.00    -0.275 OA
ATOM      8  N   UNL     1      38.365 -24.735 -14.965  0.00  0.00    -0.299 N 
ATOM      9  C   UNL     1      39.131 -25.503 -14.104  0.00  0.00    +0.223 C 
ATOM     10  C   UNL     1      40.520 -25.740 -14.633  0.00  0.00    +0.095 C 
ATOM     11  H   UNL     1      38.778 -24.412 -15.798  0.00  0.00    +0.150 HD
ENDBRANCH   3   8
BRANCH   2  12
ATOM     12  O   UNL     1      36.272 -26.688 -14.539  0.00  0.00    -0.380 OA
ATOM     13  H   UNL     1      37.226 -26.866 -14.525  0.00  0.00    +0.211 HD
ENDBRANCH   2  12
BRANCH   4  14
ATOM     14  O   UNL     1      34.311 -25.007 -13.597  0.00  0.00    -0.379 OA
ATOM     15  H   UNL     1      33.357 -25.099 -13.444  0.00  0.00    +0.211 HD
ENDBRANCH   4  14
BRANCH   6  16
ATOM     16  O   UNL     1      36.936 -23.000 -16.699  0.00  0.00    -0.359 OA
ATOM     17  H   UNL     1      37.698 -22.422 -16.861  0.00  0.00    +0.213 HD
ENDBRANCH   6  16
BRANCH   5  18
ATOM     18  C   UNL     1      32.938 -23.100 -15.328  0.00  0.00    +0.169 C 
BRANCH  18  19
ATOM     19  O   UNL     1      32.842 -22.764 -13.956  0.00  0.00    -0.379 OA
ATOM     20  H   UNL     1      32.910 -21.803 -13.853  0.00  0.00    +0.211 HD
ENDBRANCH  18  19
ENDBRANCH   5  18
TORSDOF 6
ENDMDL
MODEL 9
REMARK VINA RESULT:      -6.1     12.656     13.684
REMARK  Name = 84265
REMARK  6 active torsions:
REMARK  status: ('A' for Active; 'I' for Inactive)
REMARK    1  A    between atoms: C_2  and  O_12
REMARK    2  A    between atoms: C_3  and  N_8
REMARK    3  A    between atoms: C_4  and  O_14
REMARK    4  A    between atoms: C_5  and  C_18
REMARK    5  A    between atoms: C_6  and  O_16
REMARK    6  A    between atoms: C_18  and  O_19
REMARK                            x       y       z     vdW  Elec       q    Type
REMARK                         _______ _______ _______ _____ _____    ______ ____
ROOT
ATOM      1  O   UNL     1      34.349 -17.974 -23.912  0.00  0.00    -0.327 OA
ATOM      2  C   UNL     1      34.760 -15.251 -23.081  0.00  0.00    +0.162 C 
ATOM      3  C   UNL     1      33.764 -15.623 -24.186  0.00  0.00    +0.158 C 
ATOM      4  C   UNL     1      34.961 -16.430 -22.123  0.00  0.00    +0.169 C 
ATOM      5  C   UNL     1      35.338 -17.692 -22.910  0.00  0.00    +0.176 C 
ATOM      6  C   UNL     1      34.188 -16.927 -24.873  0.00  0.00    +0.253 C 
ENDROOT
BRANCH   3   8
ATOM      7  O   UNL     1      32.525 -15.759 -26.808  0.00  0.00    -0.275 OA
ATOM      8  N   UNL     1      33.618 -14.551 -25.145  0.00  0.00    -0.299 N 
ATOM      9  C   UNL     1      33.008 -14.716 -26.377  0.00  0.00    +0.223 C 
ATOM     10  C   UNL     1      32.967 -13.436 -27.169  0.00  0.00    +0.095 C 
ATOM     11  H   UNL     1      33.969 -13.662 -24.910  0.00  0.00    +0.150 HD
ENDBRANCH   3   8
BRANCH   2  12
ATOM     12  O   UNL     1      34.274 -14.122 -22.358  0.00  0.00    -0.380 OA
ATOM     13  H   UNL     1      33.356 -13.944 -22.617  0.00  0.00    +0.211 HD
ENDBRANCH   2  12
BRANCH   4  14
ATOM     14  O   UNL     1      33.743 -16.647 -21.406  0.00  0.00    -0.379 OA
ATOM     15  H   UNL     1      33.191 -15.851 -21.459  0.00  0.00    +0.211 HD
ENDBRANCH   4  14
BRANCH   6  16
ATOM     16  O   UNL     1      35.380 -16.723 -25.633  0.00  0.00    -0.359 OA
ATOM     17  H   UNL     1      35.171 -16.764 -26.580  0.00  0.00    +0.213 HD
ENDBRANCH   6  16
BRANCH   5  18
ATOM     18  C   UNL     1      35.453 -18.930 -22.028  0.00  0.00    +0.169 C 
BRANCH  18  19
ATOM     19  O   UNL     1      35.909 -18.532 -20.748  0.00  0.00    -0.379 OA
ATOM     20  H   UNL     1      35.254 -18.783 -20.079  0.00  0.00    +0.211 HD
ENDBRANCH  18  19
ENDBRANCH   5  18
TORSDOF 6
ENDMDL
