MODEL 1
REMARK VINA RESULT:      -4.5      0.000      0.000
REMARK  Name = 2734054
REMARK  2 active torsions:
REMARK  status: ('A' for Active; 'I' for Inactive)
REMARK    1  A    between atoms: C_2  and  C_8
REMARK    2  A    between atoms: C_8  and  N_9
REMARK                            x       y       z     vdW  Elec       q    Type
REMARK                         _______ _______ _______ _____ _____    ______ ____
ROOT
ATOM      1  N   UNL     1      35.360 -20.071 -20.253  0.00  0.00    +0.384 N 
ATOM      2  C   UNL     1      34.312 -19.720 -21.213  0.00  0.00    -0.084 C 
ATOM      3  C   UNL     1      33.042 -20.070 -20.451  0.00  0.00    -0.026 C 
ATOM      4  C   UNL     1      33.430 -21.284 -19.616  0.00  0.00    -0.026 C 
ATOM      5  C   UNL     1      34.949 -21.354 -19.687  0.00  0.00    -0.082 C 
ATOM      6  H   UNL     1      35.427 -19.364 -19.522  0.00  0.00    -0.085 HD
ATOM      7  H   UNL     1      36.278 -20.126 -20.694  0.00  0.00    -0.085 HD
ENDROOT
BRANCH   2   8
ATOM      8  C   UNL     1      34.386 -18.258 -21.615  0.00  0.00    -0.108 C 
BRANCH   8   9
ATOM      9  N   UNL     1      35.331 -17.530 -20.776  0.00  0.00    +0.379 N 
ATOM     10  H   UNL     1      35.633 -18.127 -20.008  0.00  0.00    -0.089 HD
ATOM     11  H   UNL     1      34.879 -16.695 -20.401  0.00  0.00    -0.089 HD
ATOM     12  H   UNL     1      36.139 -17.257 -21.334  0.00  0.00    -0.089 HD
ENDBRANCH   8   9
ENDBRANCH   2   8
TORSDOF 2
ENDMDL
MODEL 2
REMARK VINA RESULT:      -4.4      2.289      3.964
REMARK  Name = 2734054
REMARK  2 active torsions:
REMARK  status: ('A' for Active; 'I' for Inactive)
REMARK    1  A    between atoms: C_2  and  C_8
REMARK    2  A    between atoms: C_8  and  N_9
REMARK                            x       y       z     vdW  Elec       q    Type
REMARK                         _______ _______ _______ _____ _____    ______ ____
ROOT
ATOM      1  N   UNL     1      32.620 -20.826 -19.577  0.00  0.00    +0.384 N 
ATOM      2  C   UNL     1      33.618 -21.898 -19.554  0.00  0.00    -0.084 C 
ATOM      3  C   UNL     1      34.919 -21.137 -19.766  0.00  0.00    -0.026 C 
ATOM      4  C   UNL     1      34.534 -19.990 -20.693  0.00  0.00    -0.026 C 
ATOM      5  C   UNL     1      33.012 -19.961 -20.688  0.00  0.00    -0.082 C 
ATOM      6  H   UNL     1      32.633 -20.307 -18.699  0.00  0.00    -0.085 HD
ATOM      7  H   UNL     1      31.674 -21.188 -19.691  0.00  0.00    -0.085 HD
ENDROOT
BRANCH   2   8
ATOM      8  C   UNL     1      33.582 -22.670 -18.248  0.00  0.00    -0.108 C 
BRANCH   8   9
ATOM      9  N   UNL     1      32.225 -22.742 -17.717  0.00  0.00    +0.379 N 
ATOM     10  H   UNL     1      32.222 -23.307 -16.868  0.00  0.00    -0.089 HD
ATOM     11  H   UNL     1      31.611 -23.167 -18.411  0.00  0.00    -0.089 HD
ATOM     12  H   UNL     1      31.896 -21.801 -17.501  0.00  0.00    -0.089 HD
ENDBRANCH   8   9
ENDBRANCH   2   8
TORSDOF 2
ENDMDL
MODEL 3
REMARK VINA RESULT:      -4.3      2.870      4.387
REMARK  Name = 2734054
REMARK  2 active torsions:
REMARK  status: ('A' for Active; 'I' for Inactive)
REMARK    1  A    between atoms: C_2  and  C_8
REMARK    2  A    between atoms: C_8  and  N_9
REMARK                            x       y       z     vdW  Elec       q    Type
REMARK                         _______ _______ _______ _____ _____    ______ ____
ROOT
ATOM      1  N   UNL     1      35.594 -16.853 -23.497  0.00  0.00    +0.384 N 
ATOM      2  C   UNL     1      35.113 -18.016 -22.749  0.00  0.00    -0.084 C 
ATOM      3  C   UNL     1      34.897 -19.045 -23.849  0.00  0.00    -0.026 C 
ATOM      4  C   UNL     1      34.439 -18.221 -25.046  0.00  0.00    -0.026 C 
ATOM      5  C   UNL     1      34.735 -16.774 -24.677  0.00  0.00    -0.082 C 
ATOM      6  H   UNL     1      36.567 -16.982 -23.772  0.00  0.00    -0.085 HD
ATOM      7  H   UNL     1      35.556 -15.999 -22.941  0.00  0.00    -0.085 HD
ENDROOT
BRANCH   2   8
ATOM      8  C   UNL     1      36.116 -18.462 -21.700  0.00  0.00    -0.108 C 
BRANCH   8   9
ATOM      9  N   UNL     1      35.469 -19.239 -20.650  0.00  0.00    +0.379 N 
ATOM     10  H   UNL     1      35.821 -18.941 -19.741  0.00  0.00    -0.089 HD
ATOM     11  H   UNL     1      35.672 -20.229 -20.785  0.00  0.00    -0.089 HD
ATOM     12  H   UNL     1      34.461 -19.090 -20.690  0.00  0.00    -0.089 HD
ENDBRANCH   8   9
ENDBRANCH   2   8
TORSDOF 2
ENDMDL
MODEL 4
REMARK VINA RESULT:      -4.2      1.676      2.903
REMARK  Name = 2734054
REMARK  2 active torsions:
REMARK  status: ('A' for Active; 'I' for Inactive)
REMARK    1  A    between atoms: C_2  and  C_8
REMARK    2  A    between atoms: C_8  and  N_9
REMARK                            x       y       z     vdW  Elec       q    Type
REMARK                         _______ _______ _______ _____ _____    ______ ____
ROOT
ATOM      1  N   UNL     1      34.706 -18.495 -21.077  0.00  0.00    +0.384 N 
ATOM      2  C   UNL     1      34.214 -19.874 -21.116  0.00  0.00    -0.084 C 
ATOM      3  C   UNL     1      35.214 -20.603 -20.231  0.00  0.00    -0.026 C 
ATOM      4  C   UNL     1      36.532 -19.880 -20.483  0.00  0.00    -0.026 C 
ATOM      5  C   UNL     1      36.156 -18.602 -21.219  0.00  0.00    -0.082 C 
ATOM      6  H   UNL     1      34.465 -18.055 -20.190  0.00  0.00    -0.085 HD
ATOM      7  H   UNL     1      34.292 -17.922 -21.812  0.00  0.00    -0.085 HD
ENDROOT
BRANCH   2   8
ATOM      8  C   UNL     1      32.784 -19.974 -20.614  0.00  0.00    -0.108 C 
BRANCH   8   9
ATOM      9  N   UNL     1      32.682 -20.912 -19.503  0.00  0.00    +0.379 N 
ATOM     10  H   UNL     1      31.889 -20.658 -18.916  0.00  0.00    -0.089 HD
ATOM     11  H   UNL     1      33.539 -20.879 -18.950  0.00  0.00    -0.089 HD
ATOM     12  H   UNL     1      32.548 -21.855 -19.867  0.00  0.00    -0.089 HD
ENDBRANCH   8   9
ENDBRANCH   2   8
TORSDOF 2
ENDMDL
MODEL 5
REMARK VINA RESULT:      -4.2      1.563      3.513
REMARK  Name = 2734054
REMARK  2 active torsions:
REMARK  status: ('A' for Active; 'I' for Inactive)
REMARK    1  A    between atoms: C_2  and  C_8
REMARK    2  A    between atoms: C_8  and  N_9
REMARK                            x       y       z     vdW  Elec       q    Type
REMARK                         _______ _______ _______ _____ _____    ______ ____
ROOT
ATOM      1  N   UNL     1      35.083 -18.011 -20.876  0.00  0.00    +0.384 N 
ATOM      2  C   UNL     1      34.167 -19.039 -21.375  0.00  0.00    -0.084 C 
ATOM      3  C   UNL     1      34.738 -19.343 -22.752  0.00  0.00    -0.026 C 
ATOM      4  C   UNL     1      35.284 -18.005 -23.235  0.00  0.00    -0.026 C 
ATOM      5  C   UNL     1      35.299 -17.108 -22.005  0.00  0.00    -0.082 C 
ATOM      6  H   UNL     1      35.964 -18.430 -20.581  0.00  0.00    -0.085 HD
ATOM      7  H   UNL     1      34.703 -17.523 -20.065  0.00  0.00    -0.085 HD
ENDROOT
BRANCH   2   8
ATOM      8  C   UNL     1      34.130 -20.249 -20.460  0.00  0.00    -0.108 C 
BRANCH   8   9
ATOM      9  N   UNL     1      32.764 -20.559 -20.053  0.00  0.00    +0.379 N 
ATOM     10  H   UNL     1      32.580 -21.549 -20.207  0.00  0.00    -0.089 HD
ATOM     11  H   UNL     1      32.111 -20.002 -20.603  0.00  0.00    -0.089 HD
ATOM     12  H   UNL     1      32.648 -20.340 -19.063  0.00  0.00    -0.089 HD
ENDBRANCH   8   9
ENDBRANCH   2   8
TORSDOF 2
ENDMDL
MODEL 6
REMARK VINA RESULT:      -4.1      1.448      3.503
REMARK  Name = 2734054
REMARK  2 active torsions:
REMARK  status: ('A' for Active; 'I' for Inactive)
REMARK    1  A    between atoms: C_2  and  C_8
REMARK    2  A    between atoms: C_8  and  N_9
REMARK                            x       y       z     vdW  Elec       q    Type
REMARK                         _______ _______ _______ _____ _____    ______ ____
ROOT
ATOM      1  N   UNL     1      35.331 -17.755 -20.855  0.00  0.00    +0.384 N 
ATOM      2  C   UNL     1      34.677 -18.982 -21.313  0.00  0.00    -0.084 C 
ATOM      3  C   UNL     1      35.029 -19.007 -22.793  0.00  0.00    -0.026 C 
ATOM      4  C   UNL     1      35.053 -17.537 -23.196  0.00  0.00    -0.026 C 
ATOM      5  C   UNL     1      35.046 -16.760 -21.887  0.00  0.00    -0.082 C 
ATOM      6  H   UNL     1      36.336 -17.898 -20.764  0.00  0.00    -0.085 HD
ATOM      7  H   UNL     1      34.992 -17.461 -19.939  0.00  0.00    -0.085 HD
ENDROOT
BRANCH   2   8
ATOM      8  C   UNL     1      35.177 -20.200 -20.557  0.00  0.00    -0.108 C 
BRANCH   8   9
ATOM      9  N   UNL     1      36.515 -19.974 -20.023  0.00  0.00    +0.379 N 
ATOM     10  H   UNL     1      36.591 -19.012 -19.693  0.00  0.00    -0.089 HD
ATOM     11  H   UNL     1      37.206 -20.139 -20.755  0.00  0.00    -0.089 HD
ATOM     12  H   UNL     1      36.683 -20.614 -19.246  0.00  0.00    -0.089 HD
ENDBRANCH   8   9
ENDBRANCH   2   8
TORSDOF 2
ENDMDL
MODEL 7
REMARK VINA RESULT:      -4.0      9.217     10.397
REMARK  Name = 2734054
REMARK  2 active torsions:
REMARK  status: ('A' for Active; 'I' for Inactive)
REMARK    1  A    between atoms: C_2  and  C_8
REMARK    2  A    between atoms: C_8  and  N_9
REMARK                            x       y       z     vdW  Elec       q    Type
REMARK                         _______ _______ _______ _____ _____    ______ ____
ROOT
ATOM      1  N   UNL     1      31.977 -10.300 -21.749  0.00  0.00    +0.384 N 
ATOM      2  C   UNL     1      31.748  -9.266 -20.737  0.00  0.00    -0.084 C 
ATOM      3  C   UNL     1      31.979 -10.025 -19.439  0.00  0.00    -0.026 C 
ATOM      4  C   UNL     1      31.474 -11.432 -19.732  0.00  0.00    -0.026 C 
ATOM      5  C   UNL     1      31.298 -11.490 -21.243  0.00  0.00    -0.082 C 
ATOM      6  H   UNL     1      32.976 -10.477 -21.859  0.00  0.00    -0.085 HD
ATOM      7  H   UNL     1      31.626 -10.021 -22.665  0.00  0.00    -0.085 HD
ENDROOT
BRANCH   2   8
ATOM      8  C   UNL     1      32.685  -8.086 -20.918  0.00  0.00    -0.108 C 
BRANCH   8   9
ATOM      9  N   UNL     1      33.020  -7.480 -19.635  0.00  0.00    +0.379 N 
ATOM     10  H   UNL     1      32.639  -6.535 -19.596  0.00  0.00    -0.089 HD
ATOM     11  H   UNL     1      34.034  -7.442 -19.531  0.00  0.00    -0.089 HD
ATOM     12  H   UNL     1      32.621  -8.039 -18.881  0.00  0.00    -0.089 HD
ENDBRANCH   8   9
ENDBRANCH   2   8
TORSDOF 2
ENDMDL
MODEL 8
REMARK VINA RESULT:      -4.0      3.849      4.717
REMARK  Name = 2734054
REMARK  2 active torsions:
REMARK  status: ('A' for Active; 'I' for Inactive)
REMARK    1  A    between atoms: C_2  and  C_8
REMARK    2  A    between atoms: C_8  and  N_9
REMARK                            x       y       z     vdW  Elec       q    Type
REMARK                         _______ _______ _______ _____ _____    ______ ____
ROOT
ATOM      1  N   UNL     1      35.201 -16.895 -23.561  0.00  0.00    +0.384 N 
ATOM      2  C   UNL     1      34.833 -17.105 -24.963  0.00  0.00    -0.084 C 
ATOM      3  C   UNL     1      34.200 -18.488 -24.929  0.00  0.00    -0.026 C 
ATOM      4  C   UNL     1      34.985 -19.234 -23.857  0.00  0.00    -0.026 C 
ATOM      5  C   UNL     1      35.779 -18.163 -23.121  0.00  0.00    -0.082 C 
ATOM      6  H   UNL     1      34.377 -16.666 -23.006  0.00  0.00    -0.085 HD
ATOM      7  H   UNL     1      35.855 -16.120 -23.451  0.00  0.00    -0.085 HD
ENDROOT
BRANCH   2   8
ATOM      8  C   UNL     1      33.891 -16.026 -25.464  0.00  0.00    -0.108 C 
BRANCH   8   9
ATOM      9  N   UNL     1      33.561 -15.082 -24.402  0.00  0.00    +0.379 N 
ATOM     10  H   UNL     1      34.334 -14.429 -24.276  0.00  0.00    -0.089 HD
ATOM     11  H   UNL     1      33.401 -15.591 -23.533  0.00  0.00    -0.089 HD
ATOM     12  H   UNL     1      32.718 -14.567 -24.656  0.00  0.00    -0.089 HD
ENDBRANCH   8   9
ENDBRANCH   2   8
TORSDOF 2
ENDMDL
MODEL 9
REMARK VINA RESULT:      -4.0      2.448      3.512
REMARK  Name = 2734054
REMARK  2 active torsions:
REMARK  status: ('A' for Active; 'I' for Inactive)
REMARK    1  A    between atoms: C_2  and  C_8
REMARK    2  A    between atoms: C_8  and  N_9
REMARK                            x       y       z     vdW  Elec       q    Type
REMARK                         _______ _______ _______ _____ _____    ______ ____
ROOT
ATOM      1  N   UNL     1      34.999 -17.035 -22.481  0.00  0.00    +0.384 N 
ATOM      2  C   UNL     1      35.248 -18.208 -23.322  0.00  0.00    -0.084 C 
ATOM      3  C   UNL     1      34.559 -19.319 -22.543  0.00  0.00    -0.026 C 
ATOM      4  C   UNL     1      34.756 -18.930 -21.083  0.00  0.00    -0.026 C 
ATOM      5  C   UNL     1      35.238 -17.487 -21.112  0.00  0.00    -0.082 C 
ATOM      6  H   UNL     1      34.037 -16.716 -22.589  0.00  0.00    -0.085 HD
ATOM      7  H   UNL     1      35.599 -16.251 -22.734  0.00  0.00    -0.085 HD
ENDROOT
BRANCH   2   8
ATOM      8  C   UNL     1      34.691 -18.023 -24.722  0.00  0.00    -0.108 C 
BRANCH   8   9
ATOM      9  N   UNL     1      35.041 -16.714 -25.258  0.00  0.00    +0.379 N 
ATOM     10  H   UNL     1      35.846 -16.344 -24.753  0.00  0.00    -0.089 HD
ATOM     11  H   UNL     1      34.250 -16.079 -25.148  0.00  0.00    -0.089 HD
ATOM     12  H   UNL     1      35.271 -16.802 -26.247  0.00  0.00    -0.089 HD
ENDBRANCH   8   9
ENDBRANCH   2   8
TORSDOF 2
ENDMDL
