MODEL 1
REMARK VINA RESULT:      -6.4      0.000      0.000
REMARK  Name = 5610
REMARK  4 active torsions:
REMARK  status: ('A' for Active; 'I' for Inactive)
REMARK    1  A    between atoms: C_1  and  C_9
REMARK    2  A    between atoms: C_6  and  O_7
REMARK    3  A    between atoms: C_9  and  C_10
REMARK    4  A    between atoms: C_10  and  N_11
REMARK                            x       y       z     vdW  Elec       q    Type
REMARK                         _______ _______ _______ _____ _____    ______ ____
ROOT
ATOM      1  C   UNL     1      35.200 -19.554 -20.962  0.00  0.00    -0.024 C 
ATOM      2  C   UNL     1      33.814 -19.411 -21.007  0.00  0.00    -0.001 C 
ATOM      3  C   UNL     1      35.769 -20.603 -20.238  0.00  0.00    -0.001 C 
ATOM      4  C   UNL     1      32.995 -20.313 -20.326  0.00  0.00    +0.036 C 
ATOM      5  C   UNL     1      34.952 -21.505 -19.558  0.00  0.00    +0.036 C 
ATOM      6  C   UNL     1      33.565 -21.361 -19.603  0.00  0.00    +0.134 C 
ENDROOT
BRANCH   6   7
ATOM      7  O   UNL     1      32.767 -22.242 -18.939  0.00  0.00    -0.506 OA
ATOM      8  H   UNL     1      32.537 -22.085 -18.046  0.00  0.00    +0.292 HD
ENDBRANCH   6   7
BRANCH   1   9
ATOM      9  C   UNL     1      36.073 -18.588 -21.689  0.00  0.00    +0.002 C 
BRANCH   9  10
ATOM     10  C   UNL     1      35.534 -18.246 -23.084  0.00  0.00    -0.081 C 
BRANCH  10  11
ATOM     11  N   UNL     1      35.636 -16.817 -23.358  0.00  0.00    +0.381 N 
ATOM     12  H   UNL     1      35.317 -16.290 -22.545  0.00  0.00    -0.089 HD
ATOM     13  H   UNL     1      35.056 -16.583 -24.164  0.00  0.00    -0.089 HD
ATOM     14  H   UNL     1      36.607 -16.577 -23.558  0.00  0.00    -0.089 HD
ENDBRANCH  10  11
ENDBRANCH   9  10
ENDBRANCH   1   9
TORSDOF 4
ENDMDL
MODEL 2
REMARK VINA RESULT:      -6.4      0.002      1.528
REMARK  Name = 5610
REMARK  4 active torsions:
REMARK  status: ('A' for Active; 'I' for Inactive)
REMARK    1  A    between atoms: C_1  and  C_9
REMARK    2  A    between atoms: C_6  and  O_7
REMARK    3  A    between atoms: C_9  and  C_10
REMARK    4  A    between atoms: C_10  and  N_11
REMARK                            x       y       z     vdW  Elec       q    Type
REMARK                         _______ _______ _______ _____ _____    ______ ____
ROOT
ATOM      1  C   UNL     1      35.199 -19.553 -20.963  0.00  0.00    -0.024 C 
ATOM      2  C   UNL     1      35.768 -20.601 -20.240  0.00  0.00    -0.001 C 
ATOM      3  C   UNL     1      33.812 -19.408 -21.006  0.00  0.00    -0.001 C 
ATOM      4  C   UNL     1      34.950 -21.505 -19.560  0.00  0.00    +0.036 C 
ATOM      5  C   UNL     1      32.995 -20.311 -20.326  0.00  0.00    +0.036 C 
ATOM      6  C   UNL     1      33.564 -21.359 -19.603  0.00  0.00    +0.134 C 
ENDROOT
BRANCH   6   7
ATOM      7  O   UNL     1      32.766 -22.241 -18.939  0.00  0.00    -0.506 OA
ATOM      8  H   UNL     1      33.109 -23.068 -18.666  0.00  0.00    +0.292 HD
ENDBRANCH   6   7
BRANCH   1   9
ATOM      9  C   UNL     1      36.074 -18.589 -21.690  0.00  0.00    +0.002 C 
BRANCH   9  10
ATOM     10  C   UNL     1      35.535 -18.246 -23.085  0.00  0.00    -0.081 C 
BRANCH  10  11
ATOM     11  N   UNL     1      35.636 -16.816 -23.358  0.00  0.00    +0.381 N 
ATOM     12  H   UNL     1      36.606 -16.518 -23.257  0.00  0.00    -0.089 HD
ATOM     13  H   UNL     1      35.052 -16.302 -22.699  0.00  0.00    -0.089 HD
ATOM     14  H   UNL     1      35.320 -16.628 -24.309  0.00  0.00    -0.089 HD
ENDBRANCH  10  11
ENDBRANCH   9  10
ENDBRANCH   1   9
TORSDOF 4
ENDMDL
MODEL 3
REMARK VINA RESULT:      -6.0      3.747      5.160
REMARK  Name = 5610
REMARK  4 active torsions:
REMARK  status: ('A' for Active; 'I' for Inactive)
REMARK    1  A    between atoms: C_1  and  C_9
REMARK    2  A    between atoms: C_6  and  O_7
REMARK    3  A    between atoms: C_9  and  C_10
REMARK    4  A    between atoms: C_10  and  N_11
REMARK                            x       y       z     vdW  Elec       q    Type
REMARK                         _______ _______ _______ _____ _____    ______ ____
ROOT
ATOM      1  C   UNL     1      34.569 -18.721 -22.245  0.00  0.00    -0.024 C 
ATOM      2  C   UNL     1      34.669 -17.330 -22.229  0.00  0.00    -0.001 C 
ATOM      3  C   UNL     1      34.576 -19.406 -23.461  0.00  0.00    -0.001 C 
ATOM      4  C   UNL     1      34.774 -16.623 -23.427  0.00  0.00    +0.036 C 
ATOM      5  C   UNL     1      34.683 -18.700 -24.658  0.00  0.00    +0.036 C 
ATOM      6  C   UNL     1      34.782 -17.309 -24.642  0.00  0.00    +0.134 C 
ENDROOT
BRANCH   6   7
ATOM      7  O   UNL     1      34.886 -16.620 -25.812  0.00  0.00    -0.506 OA
ATOM      8  H   UNL     1      35.501 -15.918 -25.887  0.00  0.00    +0.292 HD
ENDBRANCH   6   7
BRANCH   1   9
ATOM      9  C   UNL     1      34.455 -19.475 -20.963  0.00  0.00    +0.002 C 
BRANCH   9  10
ATOM     10  C   UNL     1      33.007 -19.866 -20.640  0.00  0.00    -0.081 C 
BRANCH  10  11
ATOM     11  N   UNL     1      32.953 -21.031 -19.764  0.00  0.00    +0.381 N 
ATOM     12  H   UNL     1      33.413 -21.820 -20.218  0.00  0.00    -0.089 HD
ATOM     13  H   UNL     1      31.979 -21.269 -19.575  0.00  0.00    -0.089 HD
ATOM     14  H   UNL     1      33.427 -20.819 -18.886  0.00  0.00    -0.089 HD
ENDBRANCH  10  11
ENDBRANCH   9  10
ENDBRANCH   1   9
TORSDOF 4
ENDMDL
MODEL 4
REMARK VINA RESULT:      -6.0      1.349      2.102
REMARK  Name = 5610
REMARK  4 active torsions:
REMARK  status: ('A' for Active; 'I' for Inactive)
REMARK    1  A    between atoms: C_1  and  C_9
REMARK    2  A    between atoms: C_6  and  O_7
REMARK    3  A    between atoms: C_9  and  C_10
REMARK    4  A    between atoms: C_10  and  N_11
REMARK                            x       y       z     vdW  Elec       q    Type
REMARK                         _______ _______ _______ _____ _____    ______ ____
ROOT
ATOM      1  C   UNL     1      34.743 -19.910 -20.816  0.00  0.00    -0.024 C 
ATOM      2  C   UNL     1      35.904 -20.511 -20.331  0.00  0.00    -0.001 C 
ATOM      3  C   UNL     1      33.494 -20.357 -20.385  0.00  0.00    -0.001 C 
ATOM      4  C   UNL     1      35.817 -21.562 -19.417  0.00  0.00    +0.036 C 
ATOM      5  C   UNL     1      33.407 -21.406 -19.470  0.00  0.00    +0.036 C 
ATOM      6  C   UNL     1      34.568 -22.008 -18.986  0.00  0.00    +0.134 C 
ENDROOT
BRANCH   6   7
ATOM      7  O   UNL     1      34.483 -23.033 -18.093  0.00  0.00    -0.506 OA
ATOM      8  H   UNL     1      34.094 -23.845 -18.349  0.00  0.00    +0.292 HD
ENDBRANCH   6   7
BRANCH   1   9
ATOM      9  C   UNL     1      34.838 -18.788 -21.794  0.00  0.00    +0.002 C 
BRANCH   9  10
ATOM     10  C   UNL     1      35.060 -17.432 -21.111  0.00  0.00    -0.081 C 
BRANCH  10  11
ATOM     11  N   UNL     1      33.911 -16.551 -21.290  0.00  0.00    +0.381 N 
ATOM     12  H   UNL     1      33.347 -16.551 -20.442  0.00  0.00    -0.089 HD
ATOM     13  H   UNL     1      33.348 -16.882 -22.074  0.00  0.00    -0.089 HD
ATOM     14  H   UNL     1      34.236 -15.603 -21.483  0.00  0.00    -0.089 HD
ENDBRANCH  10  11
ENDBRANCH   9  10
ENDBRANCH   1   9
TORSDOF 4
ENDMDL
MODEL 5
REMARK VINA RESULT:      -5.9      3.642      4.941
REMARK  Name = 5610
REMARK  4 active torsions:
REMARK  status: ('A' for Active; 'I' for Inactive)
REMARK    1  A    between atoms: C_1  and  C_9
REMARK    2  A    between atoms: C_6  and  O_7
REMARK    3  A    between atoms: C_9  and  C_10
REMARK    4  A    between atoms: C_10  and  N_11
REMARK                            x       y       z     vdW  Elec       q    Type
REMARK                         _______ _______ _______ _____ _____    ______ ____
ROOT
ATOM      1  C   UNL     1      34.747 -19.101 -21.513  0.00  0.00    -0.024 C 
ATOM      2  C   UNL     1      34.908 -19.300 -22.885  0.00  0.00    -0.001 C 
ATOM      3  C   UNL     1      34.809 -17.812 -20.984  0.00  0.00    -0.001 C 
ATOM      4  C   UNL     1      35.133 -18.211 -23.727  0.00  0.00    +0.036 C 
ATOM      5  C   UNL     1      35.033 -16.723 -21.826  0.00  0.00    +0.036 C 
ATOM      6  C   UNL     1      35.194 -16.922 -23.197  0.00  0.00    +0.134 C 
ENDROOT
BRANCH   6   7
ATOM      7  O   UNL     1      35.412 -15.858 -24.019  0.00  0.00    -0.506 OA
ATOM      8  H   UNL     1      36.058 -15.218 -23.795  0.00  0.00    +0.292 HD
ENDBRANCH   6   7
BRANCH   1   9
ATOM      9  C   UNL     1      34.509 -20.267 -20.615  0.00  0.00    +0.002 C 
BRANCH   9  10
ATOM     10  C   UNL     1      33.031 -20.416 -20.229  0.00  0.00    -0.081 C 
BRANCH  10  11
ATOM     11  N   UNL     1      32.800 -21.642 -19.472  0.00  0.00    +0.381 N 
ATOM     12  H   UNL     1      33.375 -21.636 -18.630  0.00  0.00    -0.089 HD
ATOM     13  H   UNL     1      33.045 -22.448 -20.047  0.00  0.00    -0.089 HD
ATOM     14  H   UNL     1      31.815 -21.699 -19.210  0.00  0.00    -0.089 HD
ENDBRANCH  10  11
ENDBRANCH   9  10
ENDBRANCH   1   9
TORSDOF 4
ENDMDL
MODEL 6
REMARK VINA RESULT:      -5.7      3.767      5.179
REMARK  Name = 5610
REMARK  4 active torsions:
REMARK  status: ('A' for Active; 'I' for Inactive)
REMARK    1  A    between atoms: C_1  and  C_9
REMARK    2  A    between atoms: C_6  and  O_7
REMARK    3  A    between atoms: C_9  and  C_10
REMARK    4  A    between atoms: C_10  and  N_11
REMARK                            x       y       z     vdW  Elec       q    Type
REMARK                         _______ _______ _______ _____ _____    ______ ____
ROOT
ATOM      1  C   UNL     1      34.055 -21.509 -19.401  0.00  0.00    -0.024 C 
ATOM      2  C   UNL     1      35.450 -21.546 -19.400  0.00  0.00    -0.001 C 
ATOM      3  C   UNL     1      33.384 -20.547 -20.156  0.00  0.00    -0.001 C 
ATOM      4  C   UNL     1      36.173 -20.619 -20.151  0.00  0.00    +0.036 C 
ATOM      5  C   UNL     1      34.107 -19.621 -20.908  0.00  0.00    +0.036 C 
ATOM      6  C   UNL     1      35.501 -19.657 -20.905  0.00  0.00    +0.134 C 
ENDROOT
BRANCH   6   7
ATOM      7  O   UNL     1      36.207 -18.753 -21.640  0.00  0.00    -0.506 OA
ATOM      8  H   UNL     1      36.228 -18.823 -22.573  0.00  0.00    +0.292 HD
ENDBRANCH   6   7
BRANCH   1   9
ATOM      9  C   UNL     1      33.284 -22.500 -18.597  0.00  0.00    +0.002 C 
BRANCH   9  10
ATOM     10  C   UNL     1      34.067 -23.001 -17.376  0.00  0.00    -0.081 C 
BRANCH  10  11
ATOM     11  N   UNL     1      33.171 -23.394 -16.294  0.00  0.00    +0.381 N 
ATOM     12  H   UNL     1      32.674 -22.574 -15.948  0.00  0.00    -0.089 HD
ATOM     13  H   UNL     1      33.715 -23.807 -15.536  0.00  0.00    -0.089 HD
ATOM     14  H   UNL     1      32.499 -24.079 -16.640  0.00  0.00    -0.089 HD
ENDBRANCH  10  11
ENDBRANCH   9  10
ENDBRANCH   1   9
TORSDOF 4
ENDMDL
MODEL 7
REMARK VINA RESULT:      -5.6      4.168      5.821
REMARK  Name = 5610
REMARK  4 active torsions:
REMARK  status: ('A' for Active; 'I' for Inactive)
REMARK    1  A    between atoms: C_1  and  C_9
REMARK    2  A    between atoms: C_6  and  O_7
REMARK    3  A    between atoms: C_9  and  C_10
REMARK    4  A    between atoms: C_10  and  N_11
REMARK                            x       y       z     vdW  Elec       q    Type
REMARK                         _______ _______ _______ _____ _____    ______ ____
ROOT
ATOM      1  C   UNL     1      34.619 -16.603 -22.756  0.00  0.00    -0.024 C 
ATOM      2  C   UNL     1      33.936 -15.407 -22.974  0.00  0.00    -0.001 C 
ATOM      3  C   UNL     1      34.931 -17.434 -23.833  0.00  0.00    -0.001 C 
ATOM      4  C   UNL     1      33.563 -15.042 -24.268  0.00  0.00    +0.036 C 
ATOM      5  C   UNL     1      34.560 -17.069 -25.126  0.00  0.00    +0.036 C 
ATOM      6  C   UNL     1      33.876 -15.873 -25.344  0.00  0.00    +0.134 C 
ENDROOT
BRANCH   6   7
ATOM      7  O   UNL     1      33.513 -15.516 -26.607  0.00  0.00    -0.506 OA
ATOM      8  H   UNL     1      33.795 -16.029 -27.337  0.00  0.00    +0.292 HD
ENDBRANCH   6   7
BRANCH   1   9
ATOM      9  C   UNL     1      35.016 -16.993 -21.372  0.00  0.00    +0.002 C 
BRANCH   9  10
ATOM     10  C   UNL     1      34.941 -18.509 -21.146  0.00  0.00    -0.081 C 
BRANCH  10  11
ATOM     11  N   UNL     1      36.193 -19.029 -20.607  0.00  0.00    +0.381 N 
ATOM     12  H   UNL     1      36.839 -19.222 -21.372  0.00  0.00    -0.089 HD
ATOM     13  H   UNL     1      36.009 -19.890 -20.092  0.00  0.00    -0.089 HD
ATOM     14  H   UNL     1      36.606 -18.339 -19.979  0.00  0.00    -0.089 HD
ENDBRANCH  10  11
ENDBRANCH   9  10
ENDBRANCH   1   9
TORSDOF 4
ENDMDL
MODEL 8
REMARK VINA RESULT:      -5.6      3.439      4.478
REMARK  Name = 5610
REMARK  4 active torsions:
REMARK  status: ('A' for Active; 'I' for Inactive)
REMARK    1  A    between atoms: C_1  and  C_9
REMARK    2  A    between atoms: C_6  and  O_7
REMARK    3  A    between atoms: C_9  and  C_10
REMARK    4  A    between atoms: C_10  and  N_11
REMARK                            x       y       z     vdW  Elec       q    Type
REMARK                         _______ _______ _______ _____ _____    ______ ____
ROOT
ATOM      1  C   UNL     1      35.243 -20.747 -19.967  0.00  0.00    -0.024 C 
ATOM      2  C   UNL     1      34.108 -20.176 -20.541  0.00  0.00    -0.001 C 
ATOM      3  C   UNL     1      36.501 -20.198 -20.216  0.00  0.00    -0.001 C 
ATOM      4  C   UNL     1      34.230 -19.057 -21.365  0.00  0.00    +0.036 C 
ATOM      5  C   UNL     1      36.624 -19.079 -21.038  0.00  0.00    +0.036 C 
ATOM      6  C   UNL     1      35.488 -18.508 -21.613  0.00  0.00    +0.134 C 
ENDROOT
BRANCH   6   7
ATOM      7  O   UNL     1      35.608 -17.415 -22.416  0.00  0.00    -0.506 OA
ATOM      8  H   UNL     1      36.452 -17.045 -22.580  0.00  0.00    +0.292 HD
ENDBRANCH   6   7
BRANCH   1   9
ATOM      9  C   UNL     1      35.111 -21.944 -19.088  0.00  0.00    +0.002 C 
BRANCH   9  10
ATOM     10  C   UNL     1      33.827 -22.737 -19.367  0.00  0.00    -0.081 C 
BRANCH  10  11
ATOM     11  N   UNL     1      32.848 -22.557 -18.301  0.00  0.00    +0.381 N 
ATOM     12  H   UNL     1      31.907 -22.577 -18.695  0.00  0.00    -0.089 HD
ATOM     13  H   UNL     1      33.005 -21.660 -17.842  0.00  0.00    -0.089 HD
ATOM     14  H   UNL     1      32.946 -23.309 -17.618  0.00  0.00    -0.089 HD
ENDBRANCH  10  11
ENDBRANCH   9  10
ENDBRANCH   1   9
TORSDOF 4
ENDMDL
MODEL 9
REMARK VINA RESULT:      -5.5      3.855      5.244
REMARK  Name = 5610
REMARK  4 active torsions:
REMARK  status: ('A' for Active; 'I' for Inactive)
REMARK    1  A    between atoms: C_1  and  C_9
REMARK    2  A    between atoms: C_6  and  O_7
REMARK    3  A    between atoms: C_9  and  C_10
REMARK    4  A    between atoms: C_10  and  N_11
REMARK                            x       y       z     vdW  Elec       q    Type
REMARK                         _______ _______ _______ _____ _____    ______ ____
ROOT
ATOM      1  C   UNL     1      34.642 -18.138 -22.243  0.00  0.00    -0.024 C 
ATOM      2  C   UNL     1      34.464 -17.248 -21.184  0.00  0.00    -0.001 C 
ATOM      3  C   UNL     1      34.853 -17.652 -23.534  0.00  0.00    -0.001 C 
ATOM      4  C   UNL     1      34.495 -15.872 -21.415  0.00  0.00    +0.036 C 
ATOM      5  C   UNL     1      34.885 -16.278 -23.765  0.00  0.00    +0.036 C 
ATOM      6  C   UNL     1      34.706 -15.388 -22.706  0.00  0.00    +0.134 C 
ENDROOT
BRANCH   6   7
ATOM      7  O   UNL     1      34.738 -14.045 -22.932  0.00  0.00    -0.506 OA
ATOM      8  H   UNL     1      34.498 -13.706 -23.771  0.00  0.00    +0.292 HD
ENDBRANCH   6   7
BRANCH   1   9
ATOM      9  C   UNL     1      34.607 -19.608 -21.994  0.00  0.00    +0.002 C 
BRANCH   9  10
ATOM     10  C   UNL     1      34.080 -19.953 -20.596  0.00  0.00    -0.081 C 
BRANCH  10  11
ATOM     11  N   UNL     1      32.716 -20.468 -20.653  0.00  0.00    +0.381 N 
ATOM     12  H   UNL     1      32.083 -19.725 -20.949  0.00  0.00    -0.089 HD
ATOM     13  H   UNL     1      32.439 -20.803 -19.730  0.00  0.00    -0.089 HD
ATOM     14  H   UNL     1      32.671 -21.239 -21.320  0.00  0.00    -0.089 HD
ENDBRANCH  10  11
ENDBRANCH   9  10
ENDBRANCH   1   9
TORSDOF 4
ENDMDL
