MODEL 1
REMARK VINA RESULT:      -5.3      0.000      0.000
REMARK  Name = 15391
REMARK  4 active torsions:
REMARK  status: ('A' for Active; 'I' for Inactive)
REMARK    1  A    between atoms: P_1  and  O_3
REMARK    2  A    between atoms: P_1  and  O_5
REMARK    3  A    between atoms: P_1  and  O_7
REMARK    4  A    between atoms: O_7  and  C_8
REMARK                            x       y       z     vdW  Elec       q    Type
REMARK                         _______ _______ _______ _____ _____    ______ ____
ROOT
ATOM      1  P   UNL     1      40.249 -25.955 -14.553  0.00  0.00    +0.473 P 
ATOM      2  O   UNL     1      40.232 -24.621 -13.865  0.00  0.00    -0.228 OA
ENDROOT
BRANCH   1   3
ATOM      3  O   UNL     1      40.495 -25.906 -16.150  0.00  0.00    -0.303 OA
ATOM      4  H   UNL     1      40.935 -25.074 -16.384  0.00  0.00    +0.222 HD
ENDBRANCH   1   3
BRANCH   1   5
ATOM      5  O   UNL     1      41.388 -26.978 -14.031  0.00  0.00    -0.303 OA
ATOM      6  H   UNL     1      41.720 -27.500 -14.779  0.00  0.00    +0.222 HD
ENDBRANCH   1   5
BRANCH   1   7
ATOM      7  O   UNL     1      38.895 -26.823 -14.398  0.00  0.00    -0.276 OA
BRANCH   7   8
ATOM      8  C   UNL     1      37.659 -26.127 -14.262  0.00  0.00    +0.126 C 
ATOM      9  C   UNL     1      36.640 -26.727 -15.218  0.00  0.00    +0.033 C 
ATOM     10  C   UNL     1      37.196 -26.208 -12.815  0.00  0.00    +0.033 C 
ENDBRANCH   7   8
ENDBRANCH   1   7
TORSDOF 4
ENDMDL
MODEL 2
REMARK VINA RESULT:      -5.0      1.480      2.459
REMARK  Name = 15391
REMARK  4 active torsions:
REMARK  status: ('A' for Active; 'I' for Inactive)
REMARK    1  A    between atoms: P_1  and  O_3
REMARK    2  A    between atoms: P_1  and  O_5
REMARK    3  A    between atoms: P_1  and  O_7
REMARK    4  A    between atoms: O_7  and  C_8
REMARK                            x       y       z     vdW  Elec       q    Type
REMARK                         _______ _______ _______ _____ _____    ______ ____
ROOT
ATOM      1  P   UNL     1      40.093 -26.049 -14.607  0.00  0.00    +0.473 P 
ATOM      2  O   UNL     1      41.303 -26.643 -13.947  0.00  0.00    -0.228 OA
ENDROOT
BRANCH   1   3
ATOM      3  O   UNL     1      40.274 -25.664 -16.167  0.00  0.00    -0.303 OA
ATOM      4  H   UNL     1      40.437 -24.712 -16.248  0.00  0.00    +0.222 HD
ENDBRANCH   1   3
BRANCH   1   5
ATOM      5  O   UNL     1      38.781 -26.995 -14.606  0.00  0.00    -0.303 OA
ATOM      6  H   UNL     1      38.967 -27.806 -15.104  0.00  0.00    +0.222 HD
ENDBRANCH   1   5
BRANCH   1   7
ATOM      7  O   UNL     1      39.547 -24.685 -13.935  0.00  0.00    -0.276 OA
BRANCH   7   8
ATOM      8  C   UNL     1      38.191 -24.642 -13.500  0.00  0.00    +0.126 C 
ATOM      9  C   UNL     1      38.142 -24.149 -12.062  0.00  0.00    +0.033 C 
ATOM     10  C   UNL     1      37.393 -23.745 -14.435  0.00  0.00    +0.033 C 
ENDBRANCH   7   8
ENDBRANCH   1   7
TORSDOF 4
ENDMDL
MODEL 3
REMARK VINA RESULT:      -4.8      3.328      4.224
REMARK  Name = 15391
REMARK  4 active torsions:
REMARK  status: ('A' for Active; 'I' for Inactive)
REMARK    1  A    between atoms: P_1  and  O_3
REMARK    2  A    between atoms: P_1  and  O_5
REMARK    3  A    between atoms: P_1  and  O_7
REMARK    4  A    between atoms: O_7  and  C_8
REMARK                            x       y       z     vdW  Elec       q    Type
REMARK                         _______ _______ _______ _____ _____    ______ ____
ROOT
ATOM      1  P   UNL     1      37.354 -23.486 -12.115  0.00  0.00    +0.473 P 
ATOM      2  O   UNL     1      37.287 -24.380 -10.911  0.00  0.00    -0.228 OA
ENDROOT
BRANCH   1   3
ATOM      3  O   UNL     1      35.929 -23.131 -12.793  0.00  0.00    -0.303 OA
ATOM      4  H   UNL     1      36.067 -22.517 -13.531  0.00  0.00    +0.222 HD
ENDBRANCH   1   3
BRANCH   1   5
ATOM      5  O   UNL     1      38.013 -22.033 -11.851  0.00  0.00    -0.303 OA
ATOM      6  H   UNL     1      37.391 -21.341 -12.124  0.00  0.00    +0.222 HD
ENDBRANCH   1   5
BRANCH   1   7
ATOM      7  O   UNL     1      38.234 -24.056 -13.344  0.00  0.00    -0.276 OA
BRANCH   7   8
ATOM      8  C   UNL     1      38.679 -25.408 -13.286  0.00  0.00    +0.126 C 
ATOM      9  C   UNL     1      37.608 -26.312 -13.878  0.00  0.00    +0.033 C 
ATOM     10  C   UNL     1      40.001 -25.533 -14.028  0.00  0.00    +0.033 C 
ENDBRANCH   7   8
ENDBRANCH   1   7
TORSDOF 4
ENDMDL
MODEL 4
REMARK VINA RESULT:      -4.7     10.241     10.917
REMARK  Name = 15391
REMARK  4 active torsions:
REMARK  status: ('A' for Active; 'I' for Inactive)
REMARK    1  A    between atoms: P_1  and  O_3
REMARK    2  A    between atoms: P_1  and  O_5
REMARK    3  A    between atoms: P_1  and  O_7
REMARK    4  A    between atoms: O_7  and  C_8
REMARK                            x       y       z     vdW  Elec       q    Type
REMARK                         _______ _______ _______ _____ _____    ______ ____
ROOT
ATOM      1  P   UNL     1      28.325 -22.791 -16.589  0.00  0.00    +0.473 P 
ATOM      2  O   UNL     1      27.394 -21.626 -16.420  0.00  0.00    -0.228 OA
ENDROOT
BRANCH   1   3
ATOM      3  O   UNL     1      27.805 -23.953 -17.585  0.00  0.00    -0.303 OA
ATOM      4  H   UNL     1      28.435 -24.059 -18.315  0.00  0.00    +0.222 HD
ENDBRANCH   1   3
BRANCH   1   5
ATOM      5  O   UNL     1      29.784 -22.419 -17.179  0.00  0.00    -0.303 OA
ATOM      6  H   UNL     1      30.039 -21.533 -16.877  0.00  0.00    +0.222 HD
ENDBRANCH   1   5
BRANCH   1   7
ATOM      7  O   UNL     1      28.685 -23.584 -15.227  0.00  0.00    -0.276 OA
BRANCH   7   8
ATOM      8  C   UNL     1      30.007 -24.090 -15.071  0.00  0.00    +0.126 C 
ATOM      9  C   UNL     1      30.666 -23.408 -13.882  0.00  0.00    +0.033 C 
ATOM     10  C   UNL     1      29.947 -25.600 -14.897  0.00  0.00    +0.033 C 
ENDBRANCH   7   8
ENDBRANCH   1   7
TORSDOF 4
ENDMDL
MODEL 5
REMARK VINA RESULT:      -4.7      4.213      5.105
REMARK  Name = 15391
REMARK  4 active torsions:
REMARK  status: ('A' for Active; 'I' for Inactive)
REMARK    1  A    between atoms: P_1  and  O_3
REMARK    2  A    between atoms: P_1  and  O_5
REMARK    3  A    between atoms: P_1  and  O_7
REMARK    4  A    between atoms: O_7  and  C_8
REMARK                            x       y       z     vdW  Elec       q    Type
REMARK                         _______ _______ _______ _____ _____    ______ ____
ROOT
ATOM      1  P   UNL     1      35.964 -24.171 -11.239  0.00  0.00    +0.473 P 
ATOM      2  O   UNL     1      37.055 -23.187 -10.932  0.00  0.00    -0.228 OA
ENDROOT
BRANCH   1   3
ATOM      3  O   UNL     1      35.296 -24.886  -9.951  0.00  0.00    -0.303 OA
ATOM      4  H   UNL     1      35.991 -25.137  -9.324  0.00  0.00    +0.222 HD
ENDBRANCH   1   3
BRANCH   1   5
ATOM      5  O   UNL     1      34.692 -23.558 -12.027  0.00  0.00    -0.303 OA
ATOM      6  H   UNL     1      34.994 -22.872 -12.643  0.00  0.00    +0.222 HD
ENDBRANCH   1   5
BRANCH   1   7
ATOM      7  O   UNL     1      36.403 -25.409 -12.181  0.00  0.00    -0.276 OA
BRANCH   7   8
ATOM      8  C   UNL     1      37.188 -25.132 -13.337  0.00  0.00    +0.126 C 
ATOM      9  C   UNL     1      38.595 -25.670 -13.127  0.00  0.00    +0.033 C 
ATOM     10  C   UNL     1      36.520 -25.750 -14.556  0.00  0.00    +0.033 C 
ENDBRANCH   7   8
ENDBRANCH   1   7
TORSDOF 4
ENDMDL
MODEL 6
REMARK VINA RESULT:      -4.7      2.738      3.403
REMARK  Name = 15391
REMARK  4 active torsions:
REMARK  status: ('A' for Active; 'I' for Inactive)
REMARK    1  A    between atoms: P_1  and  O_3
REMARK    2  A    between atoms: P_1  and  O_5
REMARK    3  A    between atoms: P_1  and  O_7
REMARK    4  A    between atoms: O_7  and  C_8
REMARK                            x       y       z     vdW  Elec       q    Type
REMARK                         _______ _______ _______ _____ _____    ______ ____
ROOT
ATOM      1  P   UNL     1      37.403 -26.408 -15.021  0.00  0.00    +0.473 P 
ATOM      2  O   UNL     1      37.198 -27.002 -13.658  0.00  0.00    -0.228 OA
ENDROOT
BRANCH   1   3
ATOM      3  O   UNL     1      38.942 -26.124 -15.427  0.00  0.00    -0.303 OA
ATOM      4  H   UNL     1      39.481 -26.060 -14.624  0.00  0.00    +0.222 HD
ENDBRANCH   1   3
BRANCH   1   5
ATOM      5  O   UNL     1      36.854 -27.307 -16.248  0.00  0.00    -0.303 OA
ATOM      6  H   UNL     1      36.943 -28.247 -16.025  0.00  0.00    +0.222 HD
ENDBRANCH   1   5
BRANCH   1   7
ATOM      7  O   UNL     1      36.671 -24.989 -15.267  0.00  0.00    -0.276 OA
BRANCH   7   8
ATOM      8  C   UNL     1      37.368 -23.799 -14.909  0.00  0.00    +0.126 C 
ATOM      9  C   UNL     1      37.160 -22.752 -15.993  0.00  0.00    +0.033 C 
ATOM     10  C   UNL     1      36.873 -23.318 -13.553  0.00  0.00    +0.033 C 
ENDBRANCH   7   8
ENDBRANCH   1   7
TORSDOF 4
ENDMDL
MODEL 7
REMARK VINA RESULT:      -4.6     11.020     11.714
REMARK  Name = 15391
REMARK  4 active torsions:
REMARK  status: ('A' for Active; 'I' for Inactive)
REMARK    1  A    between atoms: P_1  and  O_3
REMARK    2  A    between atoms: P_1  and  O_5
REMARK    3  A    between atoms: P_1  and  O_7
REMARK    4  A    between atoms: O_7  and  C_8
REMARK                            x       y       z     vdW  Elec       q    Type
REMARK                         _______ _______ _______ _____ _____    ______ ____
ROOT
ATOM      1  P   UNL     1      42.135 -16.399 -17.555  0.00  0.00    +0.473 P 
ATOM      2  O   UNL     1      42.334 -16.368 -19.042  0.00  0.00    -0.228 OA
ENDROOT
BRANCH   1   3
ATOM      3  O   UNL     1      41.468 -17.752 -16.974  0.00  0.00    -0.303 OA
ATOM      4  H   UNL     1      42.167 -18.358 -16.683  0.00  0.00    +0.222 HD
ENDBRANCH   1   3
BRANCH   1   5
ATOM      5  O   UNL     1      43.487 -16.245 -16.682  0.00  0.00    -0.303 OA
ATOM      6  H   UNL     1      43.511 -15.365 -16.274  0.00  0.00    +0.222 HD
ENDBRANCH   1   5
BRANCH   1   7
ATOM      7  O   UNL     1      41.197 -15.223 -16.965  0.00  0.00    -0.276 OA
BRANCH   7   8
ATOM      8  C   UNL     1      41.805 -14.209 -16.171  0.00  0.00    +0.126 C 
ATOM      9  C   UNL     1      41.995 -12.958 -17.016  0.00  0.00    +0.033 C 
ATOM     10  C   UNL     1      40.938 -13.941 -14.950  0.00  0.00    +0.033 C 
ENDBRANCH   7   8
ENDBRANCH   1   7
TORSDOF 4
ENDMDL
MODEL 8
REMARK VINA RESULT:      -4.6     11.146     11.864
REMARK  Name = 15391
REMARK  4 active torsions:
REMARK  status: ('A' for Active; 'I' for Inactive)
REMARK    1  A    between atoms: P_1  and  O_3
REMARK    2  A    between atoms: P_1  and  O_5
REMARK    3  A    between atoms: P_1  and  O_7
REMARK    4  A    between atoms: O_7  and  C_8
REMARK                            x       y       z     vdW  Elec       q    Type
REMARK                         _______ _______ _______ _____ _____    ______ ____
ROOT
ATOM      1  P   UNL     1      40.942 -15.520 -15.316  0.00  0.00    +0.473 P 
ATOM      2  O   UNL     1      40.973 -14.540 -14.180  0.00  0.00    -0.228 OA
ENDROOT
BRANCH   1   3
ATOM      3  O   UNL     1      42.248 -16.464 -15.451  0.00  0.00    -0.303 OA
ATOM      4  H   UNL     1      42.594 -16.409 -16.355  0.00  0.00    +0.222 HD
ENDBRANCH   1   3
BRANCH   1   5
ATOM      5  O   UNL     1      39.720 -16.578 -15.272  0.00  0.00    -0.303 OA
ATOM      6  H   UNL     1      39.950 -17.313 -14.682  0.00  0.00    +0.222 HD
ENDBRANCH   1   5
BRANCH   1   7
ATOM      7  O   UNL     1      40.789 -14.863 -16.784  0.00  0.00    -0.276 OA
BRANCH   7   8
ATOM      8  C   UNL     1      41.973 -14.565 -17.517  0.00  0.00    +0.126 C 
ATOM      9  C   UNL     1      41.905 -15.246 -18.876  0.00  0.00    +0.033 C 
ATOM     10  C   UNL     1      42.116 -13.056 -17.646  0.00  0.00    +0.033 C 
ENDBRANCH   7   8
ENDBRANCH   1   7
TORSDOF 4
ENDMDL
MODEL 9
REMARK VINA RESULT:      -4.4     10.577     11.192
REMARK  Name = 15391
REMARK  4 active torsions:
REMARK  status: ('A' for Active; 'I' for Inactive)
REMARK    1  A    between atoms: P_1  and  O_3
REMARK    2  A    between atoms: P_1  and  O_5
REMARK    3  A    between atoms: P_1  and  O_7
REMARK    4  A    between atoms: O_7  and  C_8
REMARK                            x       y       z     vdW  Elec       q    Type
REMARK                         _______ _______ _______ _____ _____    ______ ____
ROOT
ATOM      1  P   UNL     1      35.232 -17.947 -22.228  0.00  0.00    +0.473 P 
ATOM      2  O   UNL     1      34.466 -17.108 -23.209  0.00  0.00    -0.228 OA
ENDROOT
BRANCH   1   3
ATOM      3  O   UNL     1      36.775 -18.232 -22.619  0.00  0.00    -0.303 OA
ATOM      4  H   UNL     1      37.032 -19.111 -22.299  0.00  0.00    +0.222 HD
ENDBRANCH   1   3
BRANCH   1   5
ATOM      5  O   UNL     1      35.333 -17.332 -20.736  0.00  0.00    -0.303 OA
ATOM      6  H   UNL     1      34.455 -17.033 -20.449  0.00  0.00    +0.222 HD
ENDBRANCH   1   5
BRANCH   1   7
ATOM      7  O   UNL     1      34.623 -19.420 -21.964  0.00  0.00    -0.276 OA
BRANCH   7   8
ATOM      8  C   UNL     1      34.448 -19.846 -20.616  0.00  0.00    +0.126 C 
ATOM      9  C   UNL     1      33.043 -20.403 -20.446  0.00  0.00    +0.033 C 
ATOM     10  C   UNL     1      35.512 -20.879 -20.275  0.00  0.00    +0.033 C 
ENDBRANCH   7   8
ENDBRANCH   1   7
TORSDOF 4
ENDMDL
