MODEL 1
REMARK VINA RESULT:      -9.1      0.000      0.000
REMARK  Name = 15627868
REMARK  6 active torsions:
REMARK  status: ('A' for Active; 'I' for Inactive)
REMARK    1  A    between atoms: N_1  and  C_6
REMARK    2  A    between atoms: N_1  and  O_15
REMARK    3  A    between atoms: O_15  and  C_16
REMARK    4  A    between atoms: C_16  and  C_17
REMARK    5  A    between atoms: C_17  and  C_19
REMARK    6  A    between atoms: C_19  and  O_20
REMARK                            x       y       z     vdW  Elec       q    Type
REMARK                         _______ _______ _______ _____ _____    ______ ____
ROOT
ATOM      1  C   UNL     1      34.531 -22.599 -17.394  0.00  0.00    -0.002 C 
ATOM      2  C   UNL     1      33.835 -23.173 -16.262  0.00  0.00    -0.016 C 
ATOM      3  C   UNL     1      35.881 -22.404 -17.056  0.00  0.00    +0.020 C 
ATOM      4  C   UNL     1      34.741 -23.345 -15.199  0.00  0.00    +0.016 C 
ATOM      5  C   UNL     1      36.054 -22.867 -15.670  0.00  0.00    +0.107 C 
ATOM      6  C   UNL     1      34.084 -22.247 -18.657  0.00  0.00    -0.000 C 
ATOM      7  C   UNL     1      32.510 -23.540 -16.103  0.00  0.00    +0.052 C 
ATOM      8  C   UNL     1      36.810 -21.871 -17.927  0.00  0.00    +0.002 C 
ATOM      9  C   UNL     1      34.374 -23.874 -13.978  0.00  0.00    +0.001 C 
ATOM     10  C   UNL     1      35.006 -21.703 -19.558  0.00  0.00    -0.000 C 
ATOM     11  C   UNL     1      32.116 -24.079 -14.872  0.00  0.00    -0.021 C 
ATOM     12  C   UNL     1      36.354 -21.518 -19.198  0.00  0.00    +0.000 C 
ATOM     13  C   UNL     1      33.038 -24.244 -13.822  0.00  0.00    -0.004 C 
ENDROOT
BRANCH   5  14
ATOM     14  N   UNL     1      37.134 -22.867 -14.970  0.00  0.00    -0.131 NA
BRANCH  14  15
ATOM     15  O   UNL     1      37.827 -24.059 -15.222  0.00  0.00    -0.236 OA
BRANCH  15  16
ATOM     16  C   UNL     1      37.923 -24.782 -14.004  0.00  0.00    +0.188 C 
BRANCH  16  17
ATOM     17  C   UNL     1      38.968 -25.875 -14.149  0.00  0.00    +0.144 C 
BRANCH  17  19
ATOM     18  O   UNL     1      41.024 -24.627 -14.377  0.00  0.00    -0.250 OA
ATOM     19  C   UNL     1      40.190 -25.372 -14.876  0.00  0.00    +0.316 C 
BRANCH  19  20
ATOM     20  O   UNL     1      40.274 -25.844 -16.144  0.00  0.00    -0.480 OA
ATOM     21  H   UNL     1      40.795 -26.600 -16.329  0.00  0.00    +0.295 HD
ENDBRANCH  19  20
ENDBRANCH  17  19
ENDBRANCH  16  17
ENDBRANCH  15  16
ENDBRANCH  14  15
ENDBRANCH   5  14
TORSDOF 6
ENDMDL
MODEL 2
REMARK VINA RESULT:      -8.9      0.462      3.595
REMARK  Name = 15627868
REMARK  6 active torsions:
REMARK  status: ('A' for Active; 'I' for Inactive)
REMARK    1  A    between atoms: N_1  and  C_6
REMARK    2  A    between atoms: N_1  and  O_15
REMARK    3  A    between atoms: O_15  and  C_16
REMARK    4  A    between atoms: C_16  and  C_17
REMARK    5  A    between atoms: C_17  and  C_19
REMARK    6  A    between atoms: C_19  and  O_20
REMARK                            x       y       z     vdW  Elec       q    Type
REMARK                         _______ _______ _______ _____ _____    ______ ____
ROOT
ATOM      1  C   UNL     1      33.455 -23.149 -16.511  0.00  0.00    -0.002 C 
ATOM      2  C   UNL     1      34.096 -22.536 -17.656  0.00  0.00    -0.016 C 
ATOM      3  C   UNL     1      34.422 -23.408 -15.524  0.00  0.00    +0.020 C 
ATOM      4  C   UNL     1      35.473 -22.403 -17.398  0.00  0.00    +0.016 C 
ATOM      5  C   UNL     1      35.716 -22.946 -16.050  0.00  0.00    +0.107 C 
ATOM      6  C   UNL     1      32.132 -23.486 -16.279  0.00  0.00    -0.000 C 
ATOM      7  C   UNL     1      33.576 -22.103 -18.862  0.00  0.00    +0.052 C 
ATOM      8  C   UNL     1      34.123 -23.991 -14.309  0.00  0.00    +0.002 C 
ATOM      9  C   UNL     1      36.355 -21.849 -18.305  0.00  0.00    +0.001 C 
ATOM     10  C   UNL     1      31.805 -24.079 -15.054  0.00  0.00    -0.000 C 
ATOM     11  C   UNL     1      34.453 -21.538 -19.797  0.00  0.00    -0.021 C 
ATOM     12  C   UNL     1      32.789 -24.329 -14.080  0.00  0.00    +0.000 C 
ATOM     13  C   UNL     1      35.827 -21.413 -19.521  0.00  0.00    -0.004 C 
ENDROOT
BRANCH   5  14
ATOM     14  N   UNL     1      36.863 -22.995 -15.468  0.00  0.00    -0.131 NA
BRANCH  14  15
ATOM     15  O   UNL     1      37.328 -24.317 -15.512  0.00  0.00    -0.236 OA
BRANCH  15  16
ATOM     16  C   UNL     1      37.779 -24.671 -14.213  0.00  0.00    +0.188 C 
BRANCH  16  17
ATOM     17  C   UNL     1      38.744 -25.839 -14.317  0.00  0.00    +0.144 C 
BRANCH  17  19
ATOM     18  O   UNL     1      40.900 -24.749 -14.277  0.00  0.00    -0.250 OA
ATOM     19  C   UNL     1      40.070 -25.405 -14.892  0.00  0.00    +0.316 C 
BRANCH  19  20
ATOM     20  O   UNL     1      40.250 -25.832 -16.167  0.00  0.00    -0.480 OA
ATOM     21  H   UNL     1      40.450 -26.731 -16.336  0.00  0.00    +0.295 HD
ENDBRANCH  19  20
ENDBRANCH  17  19
ENDBRANCH  16  17
ENDBRANCH  15  16
ENDBRANCH  14  15
ENDBRANCH   5  14
TORSDOF 6
ENDMDL
MODEL 3
REMARK VINA RESULT:      -8.9      4.023      6.367
REMARK  Name = 15627868
REMARK  6 active torsions:
REMARK  status: ('A' for Active; 'I' for Inactive)
REMARK    1  A    between atoms: N_1  and  C_6
REMARK    2  A    between atoms: N_1  and  O_15
REMARK    3  A    between atoms: O_15  and  C_16
REMARK    4  A    between atoms: C_16  and  C_17
REMARK    5  A    between atoms: C_17  and  C_19
REMARK    6  A    between atoms: C_19  and  O_20
REMARK                            x       y       z     vdW  Elec       q    Type
REMARK                         _______ _______ _______ _____ _____    ______ ____
ROOT
ATOM      1  C   UNL     1      35.343 -22.598 -16.799  0.00  0.00    -0.002 C 
ATOM      2  C   UNL     1      35.309 -23.078 -15.434  0.00  0.00    -0.016 C 
ATOM      3  C   UNL     1      34.087 -22.808 -17.394  0.00  0.00    +0.020 C 
ATOM      4  C   UNL     1      34.030 -23.594 -15.156  0.00  0.00    +0.016 C 
ATOM      5  C   UNL     1      33.226 -23.438 -16.381  0.00  0.00    +0.107 C 
ATOM      6  C   UNL     1      36.359 -22.011 -17.535  0.00  0.00    -0.000 C 
ATOM      7  C   UNL     1      36.286 -23.093 -14.453  0.00  0.00    +0.052 C 
ATOM      8  C   UNL     1      33.800 -22.455 -18.698  0.00  0.00    +0.002 C 
ATOM      9  C   UNL     1      33.687 -24.128 -13.930  0.00  0.00    +0.001 C 
ATOM     10  C   UNL     1      36.093 -21.645 -18.859  0.00  0.00    -0.000 C 
ATOM     11  C   UNL     1      35.959 -23.630 -13.202  0.00  0.00    -0.021 C 
ATOM     12  C   UNL     1      34.827 -21.865 -19.434  0.00  0.00    +0.000 C 
ATOM     13  C   UNL     1      34.673 -24.142 -12.944  0.00  0.00    -0.004 C 
ENDROOT
BRANCH   5  14
ATOM     14  N   UNL     1      31.997 -23.798 -16.510  0.00  0.00    -0.131 NA
BRANCH  14  15
ATOM     15  O   UNL     1      31.184 -22.665 -16.371  0.00  0.00    -0.236 OA
BRANCH  15  16
ATOM     16  C   UNL     1      30.262 -22.906 -15.319  0.00  0.00    +0.188 C 
BRANCH  16  17
ATOM     17  C   UNL     1      29.216 -23.902 -15.787  0.00  0.00    +0.144 C 
BRANCH  17  19
ATOM     18  O   UNL     1      27.662 -24.006 -17.635  0.00  0.00    -0.250 OA
ATOM     19  C   UNL     1      28.378 -23.332 -16.905  0.00  0.00    +0.316 C 
BRANCH  19  20
ATOM     20  O   UNL     1      28.494 -21.985 -17.009  0.00  0.00    -0.480 OA
ATOM     21  H   UNL     1      28.471 -21.452 -16.239  0.00  0.00    +0.295 HD
ENDBRANCH  19  20
ENDBRANCH  17  19
ENDBRANCH  16  17
ENDBRANCH  15  16
ENDBRANCH  14  15
ENDBRANCH   5  14
TORSDOF 6
ENDMDL
MODEL 4
REMARK VINA RESULT:      -8.8      4.016      7.178
REMARK  Name = 15627868
REMARK  6 active torsions:
REMARK  status: ('A' for Active; 'I' for Inactive)
REMARK    1  A    between atoms: N_1  and  C_6
REMARK    2  A    between atoms: N_1  and  O_15
REMARK    3  A    between atoms: O_15  and  C_16
REMARK    4  A    between atoms: C_16  and  C_17
REMARK    5  A    between atoms: C_17  and  C_19
REMARK    6  A    between atoms: C_19  and  O_20
REMARK                            x       y       z     vdW  Elec       q    Type
REMARK                         _______ _______ _______ _____ _____    ______ ____
ROOT
ATOM      1  C   UNL     1      35.376 -23.083 -15.532  0.00  0.00    -0.002 C 
ATOM      2  C   UNL     1      35.336 -22.595 -16.895  0.00  0.00    -0.016 C 
ATOM      3  C   UNL     1      34.105 -23.567 -15.177  0.00  0.00    +0.020 C 
ATOM      4  C   UNL     1      34.038 -22.768 -17.410  0.00  0.00    +0.016 C 
ATOM      5  C   UNL     1      33.229 -23.385 -16.345  0.00  0.00    +0.107 C 
ATOM      6  C   UNL     1      36.409 -23.132 -14.611  0.00  0.00    -0.000 C 
ATOM      7  C   UNL     1      36.321 -22.030 -17.685  0.00  0.00    +0.052 C 
ATOM      8  C   UNL     1      33.819 -24.102 -13.937  0.00  0.00    +0.002 C 
ATOM      9  C   UNL     1      33.685 -22.397 -18.693  0.00  0.00    +0.001 C 
ATOM     10  C   UNL     1      36.144 -23.670 -13.346  0.00  0.00    -0.000 C 
ATOM     11  C   UNL     1      35.985 -21.646 -18.989  0.00  0.00    -0.021 C 
ATOM     12  C   UNL     1      34.863 -24.149 -13.013  0.00  0.00    +0.000 C 
ATOM     13  C   UNL     1      34.681 -21.828 -19.486  0.00  0.00    -0.004 C 
ENDROOT
BRANCH   5  14
ATOM     14  N   UNL     1      31.984 -23.695 -16.448  0.00  0.00    -0.131 NA
BRANCH  14  15
ATOM     15  O   UNL     1      31.216 -22.609 -16.006  0.00  0.00    -0.236 OA
BRANCH  15  16
ATOM     16  C   UNL     1      30.133 -23.114 -15.239  0.00  0.00    +0.188 C 
BRANCH  16  17
ATOM     17  C   UNL     1      29.339 -24.099 -16.080  0.00  0.00    +0.144 C 
BRANCH  17  19
ATOM     18  O   UNL     1      27.516 -23.951 -17.658  0.00  0.00    -0.250 OA
ATOM     19  C   UNL     1      28.377 -23.386 -16.998  0.00  0.00    +0.316 C 
BRANCH  19  20
ATOM     20  O   UNL     1      28.562 -22.043 -17.004  0.00  0.00    -0.480 OA
ATOM     21  H   UNL     1      28.421 -21.554 -17.791  0.00  0.00    +0.295 HD
ENDBRANCH  19  20
ENDBRANCH  17  19
ENDBRANCH  16  17
ENDBRANCH  15  16
ENDBRANCH  14  15
ENDBRANCH   5  14
TORSDOF 6
ENDMDL
MODEL 5
REMARK VINA RESULT:      -8.7      1.817      4.421
REMARK  Name = 15627868
REMARK  6 active torsions:
REMARK  status: ('A' for Active; 'I' for Inactive)
REMARK    1  A    between atoms: N_1  and  C_6
REMARK    2  A    between atoms: N_1  and  O_15
REMARK    3  A    between atoms: O_15  and  C_16
REMARK    4  A    between atoms: C_16  and  C_17
REMARK    5  A    between atoms: C_17  and  C_19
REMARK    6  A    between atoms: C_19  and  O_20
REMARK                            x       y       z     vdW  Elec       q    Type
REMARK                         _______ _______ _______ _____ _____    ______ ____
ROOT
ATOM      1  C   UNL     1      33.174 -23.206 -16.424  0.00  0.00    -0.002 C 
ATOM      2  C   UNL     1      34.059 -22.659 -17.431  0.00  0.00    -0.016 C 
ATOM      3  C   UNL     1      33.903 -23.435 -15.244  0.00  0.00    +0.020 C 
ATOM      4  C   UNL     1      35.354 -22.539 -16.893  0.00  0.00    +0.016 C 
ATOM      5  C   UNL     1      35.291 -23.022 -15.503  0.00  0.00    +0.107 C 
ATOM      6  C   UNL     1      31.823 -23.508 -16.464  0.00  0.00    -0.000 C 
ATOM      7  C   UNL     1      33.818 -22.275 -18.738  0.00  0.00    +0.052 C 
ATOM      8  C   UNL     1      33.339 -23.954 -14.096  0.00  0.00    +0.002 C 
ATOM      9  C   UNL     1      36.423 -22.045 -17.615  0.00  0.00    +0.001 C 
ATOM     10  C   UNL     1      31.228 -24.036 -15.312  0.00  0.00    -0.000 C 
ATOM     11  C   UNL     1      34.888 -21.772 -19.489  0.00  0.00    -0.021 C 
ATOM     12  C   UNL     1      31.977 -24.256 -14.141  0.00  0.00    +0.000 C 
ATOM     13  C   UNL     1      36.175 -21.658 -18.933  0.00  0.00    -0.004 C 
ENDROOT
BRANCH   5  14
ATOM     14  N   UNL     1      36.288 -23.064 -14.689  0.00  0.00    -0.131 NA
BRANCH  14  15
ATOM     15  O   UNL     1      36.694 -24.398 -14.551  0.00  0.00    -0.236 OA
BRANCH  15  16
ATOM     16  C   UNL     1      37.547 -24.487 -13.419  0.00  0.00    +0.188 C 
BRANCH  16  17
ATOM     17  C   UNL     1      36.899 -25.374 -12.370  0.00  0.00    +0.144 C 
BRANCH  17  19
ATOM     18  O   UNL     1      35.298 -25.079 -10.584  0.00  0.00    -0.250 OA
ATOM     19  C   UNL     1      35.926 -24.597 -11.519  0.00  0.00    +0.316 C 
BRANCH  19  20
ATOM     20  O   UNL     1      35.827 -23.298 -11.894  0.00  0.00    -0.480 OA
ATOM     21  H   UNL     1      36.357 -22.970 -12.594  0.00  0.00    +0.295 HD
ENDBRANCH  19  20
ENDBRANCH  17  19
ENDBRANCH  16  17
ENDBRANCH  15  16
ENDBRANCH  14  15
ENDBRANCH   5  14
TORSDOF 6
ENDMDL
MODEL 6
REMARK VINA RESULT:      -8.6      1.937      2.624
REMARK  Name = 15627868
REMARK  6 active torsions:
REMARK  status: ('A' for Active; 'I' for Inactive)
REMARK    1  A    between atoms: N_1  and  C_6
REMARK    2  A    between atoms: N_1  and  O_15
REMARK    3  A    between atoms: O_15  and  C_16
REMARK    4  A    between atoms: C_16  and  C_17
REMARK    5  A    between atoms: C_17  and  C_19
REMARK    6  A    between atoms: C_19  and  O_20
REMARK                            x       y       z     vdW  Elec       q    Type
REMARK                         _______ _______ _______ _____ _____    ______ ____
ROOT
ATOM      1  C   UNL     1      34.243 -22.648 -17.390  0.00  0.00    -0.002 C 
ATOM      2  C   UNL     1      33.291 -23.168 -16.431  0.00  0.00    -0.016 C 
ATOM      3  C   UNL     1      35.501 -22.528 -16.773  0.00  0.00    +0.020 C 
ATOM      4  C   UNL     1      33.942 -23.381 -15.201  0.00  0.00    +0.016 C 
ATOM      5  C   UNL     1      35.349 -22.985 -15.383  0.00  0.00    +0.107 C 
ATOM      6  C   UNL     1      34.094 -22.284 -18.717  0.00  0.00    -0.000 C 
ATOM      7  C   UNL     1      31.944 -23.457 -16.556  0.00  0.00    +0.052 C 
ATOM      8  C   UNL     1      36.622 -22.058 -17.428  0.00  0.00    +0.002 C 
ATOM      9  C   UNL     1      33.294 -23.875 -14.086  0.00  0.00    +0.001 C 
ATOM     10  C   UNL     1      35.216 -21.805 -19.403  0.00  0.00    -0.000 C 
ATOM     11  C   UNL     1      31.268 -23.959 -15.437  0.00  0.00    -0.021 C 
ATOM     12  C   UNL     1      36.466 -21.693 -18.766  0.00  0.00    +0.000 C 
ATOM     13  C   UNL     1      31.936 -24.165 -14.216  0.00  0.00    -0.004 C 
ENDROOT
BRANCH   5  14
ATOM     14  N   UNL     1      36.256 -23.040 -14.471  0.00  0.00    -0.131 NA
BRANCH  14  15
ATOM     15  O   UNL     1      36.855 -24.306 -14.515  0.00  0.00    -0.236 OA
BRANCH  15  16
ATOM     16  C   UNL     1      37.511 -24.529 -13.276  0.00  0.00    +0.188 C 
BRANCH  16  17
ATOM     17  C   UNL     1      36.472 -24.713 -12.184  0.00  0.00    +0.144 C 
BRANCH  17  19
ATOM     18  O   UNL     1      37.360 -22.731 -11.126  0.00  0.00    -0.250 OA
ATOM     19  C   UNL     1      36.707 -23.762 -11.036  0.00  0.00    +0.316 C 
BRANCH  19  20
ATOM     20  O   UNL     1      36.105 -24.168  -9.891  0.00  0.00    -0.480 OA
ATOM     21  H   UNL     1      36.164 -23.641  -9.119  0.00  0.00    +0.295 HD
ENDBRANCH  19  20
ENDBRANCH  17  19
ENDBRANCH  16  17
ENDBRANCH  15  16
ENDBRANCH  14  15
ENDBRANCH   5  14
TORSDOF 6
ENDMDL
MODEL 7
REMARK VINA RESULT:      -8.6      3.079      5.996
REMARK  Name = 15627868
REMARK  6 active torsions:
REMARK  status: ('A' for Active; 'I' for Inactive)
REMARK    1  A    between atoms: N_1  and  C_6
REMARK    2  A    between atoms: N_1  and  O_15
REMARK    3  A    between atoms: O_15  and  C_16
REMARK    4  A    between atoms: C_16  and  C_17
REMARK    5  A    between atoms: C_17  and  C_19
REMARK    6  A    between atoms: C_19  and  O_20
REMARK                            x       y       z     vdW  Elec       q    Type
REMARK                         _______ _______ _______ _____ _____    ______ ____
ROOT
ATOM      1  C   UNL     1      32.734 -23.474 -14.665  0.00  0.00    -0.002 C 
ATOM      2  C   UNL     1      34.110 -23.749 -14.309  0.00  0.00    -0.016 C 
ATOM      3  C   UNL     1      32.646 -23.280 -16.054  0.00  0.00    +0.020 C 
ATOM      4  C   UNL     1      34.902 -23.730 -15.472  0.00  0.00    +0.016 C 
ATOM      5  C   UNL     1      34.003 -23.436 -16.602  0.00  0.00    +0.107 C 
ATOM      6  C   UNL     1      31.591 -23.385 -13.888  0.00  0.00    -0.000 C 
ATOM      7  C   UNL     1      34.696 -24.005 -13.081  0.00  0.00    +0.052 C 
ATOM      8  C   UNL     1      31.461 -22.999 -16.705  0.00  0.00    +0.002 C 
ATOM      9  C   UNL     1      36.264 -23.960 -15.456  0.00  0.00    +0.001 C 
ATOM     10  C   UNL     1      30.377 -23.101 -14.524  0.00  0.00    -0.000 C 
ATOM     11  C   UNL     1      36.076 -24.239 -13.042  0.00  0.00    -0.021 C 
ATOM     12  C   UNL     1      30.313 -22.910 -15.918  0.00  0.00    +0.000 C 
ATOM     13  C   UNL     1      36.850 -24.217 -14.217  0.00  0.00    -0.004 C 
ENDROOT
BRANCH   5  14
ATOM     14  N   UNL     1      34.370 -23.338 -17.832  0.00  0.00    -0.131 NA
BRANCH  14  15
ATOM     15  O   UNL     1      34.973 -22.087 -18.019  0.00  0.00    -0.236 OA
BRANCH  15  16
ATOM     16  C   UNL     1      35.348 -21.975 -19.383  0.00  0.00    +0.188 C 
BRANCH  16  17
ATOM     17  C   UNL     1      34.829 -20.661 -19.941  0.00  0.00    +0.144 C 
BRANCH  17  19
ATOM     18  O   UNL     1      32.721 -19.850 -20.801  0.00  0.00    -0.250 OA
ATOM     19  C   UNL     1      33.352 -20.737 -20.240  0.00  0.00    +0.316 C 
BRANCH  19  20
ATOM     20  O   UNL     1      32.797 -21.904 -19.829  0.00  0.00    -0.480 OA
ATOM     21  H   UNL     1      32.620 -22.583 -20.450  0.00  0.00    +0.295 HD
ENDBRANCH  19  20
ENDBRANCH  17  19
ENDBRANCH  16  17
ENDBRANCH  15  16
ENDBRANCH  14  15
ENDBRANCH   5  14
TORSDOF 6
ENDMDL
MODEL 8
REMARK VINA RESULT:      -8.5      3.624      6.117
REMARK  Name = 15627868
REMARK  6 active torsions:
REMARK  status: ('A' for Active; 'I' for Inactive)
REMARK    1  A    between atoms: N_1  and  C_6
REMARK    2  A    between atoms: N_1  and  O_15
REMARK    3  A    between atoms: O_15  and  C_16
REMARK    4  A    between atoms: C_16  and  C_17
REMARK    5  A    between atoms: C_17  and  C_19
REMARK    6  A    between atoms: C_19  and  O_20
REMARK                            x       y       z     vdW  Elec       q    Type
REMARK                         _______ _______ _______ _____ _____    ______ ____
ROOT
ATOM      1  C   UNL     1      36.095 -22.658 -16.547  0.00  0.00    -0.002 C 
ATOM      2  C   UNL     1      35.778 -22.055 -17.824  0.00  0.00    -0.016 C 
ATOM      3  C   UNL     1      34.959 -23.321 -16.054  0.00  0.00    +0.020 C 
ATOM      4  C   UNL     1      34.437 -22.334 -18.147  0.00  0.00    +0.016 C 
ATOM      5  C   UNL     1      33.885 -23.139 -17.043  0.00  0.00    +0.107 C 
ATOM      6  C   UNL     1      37.267 -22.667 -15.809  0.00  0.00    -0.000 C 
ATOM      7  C   UNL     1      36.553 -21.306 -18.692  0.00  0.00    +0.052 C 
ATOM      8  C   UNL     1      34.941 -23.998 -14.850  0.00  0.00    +0.002 C 
ATOM      9  C   UNL     1      33.837 -21.892 -19.310  0.00  0.00    +0.001 C 
ATOM     10  C   UNL     1      37.275 -23.346 -14.585  0.00  0.00    -0.000 C 
ATOM     11  C   UNL     1      35.965 -20.847 -19.877  0.00  0.00    -0.021 C 
ATOM     12  C   UNL     1      36.124 -24.004 -14.111  0.00  0.00    +0.000 C 
ATOM     13  C   UNL     1      34.622 -21.137 -20.182  0.00  0.00    -0.004 C 
ENDROOT
BRANCH   5  14
ATOM     14  N   UNL     1      32.679 -23.586 -16.984  0.00  0.00    -0.131 NA
BRANCH  14  15
ATOM     15  O   UNL     1      31.945 -22.773 -16.108  0.00  0.00    -0.236 OA
BRANCH  15  16
ATOM     16  C   UNL     1      30.697 -23.402 -15.862  0.00  0.00    +0.188 C 
BRANCH  16  17
ATOM     17  C   UNL     1      30.351 -23.269 -14.389  0.00  0.00    +0.144 C 
BRANCH  17  19
ATOM     18  O   UNL     1      31.630 -25.028 -13.336  0.00  0.00    -0.250 OA
ATOM     19  C   UNL     1      31.445 -23.831 -13.515  0.00  0.00    +0.316 C 
BRANCH  19  20
ATOM     20  O   UNL     1      32.214 -22.864 -12.957  0.00  0.00    -0.480 OA
ATOM     21  H   UNL     1      31.816 -22.088 -12.614  0.00  0.00    +0.295 HD
ENDBRANCH  19  20
ENDBRANCH  17  19
ENDBRANCH  16  17
ENDBRANCH  15  16
ENDBRANCH  14  15
ENDBRANCH   5  14
TORSDOF 6
ENDMDL
MODEL 9
REMARK VINA RESULT:      -8.4      4.008      6.690
REMARK  Name = 15627868
REMARK  6 active torsions:
REMARK  status: ('A' for Active; 'I' for Inactive)
REMARK    1  A    between atoms: N_1  and  C_6
REMARK    2  A    between atoms: N_1  and  O_15
REMARK    3  A    between atoms: O_15  and  C_16
REMARK    4  A    between atoms: C_16  and  C_17
REMARK    5  A    between atoms: C_17  and  C_19
REMARK    6  A    between atoms: C_19  and  O_20
REMARK                            x       y       z     vdW  Elec       q    Type
REMARK                         _______ _______ _______ _____ _____    ______ ____
ROOT
ATOM      1  C   UNL     1      33.539 -23.260 -15.733  0.00  0.00    -0.002 C 
ATOM      2  C   UNL     1      34.849 -22.837 -16.182  0.00  0.00    -0.016 C 
ATOM      3  C   UNL     1      32.626 -23.140 -16.795  0.00  0.00    +0.020 C 
ATOM      4  C   UNL     1      34.772 -22.446 -17.531  0.00  0.00    +0.016 C 
ATOM      5  C   UNL     1      33.372 -22.627 -17.954  0.00  0.00    +0.107 C 
ATOM      6  C   UNL     1      33.103 -23.727 -14.504  0.00  0.00    -0.000 C 
ATOM      7  C   UNL     1      36.059 -22.771 -15.514  0.00  0.00    +0.052 C 
ATOM      8  C   UNL     1      31.289 -23.468 -16.683  0.00  0.00    +0.002 C 
ATOM      9  C   UNL     1      35.864 -21.991 -18.244  0.00  0.00    +0.001 C 
ATOM     10  C   UNL     1      31.752 -24.066 -14.366  0.00  0.00    -0.000 C 
ATOM     11  C   UNL     1      37.180 -22.313 -16.218  0.00  0.00    -0.021 C 
ATOM     12  C   UNL     1      30.855 -23.938 -15.443  0.00  0.00    +0.000 C 
ATOM     13  C   UNL     1      37.082 -21.927 -17.567  0.00  0.00    -0.004 C 
ENDROOT
BRANCH   5  14
ATOM     14  N   UNL     1      32.917 -22.372 -19.131  0.00  0.00    -0.131 NA
BRANCH  14  15
ATOM     15  O   UNL     1      32.695 -20.991 -19.234  0.00  0.00    -0.236 OA
BRANCH  15  16
ATOM     16  C   UNL     1      32.790 -20.628 -20.603  0.00  0.00    +0.188 C 
BRANCH  16  17
ATOM     17  C   UNL     1      33.486 -19.283 -20.718  0.00  0.00    +0.144 C 
BRANCH  17  19
ATOM     18  O   UNL     1      34.989 -19.535 -22.593  0.00  0.00    -0.250 OA
ATOM     19  C   UNL     1      34.832 -19.417 -21.385  0.00  0.00    +0.316 C 
BRANCH  19  20
ATOM     20  O   UNL     1      35.858 -19.380 -20.499  0.00  0.00    -0.480 OA
ATOM     21  H   UNL     1      35.784 -18.870 -19.717  0.00  0.00    +0.295 HD
ENDBRANCH  19  20
ENDBRANCH  17  19
ENDBRANCH  16  17
ENDBRANCH  15  16
ENDBRANCH  14  15
ENDBRANCH   5  14
TORSDOF 6
ENDMDL
