MODEL 1
REMARK VINA RESULT:      -3.7      0.000      0.000
REMARK  Name = 13559281
REMARK  4 active torsions:
REMARK  status: ('A' for Active; 'I' for Inactive)
REMARK    1  A    between atoms: C_4  and  C_30
REMARK    2  A    between atoms: C_4  and  O_32
REMARK    3  A    between atoms: C_9  and  C_20
REMARK    4  A    between atoms: C_25  and  N_26
REMARK                            x       y       z     vdW  Elec       q    Type
REMARK                         _______ _______ _______ _____ _____    ______ ____
ROOT
ATOM      1  O   UNL     1      41.213 -26.238 -13.734  0.00  0.00    -0.291 OA
ATOM      2  C   UNL     1      33.479 -23.487 -14.782  0.00  0.00    +0.030 C 
ATOM      3  C   UNL     1      34.004 -24.900 -14.453  0.00  0.00    +0.006 C 
ATOM      4  C   UNL     1      32.290 -23.413 -13.783  0.00  0.00    +0.139 C 
ATOM      5  C   UNL     1      35.157 -25.349 -15.358  0.00  0.00    +0.019 C 
ATOM      6  C   UNL     1      34.643 -22.513 -14.535  0.00  0.00    +0.011 C 
ATOM      7  C   UNL     1      32.736 -25.753 -14.428  0.00  0.00    +0.003 C 
ATOM      8  C   UNL     1      31.659 -24.823 -13.839  0.00  0.00    +0.034 C 
ATOM      9  C   UNL     1      35.954 -22.855 -15.309  0.00  0.00    +0.040 C 
ATOM     10  C   UNL     1      36.330 -24.351 -15.261  0.00  0.00    -0.045 C 
ATOM     11  C   UNL     1      32.946 -23.341 -16.231  0.00  0.00    +0.003 C 
ATOM     12  C   UNL     1      35.558 -26.798 -15.024  0.00  0.00    +0.009 C 
ATOM     13  C   UNL     1      37.615 -24.784 -15.162  0.00  0.00    -0.033 C 
ATOM     14  C   UNL     1      36.888 -27.151 -15.669  0.00  0.00    +0.026 C 
ATOM     15  C   UNL     1      37.947 -26.215 -15.159  0.00  0.00    -0.024 C 
ATOM     16  C   UNL     1      38.845 -23.897 -15.129  0.00  0.00    +0.034 C 
ATOM     17  C   UNL     1      39.125 -26.690 -14.721  0.00  0.00    +0.033 C 
ATOM     18  C   UNL     1      39.805 -24.318 -14.024  0.00  0.00    +0.074 C 
ATOM     19  C   UNL     1      40.149 -25.783 -14.147  0.00  0.00    +0.173 C 
ENDROOT
BRANCH   9  20
ATOM     20  C   UNL     1      36.035 -22.207 -16.694  0.00  0.00    -0.019 C 
ATOM     21  C   UNL     1      35.096 -22.536 -17.667  0.00  0.00    -0.003 C 
ATOM     22  C   UNL     1      37.047 -21.292 -16.971  0.00  0.00    -0.003 C 
ATOM     23  C   UNL     1      35.168 -21.945 -18.928  0.00  0.00    +0.014 C 
ATOM     24  C   UNL     1      37.120 -20.702 -18.233  0.00  0.00    +0.014 C 
ATOM     25  C   UNL     1      36.180 -21.028 -19.211  0.00  0.00    +0.048 C 
BRANCH  25  26
ATOM     26  N   UNL     1      36.255 -20.430 -20.486  0.00  0.00    -0.304 N 
ATOM     27  C   UNL     1      37.466 -19.759 -20.913  0.00  0.00    +0.112 C 
ATOM     28  C   UNL     1      35.115 -20.468 -21.382  0.00  0.00    +0.112 C 
ENDBRANCH  25  26
ENDBRANCH   9  20
BRANCH   4  30
ATOM     29  O   UNL     1      31.533 -21.150 -13.844  0.00  0.00    -0.294 OA
ATOM     30  C   UNL     1      31.284 -22.335 -14.057  0.00  0.00    +0.175 C 
ATOM     31  C   UNL     1      29.954 -22.775 -14.609  0.00  0.00    +0.075 C 
ENDBRANCH   4  30
BRANCH   4  32
ATOM     32  O   UNL     1      32.708 -23.179 -12.442  0.00  0.00    -0.380 OA
ATOM     33  H   UNL     1      32.187 -23.733 -11.839  0.00  0.00    +0.211 HD
ENDBRANCH   4  32
TORSDOF 4
ENDMDL
MODEL 2
REMARK VINA RESULT:      -1.8     17.281     22.439
REMARK  Name = 13559281
REMARK  4 active torsions:
REMARK  status: ('A' for Active; 'I' for Inactive)
REMARK    1  A    between atoms: C_4  and  C_30
REMARK    2  A    between atoms: C_4  and  O_32
REMARK    3  A    between atoms: C_9  and  C_20
REMARK    4  A    between atoms: C_25  and  N_26
REMARK                            x       y       z     vdW  Elec       q    Type
REMARK                         _______ _______ _______ _____ _____    ______ ____
ROOT
ATOM      1  O   UNL     1      28.944  -1.786 -30.000  0.00  0.00    -0.291 OA
ATOM      2  C   UNL     1      33.361  -6.338 -24.685  0.00  0.00    +0.030 C 
ATOM      3  C   UNL     1      32.121  -5.449 -24.454  0.00  0.00    +0.006 C 
ATOM      4  C   UNL     1      32.955  -7.576 -23.836  0.00  0.00    +0.139 C 
ATOM      5  C   UNL     1      32.238  -4.061 -25.093  0.00  0.00    +0.019 C 
ATOM      6  C   UNL     1      33.474  -6.555 -26.203  0.00  0.00    +0.011 C 
ATOM      7  C   UNL     1      31.905  -5.529 -22.943  0.00  0.00    +0.003 C 
ATOM      8  C   UNL     1      32.300  -6.971 -22.574  0.00  0.00    +0.034 C 
ATOM      9  C   UNL     1      33.517  -5.244 -27.048  0.00  0.00    +0.040 C 
ATOM     10  C   UNL     1      32.476  -4.191 -26.612  0.00  0.00    -0.045 C 
ATOM     11  C   UNL     1      34.675  -5.735 -24.124  0.00  0.00    +0.003 C 
ATOM     12  C   UNL     1      31.004  -3.210 -24.739  0.00  0.00    +0.009 C 
ATOM     13  C   UNL     1      31.813  -3.401 -27.498  0.00  0.00    -0.033 C 
ATOM     14  C   UNL     1      30.939  -1.967 -25.610  0.00  0.00    +0.026 C 
ATOM     15  C   UNL     1      30.857  -2.379 -27.053  0.00  0.00    -0.024 C 
ATOM     16  C   UNL     1      32.016  -3.398 -29.001  0.00  0.00    +0.034 C 
ATOM     17  C   UNL     1      29.939  -1.832 -27.868  0.00  0.00    +0.033 C 
ATOM     18  C   UNL     1      30.686  -3.414 -29.743  0.00  0.00    +0.074 C 
ATOM     19  C   UNL     1      29.801  -2.285 -29.274  0.00  0.00    +0.173 C 
ENDROOT
BRANCH   9  20
ATOM     20  C   UNL     1      34.933  -4.706 -27.273  0.00  0.00    -0.019 C 
ATOM     21  C   UNL     1      35.996  -5.593 -27.411  0.00  0.00    -0.003 C 
ATOM     22  C   UNL     1      35.147  -3.332 -27.337  0.00  0.00    -0.003 C 
ATOM     23  C   UNL     1      37.285  -5.103 -27.617  0.00  0.00    +0.014 C 
ATOM     24  C   UNL     1      36.437  -2.842 -27.542  0.00  0.00    +0.014 C 
ATOM     25  C   UNL     1      37.506  -3.727 -27.683  0.00  0.00    +0.048 C 
BRANCH  25  26
ATOM     26  N   UNL     1      38.809  -3.230 -27.890  0.00  0.00    -0.304 N 
ATOM     27  C   UNL     1      39.446  -2.399 -26.889  0.00  0.00    +0.112 C 
ATOM     28  C   UNL     1      39.524  -3.536 -29.114  0.00  0.00    +0.112 C 
ENDBRANCH  25  26
ENDBRANCH   9  20
BRANCH   4  30
ATOM     29  O   UNL     1      34.552  -8.563 -22.363  0.00  0.00    -0.294 OA
ATOM     30  C   UNL     1      34.072  -8.517 -23.494  0.00  0.00    +0.175 C 
ATOM     31  C   UNL     1      34.575  -9.403 -24.602  0.00  0.00    +0.075 C 
ENDBRANCH   4  30
BRANCH   4  32
ATOM     32  O   UNL     1      31.983  -8.393 -24.480  0.00  0.00    -0.380 OA
ATOM     33  H   UNL     1      32.273  -9.319 -24.458  0.00  0.00    +0.211 HD
ENDBRANCH   4  32
TORSDOF 4
ENDMDL
