MODEL 1
REMARK VINA RESULT:      -8.6      0.000      0.000
REMARK  Name = 2871
REMARK  6 active torsions:
REMARK  status: ('A' for Active; 'I' for Inactive)
REMARK    1  A    between atoms: C_7  and  O_14
REMARK    2  A    between atoms: O_14  and  P_16
REMARK    3  A    between atoms: P_16  and  O_17
REMARK    4  A    between atoms: P_16  and  O_20
REMARK    5  A    between atoms: O_17  and  C_18
REMARK    6  A    between atoms: O_20  and  C_21
REMARK                            x       y       z     vdW  Elec       q    Type
REMARK                         _______ _______ _______ _____ _____    ______ ____
ROOT
ATOM      1 CL   UNL     1      35.568 -18.579 -23.641  0.00  0.00    -0.076 Cl
ATOM      2  O   UNL     1      33.718 -15.219 -24.726  0.00  0.00    -0.420 OA
ATOM      3  O   UNL     1      34.715 -16.912 -25.870  0.00  0.00    -0.244 OA
ATOM      4  C   UNL     1      33.649 -15.258 -22.289  0.00  0.00    +0.032 A 
ATOM      5  C   UNL     1      33.345 -14.640 -23.500  0.00  0.00    +0.151 A 
ATOM      6  C   UNL     1      34.375 -16.545 -22.305  0.00  0.00    -0.002 A 
ATOM      7  C   UNL     1      32.265 -12.796 -22.397  0.00  0.00    +0.149 C 
ATOM      8  C   UNL     1      32.662 -13.423 -23.573  0.00  0.00    +0.075 C 
ATOM      9  C   UNL     1      33.238 -14.606 -21.116  0.00  0.00    +0.006 C 
ATOM     10  C   UNL     1      32.552 -13.387 -21.171  0.00  0.00    +0.038 C 
ATOM     11  C   UNL     1      34.718 -17.074 -23.495  0.00  0.00    +0.130 A 
ATOM     12  C   UNL     1      34.682 -17.182 -20.971  0.00  0.00    +0.032 C 
ATOM     13  C   UNL     1      34.399 -16.424 -24.790  0.00  0.00    +0.356 A 
ENDROOT
BRANCH   7  14
ATOM     14  O   UNL     1      31.600 -11.611 -22.446  0.00  0.00    -0.425 OA
BRANCH  14  16
ATOM     15  S   UNL     1      33.785  -9.989 -23.829  0.00  0.00    +0.036 S 
ATOM     16  P   UNL     1      32.256 -10.133 -22.626  0.00  0.00    +0.363 P 
BRANCH  16  17
ATOM     17  O   UNL     1      32.528  -9.713 -21.076  0.00  0.00    -0.288 OA
BRANCH  17  18
ATOM     18  C   UNL     1      31.441  -9.619 -20.170  0.00  0.00    +0.152 C 
ATOM     19  C   UNL     1      31.656 -10.602 -19.039  0.00  0.00    +0.035 C 
ENDBRANCH  17  18
ENDBRANCH  16  17
BRANCH  16  20
ATOM     20  O   UNL     1      30.950  -9.224 -22.967  0.00  0.00    -0.288 OA
BRANCH  20  21
ATOM     21  C   UNL     1      31.106  -8.003 -23.669  0.00  0.00    +0.152 C 
ATOM     22  C   UNL     1      31.106  -6.860 -22.677  0.00  0.00    +0.035 C 
ENDBRANCH  20  21
ENDBRANCH  16  20
ENDBRANCH  14  16
ENDBRANCH   7  14
TORSDOF 6
ENDMDL
MODEL 2
REMARK VINA RESULT:      -8.5      1.481      2.261
REMARK  Name = 2871
REMARK  6 active torsions:
REMARK  status: ('A' for Active; 'I' for Inactive)
REMARK    1  A    between atoms: C_7  and  O_14
REMARK    2  A    between atoms: O_14  and  P_16
REMARK    3  A    between atoms: P_16  and  O_17
REMARK    4  A    between atoms: P_16  and  O_20
REMARK    5  A    between atoms: O_17  and  C_18
REMARK    6  A    between atoms: O_20  and  C_21
REMARK                            x       y       z     vdW  Elec       q    Type
REMARK                         _______ _______ _______ _____ _____    ______ ____
ROOT
ATOM      1 CL   UNL     1      35.519 -18.327 -23.565  0.00  0.00    -0.076 Cl
ATOM      2  O   UNL     1      33.669 -15.008 -24.771  0.00  0.00    -0.420 OA
ATOM      3  O   UNL     1      34.664 -16.742 -25.853  0.00  0.00    -0.244 OA
ATOM      4  C   UNL     1      33.603 -14.958 -22.334  0.00  0.00    +0.032 A 
ATOM      5  C   UNL     1      33.298 -14.385 -23.567  0.00  0.00    +0.151 A 
ATOM      6  C   UNL     1      34.327 -16.245 -22.303  0.00  0.00    -0.002 A 
ATOM      7  C   UNL     1      32.220 -12.501 -22.531  0.00  0.00    +0.149 C 
ATOM      8  C   UNL     1      32.616 -13.171 -23.683  0.00  0.00    +0.075 C 
ATOM      9  C   UNL     1      33.193 -14.264 -21.185  0.00  0.00    +0.006 C 
ATOM     10  C   UNL     1      32.508 -13.046 -21.284  0.00  0.00    +0.038 C 
ATOM     11  C   UNL     1      34.669 -16.818 -23.473  0.00  0.00    +0.130 A 
ATOM     12  C   UNL     1      34.636 -16.833 -20.947  0.00  0.00    +0.032 C 
ATOM     13  C   UNL     1      34.350 -16.215 -24.791  0.00  0.00    +0.356 A 
ENDROOT
BRANCH   7  14
ATOM     14  O   UNL     1      31.555 -11.318 -22.623  0.00  0.00    -0.425 OA
BRANCH  14  16
ATOM     15  S   UNL     1      32.107  -9.065 -20.639  0.00  0.00    +0.036 S 
ATOM     16  P   UNL     1      32.185  -9.830 -22.432  0.00  0.00    +0.363 P 
BRANCH  16  17
ATOM     17  O   UNL     1      31.401  -9.000 -23.594  0.00  0.00    -0.288 OA
BRANCH  17  18
ATOM     18  C   UNL     1      30.818  -7.744 -23.292  0.00  0.00    +0.152 C 
ATOM     19  C   UNL     1      31.197  -6.752 -24.370  0.00  0.00    +0.035 C 
ENDBRANCH  17  18
ENDBRANCH  16  17
BRANCH  16  20
ATOM     20  O   UNL     1      33.654  -9.996 -23.110  0.00  0.00    -0.288 OA
BRANCH  20  21
ATOM     21  C   UNL     1      34.129  -9.013 -24.012  0.00  0.00    +0.152 C 
ATOM     22  C   UNL     1      34.656  -7.833 -23.224  0.00  0.00    +0.035 C 
ENDBRANCH  20  21
ENDBRANCH  16  20
ENDBRANCH  14  16
ENDBRANCH   7  14
TORSDOF 6
ENDMDL
MODEL 3
REMARK VINA RESULT:      -8.4      1.465      2.471
REMARK  Name = 2871
REMARK  6 active torsions:
REMARK  status: ('A' for Active; 'I' for Inactive)
REMARK    1  A    between atoms: C_7  and  O_14
REMARK    2  A    between atoms: O_14  and  P_16
REMARK    3  A    between atoms: P_16  and  O_17
REMARK    4  A    between atoms: P_16  and  O_20
REMARK    5  A    between atoms: O_17  and  C_18
REMARK    6  A    between atoms: O_20  and  C_21
REMARK                            x       y       z     vdW  Elec       q    Type
REMARK                         _______ _______ _______ _____ _____    ______ ____
ROOT
ATOM      1 CL   UNL     1      35.656 -18.511 -23.637  0.00  0.00    -0.076 Cl
ATOM      2  O   UNL     1      33.712 -15.211 -24.742  0.00  0.00    -0.420 OA
ATOM      3  O   UNL     1      34.728 -16.899 -25.876  0.00  0.00    -0.244 OA
ATOM      4  C   UNL     1      33.685 -15.213 -22.304  0.00  0.00    +0.032 A 
ATOM      5  C   UNL     1      33.347 -14.622 -23.519  0.00  0.00    +0.151 A 
ATOM      6  C   UNL     1      34.440 -16.484 -22.312  0.00  0.00    -0.002 A 
ATOM      7  C   UNL     1      32.244 -12.785 -22.426  0.00  0.00    +0.149 C 
ATOM      8  C   UNL     1      32.635 -13.421 -23.599  0.00  0.00    +0.075 C 
ATOM      9  C   UNL     1      33.279 -14.552 -21.134  0.00  0.00    +0.006 C 
ATOM     10  C   UNL     1      32.565 -13.349 -21.196  0.00  0.00    +0.038 C 
ATOM     11  C   UNL     1      34.775 -17.023 -23.499  0.00  0.00    +0.130 A 
ATOM     12  C   UNL     1      34.784 -17.092 -20.974  0.00  0.00    +0.032 C 
ATOM     13  C   UNL     1      34.420 -16.401 -24.798  0.00  0.00    +0.356 A 
ENDROOT
BRANCH   7  14
ATOM     14  O   UNL     1      31.551 -11.616 -22.482  0.00  0.00    -0.425 OA
BRANCH  14  16
ATOM     15  S   UNL     1      31.087  -8.707 -23.281  0.00  0.00    +0.036 S 
ATOM     16  P   UNL     1      32.175 -10.113 -22.478  0.00  0.00    +0.363 P 
BRANCH  16  17
ATOM     17  O   UNL     1      33.628 -10.369 -23.167  0.00  0.00    -0.288 OA
BRANCH  17  18
ATOM     18  C   UNL     1      34.205  -9.368 -23.989  0.00  0.00    +0.152 C 
ATOM     19  C   UNL     1      35.148 -10.023 -24.975  0.00  0.00    +0.035 C 
ENDBRANCH  17  18
ENDBRANCH  16  17
BRANCH  16  20
ATOM     20  O   UNL     1      32.601  -9.930 -20.919  0.00  0.00    -0.288 OA
BRANCH  20  21
ATOM     21  C   UNL     1      31.666  -9.409 -19.990  0.00  0.00    +0.152 C 
ATOM     22  C   UNL     1      31.058 -10.554 -19.208  0.00  0.00    +0.035 C 
ENDBRANCH  20  21
ENDBRANCH  16  20
ENDBRANCH  14  16
ENDBRANCH   7  14
TORSDOF 6
ENDMDL
MODEL 4
REMARK VINA RESULT:      -8.3      4.397      8.016
REMARK  Name = 2871
REMARK  6 active torsions:
REMARK  status: ('A' for Active; 'I' for Inactive)
REMARK    1  A    between atoms: C_7  and  O_14
REMARK    2  A    between atoms: O_14  and  P_16
REMARK    3  A    between atoms: P_16  and  O_17
REMARK    4  A    between atoms: P_16  and  O_20
REMARK    5  A    between atoms: O_17  and  C_18
REMARK    6  A    between atoms: O_20  and  C_21
REMARK                            x       y       z     vdW  Elec       q    Type
REMARK                         _______ _______ _______ _____ _____    ______ ____
ROOT
ATOM      1 CL   UNL     1      31.521 -10.404 -22.862  0.00  0.00    -0.076 Cl
ATOM      2  O   UNL     1      32.365 -13.436 -20.416  0.00  0.00    -0.420 OA
ATOM      3  O   UNL     1      31.073 -11.574 -20.234  0.00  0.00    -0.244 OA
ATOM      4  C   UNL     1      33.599 -13.877 -22.471  0.00  0.00    +0.032 A 
ATOM      5  C   UNL     1      33.235 -14.237 -21.176  0.00  0.00    +0.151 A 
ATOM      6  C   UNL     1      33.055 -12.631 -23.048  0.00  0.00    -0.002 A 
ATOM      7  C   UNL     1      34.569 -16.237 -21.253  0.00  0.00    +0.149 C 
ATOM      8  C   UNL     1      33.705 -15.399 -20.557  0.00  0.00    +0.075 C 
ATOM      9  C   UNL     1      34.473 -14.739 -23.154  0.00  0.00    +0.006 C 
ATOM     10  C   UNL     1      34.952 -15.908 -22.550  0.00  0.00    +0.038 C 
ATOM     11  C   UNL     1      32.224 -11.885 -22.295  0.00  0.00    +0.130 A 
ATOM     12  C   UNL     1      33.473 -12.279 -24.455  0.00  0.00    +0.032 C 
ATOM     13  C   UNL     1      31.831 -12.258 -20.915  0.00  0.00    +0.356 A 
ENDROOT
BRANCH   7  14
ATOM     14  O   UNL     1      35.038 -17.372 -20.669  0.00  0.00    -0.425 OA
BRANCH  14  16
ATOM     15  S   UNL     1      33.063 -19.686 -20.915  0.00  0.00    +0.036 S 
ATOM     16  P   UNL     1      34.825 -18.897 -21.195  0.00  0.00    +0.363 P 
BRANCH  16  17
ATOM     17  O   UNL     1      36.070 -19.660 -20.473  0.00  0.00    -0.288 OA
BRANCH  17  18
ATOM     18  C   UNL     1      35.995 -21.055 -20.229  0.00  0.00    +0.152 C 
ATOM     19  C   UNL     1      36.430 -21.330 -18.805  0.00  0.00    +0.035 C 
ENDBRANCH  17  18
ENDBRANCH  16  17
BRANCH  16  20
ATOM     20  O   UNL     1      35.366 -18.804 -22.726  0.00  0.00    -0.288 OA
BRANCH  20  21
ATOM     21  C   UNL     1      34.647 -19.442 -23.767  0.00  0.00    +0.152 C 
ATOM     22  C   UNL     1      34.485 -18.474 -24.919  0.00  0.00    +0.035 C 
ENDBRANCH  20  21
ENDBRANCH  16  20
ENDBRANCH  14  16
ENDBRANCH   7  14
TORSDOF 6
ENDMDL
MODEL 5
REMARK VINA RESULT:      -8.1      4.336      7.626
REMARK  Name = 2871
REMARK  6 active torsions:
REMARK  status: ('A' for Active; 'I' for Inactive)
REMARK    1  A    between atoms: C_7  and  O_14
REMARK    2  A    between atoms: O_14  and  P_16
REMARK    3  A    between atoms: P_16  and  O_17
REMARK    4  A    between atoms: P_16  and  O_20
REMARK    5  A    between atoms: O_17  and  C_18
REMARK    6  A    between atoms: O_20  and  C_21
REMARK                            x       y       z     vdW  Elec       q    Type
REMARK                         _______ _______ _______ _____ _____    ______ ____
ROOT
ATOM      1 CL   UNL     1      31.785 -10.468 -23.310  0.00  0.00    -0.076 Cl
ATOM      2  O   UNL     1      34.303 -13.554 -23.496  0.00  0.00    -0.420 OA
ATOM      3  O   UNL     1      33.884 -11.774 -24.847  0.00  0.00    -0.244 OA
ATOM      4  C   UNL     1      33.052 -13.841 -21.423  0.00  0.00    +0.032 A 
ATOM      5  C   UNL     1      34.026 -14.273 -22.321  0.00  0.00    +0.151 A 
ATOM      6  C   UNL     1      32.304 -12.601 -21.720  0.00  0.00    -0.002 A 
ATOM      7  C   UNL     1      34.553 -16.193 -20.971  0.00  0.00    +0.149 C 
ATOM      8  C   UNL     1      34.777 -15.434 -22.114  0.00  0.00    +0.075 C 
ATOM      9  C   UNL     1      32.844 -14.624 -20.277  0.00  0.00    +0.006 C 
ATOM     10  C   UNL     1      33.588 -15.789 -20.053  0.00  0.00    +0.038 C 
ATOM     11  C   UNL     1      32.592 -11.934 -22.854  0.00  0.00    +0.130 A 
ATOM     12  C   UNL     1      31.260 -12.167 -20.721  0.00  0.00    +0.032 C 
ATOM     13  C   UNL     1      33.627 -12.386 -23.816  0.00  0.00    +0.356 A 
ENDROOT
BRANCH   7  14
ATOM     14  O   UNL     1      35.273 -17.326 -20.752  0.00  0.00    -0.425 OA
BRANCH  14  16
ATOM     15  S   UNL     1      33.108 -19.456 -21.051  0.00  0.00    +0.036 S 
ATOM     16  P   UNL     1      34.933 -18.817 -21.305  0.00  0.00    +0.363 P 
BRANCH  16  17
ATOM     17  O   UNL     1      36.101 -19.698 -20.587  0.00  0.00    -0.288 OA
BRANCH  17  18
ATOM     18  C   UNL     1      35.854 -21.051 -20.245  0.00  0.00    +0.152 C 
ATOM     19  C   UNL     1      36.442 -21.330 -18.879  0.00  0.00    +0.035 C 
ENDBRANCH  17  18
ENDBRANCH  16  17
BRANCH  16  20
ATOM     20  O   UNL     1      35.494 -18.747 -22.830  0.00  0.00    -0.288 OA
BRANCH  20  21
ATOM     21  C   UNL     1      34.632 -19.052 -23.912  0.00  0.00    +0.152 C 
ATOM     22  C   UNL     1      34.616 -17.884 -24.875  0.00  0.00    +0.035 C 
ENDBRANCH  20  21
ENDBRANCH  16  20
ENDBRANCH  14  16
ENDBRANCH   7  14
TORSDOF 6
ENDMDL
MODEL 6
REMARK VINA RESULT:      -8.1     10.505     13.762
REMARK  Name = 2871
REMARK  6 active torsions:
REMARK  status: ('A' for Active; 'I' for Inactive)
REMARK    1  A    between atoms: C_7  and  O_14
REMARK    2  A    between atoms: O_14  and  P_16
REMARK    3  A    between atoms: P_16  and  O_17
REMARK    4  A    between atoms: P_16  and  O_20
REMARK    5  A    between atoms: O_17  and  C_18
REMARK    6  A    between atoms: O_20  and  C_21
REMARK                            x       y       z     vdW  Elec       q    Type
REMARK                         _______ _______ _______ _____ _____    ______ ____
ROOT
ATOM      1 CL   UNL     1      34.561 -20.241 -21.521  0.00  0.00    -0.076 Cl
ATOM      2  O   UNL     1      33.805 -22.413 -18.264  0.00  0.00    -0.420 OA
ATOM      3  O   UNL     1      32.569 -21.789 -20.067  0.00  0.00    -0.244 OA
ATOM      4  C   UNL     1      36.131 -21.710 -18.069  0.00  0.00    +0.032 A 
ATOM      5  C   UNL     1      35.026 -22.393 -17.568  0.00  0.00    +0.151 A 
ATOM      6  C   UNL     1      36.008 -20.998 -19.358  0.00  0.00    -0.002 A 
ATOM      7  C   UNL     1      36.235 -23.112 -15.617  0.00  0.00    +0.149 C 
ATOM      8  C   UNL     1      35.058 -23.091 -16.357  0.00  0.00    +0.075 C 
ATOM      9  C   UNL     1      37.308 -21.746 -17.305  0.00  0.00    +0.006 C 
ATOM     10  C   UNL     1      37.358 -22.440 -16.090  0.00  0.00    +0.038 C 
ATOM     11  C   UNL     1      34.826 -21.035 -20.002  0.00  0.00    +0.130 A 
ATOM     12  C   UNL     1      37.230 -20.273 -19.867  0.00  0.00    +0.032 C 
ATOM     13  C   UNL     1      33.643 -21.759 -19.476  0.00  0.00    +0.356 A 
ENDROOT
BRANCH   7  14
ATOM     14  O   UNL     1      36.288 -23.785 -14.436  0.00  0.00    -0.425 OA
BRANCH  14  16
ATOM     15  S   UNL     1      36.791 -26.661 -15.325  0.00  0.00    +0.036 S 
ATOM     16  P   UNL     1      37.114 -25.152 -14.131  0.00  0.00    +0.363 P 
BRANCH  16  17
ATOM     17  O   UNL     1      36.755 -25.398 -12.561  0.00  0.00    -0.288 OA
BRANCH  17  18
ATOM     18  C   UNL     1      35.646 -24.734 -11.978  0.00  0.00    +0.152 C 
ATOM     19  C   UNL     1      36.131 -23.887 -10.822  0.00  0.00    +0.035 C 
ENDBRANCH  17  18
ENDBRANCH  16  17
BRANCH  16  20
ATOM     20  O   UNL     1      38.641 -24.605 -14.016  0.00  0.00    -0.288 OA
BRANCH  20  21
ATOM     21  C   UNL     1      39.624 -25.061 -14.929  0.00  0.00    +0.152 C 
ATOM     22  C   UNL     1      40.528 -26.051 -14.227  0.00  0.00    +0.035 C 
ENDBRANCH  20  21
ENDBRANCH  16  20
ENDBRANCH  14  16
ENDBRANCH   7  14
TORSDOF 6
ENDMDL
MODEL 7
REMARK VINA RESULT:      -8.0      2.089      3.118
REMARK  Name = 2871
REMARK  6 active torsions:
REMARK  status: ('A' for Active; 'I' for Inactive)
REMARK    1  A    between atoms: C_7  and  O_14
REMARK    2  A    between atoms: O_14  and  P_16
REMARK    3  A    between atoms: P_16  and  O_17
REMARK    4  A    between atoms: P_16  and  O_20
REMARK    5  A    between atoms: O_17  and  C_18
REMARK    6  A    between atoms: O_20  and  C_21
REMARK                            x       y       z     vdW  Elec       q    Type
REMARK                         _______ _______ _______ _____ _____    ______ ____
ROOT
ATOM      1 CL   UNL     1      34.382 -17.151 -21.547  0.00  0.00    -0.076 Cl
ATOM      2  O   UNL     1      34.010 -13.704 -23.514  0.00  0.00    -0.420 OA
ATOM      3  O   UNL     1      35.223 -15.595 -23.860  0.00  0.00    -0.244 OA
ATOM      4  C   UNL     1      32.547 -13.523 -21.573  0.00  0.00    +0.032 A 
ATOM      5  C   UNL     1      33.089 -12.981 -22.736  0.00  0.00    +0.151 A 
ATOM      6  C   UNL     1      32.951 -14.883 -21.160  0.00  0.00    -0.002 A 
ATOM      7  C   UNL     1      31.855 -10.934 -22.472  0.00  0.00    +0.149 C 
ATOM      8  C   UNL     1      32.760 -11.703 -23.195  0.00  0.00    +0.075 C 
ATOM      9  C   UNL     1      31.636 -12.727 -20.860  0.00  0.00    +0.006 C 
ATOM     10  C   UNL     1      31.294 -11.445 -21.306  0.00  0.00    +0.038 C 
ATOM     11  C   UNL     1      33.834 -15.550 -21.926  0.00  0.00    +0.130 A 
ATOM     12  C   UNL     1      32.338 -15.433 -19.895  0.00  0.00    +0.032 C 
ATOM     13  C   UNL     1      34.419 -14.982 -23.166  0.00  0.00    +0.356 A 
ENDROOT
BRANCH   7  14
ATOM     14  O   UNL     1      31.522  -9.687 -22.902  0.00  0.00    -0.425 OA
BRANCH  14  16
ATOM     15  S   UNL     1      32.676  -7.896 -20.717  0.00  0.00    +0.036 S 
ATOM     16  P   UNL     1      32.319  -8.304 -22.591  0.00  0.00    +0.363 P 
BRANCH  16  17
ATOM     17  O   UNL     1      31.405  -7.220 -23.393  0.00  0.00    -0.288 OA
BRANCH  17  18
ATOM     18  C   UNL     1      30.913  -6.075 -22.718  0.00  0.00    +0.152 C 
ATOM     19  C   UNL     1      31.499  -4.836 -23.360  0.00  0.00    +0.035 C 
ENDBRANCH  17  18
ENDBRANCH  16  17
BRANCH  16  20
ATOM     20  O   UNL     1      33.601  -8.423 -23.586  0.00  0.00    -0.288 OA
BRANCH  20  21
ATOM     21  C   UNL     1      34.589  -7.407 -23.587  0.00  0.00    +0.152 C 
ATOM     22  C   UNL     1      34.492  -6.626 -24.880  0.00  0.00    +0.035 C 
ENDBRANCH  20  21
ENDBRANCH  16  20
ENDBRANCH  14  16
ENDBRANCH   7  14
TORSDOF 6
ENDMDL
MODEL 8
REMARK VINA RESULT:      -8.0      4.251      8.020
REMARK  Name = 2871
REMARK  6 active torsions:
REMARK  status: ('A' for Active; 'I' for Inactive)
REMARK    1  A    between atoms: C_7  and  O_14
REMARK    2  A    between atoms: O_14  and  P_16
REMARK    3  A    between atoms: P_16  and  O_17
REMARK    4  A    between atoms: P_16  and  O_20
REMARK    5  A    between atoms: O_17  and  C_18
REMARK    6  A    between atoms: O_20  and  C_21
REMARK                            x       y       z     vdW  Elec       q    Type
REMARK                         _______ _______ _______ _____ _____    ______ ____
ROOT
ATOM      1 CL   UNL     1      31.977  -9.562 -23.025  0.00  0.00    -0.076 Cl
ATOM      2  O   UNL     1      31.772 -12.944 -20.924  0.00  0.00    -0.420 OA
ATOM      3  O   UNL     1      30.823 -10.889 -20.705  0.00  0.00    -0.244 OA
ATOM      4  C   UNL     1      33.284 -13.405 -22.780  0.00  0.00    +0.032 A 
ATOM      5  C   UNL     1      32.616 -13.819 -21.630  0.00  0.00    +0.151 A 
ATOM      6  C   UNL     1      33.095 -12.020 -23.259  0.00  0.00    -0.002 A 
ATOM      7  C   UNL     1      33.560 -16.027 -21.761  0.00  0.00    +0.149 C 
ATOM      8  C   UNL     1      32.740 -15.111 -21.112  0.00  0.00    +0.075 C 
ATOM      9  C   UNL     1      34.106 -14.347 -23.418  0.00  0.00    +0.006 C 
ATOM     10  C   UNL     1      34.242 -15.646 -22.913  0.00  0.00    +0.038 C 
ATOM     11  C   UNL     1      32.280 -11.206 -22.561  0.00  0.00    +0.130 A 
ATOM     12  C   UNL     1      33.835 -11.613 -24.509  0.00  0.00    +0.032 C 
ATOM     13  C   UNL     1      31.564 -11.636 -21.335  0.00  0.00    +0.356 A 
ENDROOT
BRANCH   7  14
ATOM     14  O   UNL     1      33.696 -17.289 -21.272  0.00  0.00    -0.425 OA
BRANCH  14  16
ATOM     15  S   UNL     1      35.399 -18.203 -23.633  0.00  0.00    +0.036 S 
ATOM     16  P   UNL     1      34.688 -18.449 -21.834  0.00  0.00    +0.363 P 
BRANCH  16  17
ATOM     17  O   UNL     1      33.782 -19.783 -21.603  0.00  0.00    -0.288 OA
BRANCH  17  18
ATOM     18  C   UNL     1      32.798 -19.800 -20.582  0.00  0.00    +0.152 C 
ATOM     19  C   UNL     1      33.084 -20.951 -19.641  0.00  0.00    +0.035 C 
ENDBRANCH  17  18
ENDBRANCH  16  17
BRANCH  16  20
ATOM     20  O   UNL     1      35.761 -18.592 -20.619  0.00  0.00    -0.288 OA
BRANCH  20  21
ATOM     21  C   UNL     1      36.897 -19.424 -20.778  0.00  0.00    +0.152 C 
ATOM     22  C   UNL     1      36.759 -20.626 -19.868  0.00  0.00    +0.035 C 
ENDBRANCH  20  21
ENDBRANCH  16  20
ENDBRANCH  14  16
ENDBRANCH   7  14
TORSDOF 6
ENDMDL
MODEL 9
REMARK VINA RESULT:      -8.0      1.455      2.205
REMARK  Name = 2871
REMARK  6 active torsions:
REMARK  status: ('A' for Active; 'I' for Inactive)
REMARK    1  A    between atoms: C_7  and  O_14
REMARK    2  A    between atoms: O_14  and  P_16
REMARK    3  A    between atoms: P_16  and  O_17
REMARK    4  A    between atoms: P_16  and  O_20
REMARK    5  A    between atoms: O_17  and  C_18
REMARK    6  A    between atoms: O_20  and  C_21
REMARK                            x       y       z     vdW  Elec       q    Type
REMARK                         _______ _______ _______ _____ _____    ______ ____
ROOT
ATOM      1 CL   UNL     1      36.048 -18.482 -22.855  0.00  0.00    -0.076 Cl
ATOM      2  O   UNL     1      34.243 -15.382 -21.116  0.00  0.00    -0.420 OA
ATOM      3  O   UNL     1      35.442 -17.150 -20.338  0.00  0.00    -0.244 OA
ATOM      4  C   UNL     1      33.848 -15.125 -23.508  0.00  0.00    +0.032 A 
ATOM      5  C   UNL     1      33.690 -14.676 -22.199  0.00  0.00    +0.151 A 
ATOM      6  C   UNL     1      34.613 -16.365 -23.753  0.00  0.00    -0.002 A 
ATOM      7  C   UNL     1      32.409 -12.768 -22.906  0.00  0.00    +0.149 C 
ATOM      8  C   UNL     1      32.982 -13.514 -21.882  0.00  0.00    +0.075 C 
ATOM      9  C   UNL     1      33.260 -14.356 -24.525  0.00  0.00    +0.006 C 
ATOM     10  C   UNL     1      32.547 -13.188 -24.225  0.00  0.00    +0.038 C 
ATOM     11  C   UNL     1      35.130 -17.019 -22.695  0.00  0.00    +0.130 A 
ATOM     12  C   UNL     1      34.762 -16.815 -25.186  0.00  0.00    +0.032 C 
ATOM     13  C   UNL     1      34.968 -16.550 -21.297  0.00  0.00    +0.356 A 
ENDROOT
BRANCH   7  14
ATOM     14  O   UNL     1      31.715 -11.634 -22.619  0.00  0.00    -0.425 OA
BRANCH  14  16
ATOM     15  S   UNL     1      33.863  -9.782 -23.744  0.00  0.00    +0.036 S 
ATOM     16  P   UNL     1      32.284 -10.111 -22.647  0.00  0.00    +0.363 P 
BRANCH  16  17
ATOM     17  O   UNL     1      32.446  -9.801 -21.056  0.00  0.00    -0.288 OA
BRANCH  17  18
ATOM     18  C   UNL     1      31.332  -9.949 -20.192  0.00  0.00    +0.152 C 
ATOM     19  C   UNL     1      31.608 -11.076 -19.220  0.00  0.00    +0.035 C 
ENDBRANCH  17  18
ENDBRANCH  16  17
BRANCH  16  20
ATOM     20  O   UNL     1      30.944  -9.256 -22.992  0.00  0.00    -0.288 OA
BRANCH  20  21
ATOM     21  C   UNL     1      31.056  -8.005 -23.648  0.00  0.00    +0.152 C 
ATOM     22  C   UNL     1      31.221  -6.916 -22.610  0.00  0.00    +0.035 C 
ENDBRANCH  20  21
ENDBRANCH  16  20
ENDBRANCH  14  16
ENDBRANCH   7  14
TORSDOF 6
ENDMDL
