MODEL 1
REMARK VINA RESULT:      -5.9      0.000      0.000
REMARK  Name = 10236037
REMARK  8 active torsions:
REMARK  status: ('A' for Active; 'I' for Inactive)
REMARK    1  A    between atoms: C_1  and  N_2
REMARK    2  A    between atoms: C_1  and  C_6
REMARK    3  A    between atoms: C_1  and  C_12
REMARK    4  A    between atoms: C_6  and  C_7
REMARK    5  A    between atoms: C_7  and  C_9
REMARK    6  A    between atoms: C_9  and  C_10
REMARK    7  A    between atoms: C_12  and  C_14
REMARK    8  A    between atoms: C_14  and  O_15
REMARK                            x       y       z     vdW  Elec       q    Type
REMARK                         _______ _______ _______ _____ _____    ______ ____
ROOT
ATOM      1  C   UNL     1      33.784 -20.476 -20.612  0.00  0.00    -0.055 C 
ENDROOT
BRANCH   1   2
ATOM      2  N   UNL     1      32.682 -20.605 -19.658  0.00  0.00    +0.382 N 
ATOM      3  H   UNL     1      31.813 -20.299 -20.098  0.00  0.00    -0.089 HD
ATOM      4  H   UNL     1      32.871 -20.026 -18.840  0.00  0.00    -0.089 HD
ATOM      5  H   UNL     1      32.592 -21.580 -19.372  0.00  0.00    -0.089 HD
ENDBRANCH   1   2
BRANCH   1   6
ATOM      6  C   UNL     1      33.769 -19.086 -21.284  0.00  0.00    -0.021 C 
BRANCH   6   7
ATOM      7  C   UNL     1      35.134 -18.354 -21.349  0.00  0.00    -0.002 C 
ATOM      8  C   UNL     1      34.925 -16.890 -20.938  0.00  0.00    -0.000 C 
BRANCH   7   9
ATOM      9  C   UNL     1      35.779 -18.470 -22.747  0.00  0.00    -0.000 C 
BRANCH   9  10
ATOM     10  C   UNL     1      34.838 -19.030 -23.818  0.00  0.00    -0.000 C 
ATOM     11  C   UNL     1      34.535 -17.991 -24.888  0.00  0.00    -0.000 C 
ENDBRANCH   9  10
ENDBRANCH   7   9
ENDBRANCH   6   7
ENDBRANCH   1   6
BRANCH   1  12
ATOM     12  C   UNL     1      35.135 -20.782 -19.947  0.00  0.00    +0.088 C 
BRANCH  12  14
ATOM     13  O   UNL     1      34.443 -23.040 -19.400  0.00  0.00    -0.250 OA
ATOM     14  C   UNL     1      35.185 -22.091 -19.196  0.00  0.00    +0.312 C 
BRANCH  14  15
ATOM     15  O   UNL     1      36.173 -22.086 -18.268  0.00  0.00    -0.480 OA
ATOM     16  H   UNL     1      37.069 -22.059 -18.538  0.00  0.00    +0.295 HD
ENDBRANCH  14  15
ENDBRANCH  12  14
ENDBRANCH   1  12
TORSDOF 8
ENDMDL
MODEL 2
REMARK VINA RESULT:      -5.8      3.894      5.616
REMARK  Name = 10236037
REMARK  8 active torsions:
REMARK  status: ('A' for Active; 'I' for Inactive)
REMARK    1  A    between atoms: C_1  and  N_2
REMARK    2  A    between atoms: C_1  and  C_6
REMARK    3  A    between atoms: C_1  and  C_12
REMARK    4  A    between atoms: C_6  and  C_7
REMARK    5  A    between atoms: C_7  and  C_9
REMARK    6  A    between atoms: C_9  and  C_10
REMARK    7  A    between atoms: C_12  and  C_14
REMARK    8  A    between atoms: C_14  and  O_15
REMARK                            x       y       z     vdW  Elec       q    Type
REMARK                         _______ _______ _______ _____ _____    ______ ____
ROOT
ATOM      1  C   UNL     1      35.159 -17.183 -22.654  0.00  0.00    -0.055 C 
ENDROOT
BRANCH   1   2
ATOM      2  N   UNL     1      34.303 -16.044 -22.984  0.00  0.00    +0.382 N 
ATOM      3  H   UNL     1      34.864 -15.192 -23.009  0.00  0.00    -0.089 HD
ATOM      4  H   UNL     1      33.574 -15.949 -22.275  0.00  0.00    -0.089 HD
ATOM      5  H   UNL     1      33.872 -16.194 -23.896  0.00  0.00    -0.089 HD
ENDBRANCH   1   2
BRANCH   1   6
ATOM      6  C   UNL     1      34.699 -17.856 -21.343  0.00  0.00    -0.021 C 
BRANCH   6   7
ATOM      7  C   UNL     1      34.581 -19.400 -21.382  0.00  0.00    -0.002 C 
ATOM      8  C   UNL     1      33.218 -19.802 -20.801  0.00  0.00    -0.000 C 
BRANCH   7   9
ATOM      9  C   UNL     1      35.746 -20.083 -20.634  0.00  0.00    -0.000 C 
BRANCH   9  10
ATOM     10  C   UNL     1      35.311 -21.253 -19.748  0.00  0.00    -0.000 C 
ATOM     11  C   UNL     1      36.351 -21.557 -18.680  0.00  0.00    -0.000 C 
ENDBRANCH   9  10
ENDBRANCH   7   9
ENDBRANCH   6   7
ENDBRANCH   1   6
BRANCH   1  12
ATOM     12  C   UNL     1      35.230 -18.182 -23.821  0.00  0.00    +0.088 C 
BRANCH  12  14
ATOM     13  O   UNL     1      34.967 -16.705 -25.726  0.00  0.00    -0.250 OA
ATOM     14  C   UNL     1      34.605 -17.694 -25.106  0.00  0.00    +0.312 C 
BRANCH  14  15
ATOM     15  O   UNL     1      33.590 -18.504 -25.495  0.00  0.00    -0.480 OA
ATOM     16  H   UNL     1      33.775 -19.296 -25.960  0.00  0.00    +0.295 HD
ENDBRANCH  14  15
ENDBRANCH  12  14
ENDBRANCH   1  12
TORSDOF 8
ENDMDL
MODEL 3
REMARK VINA RESULT:      -5.7      4.849      6.182
REMARK  Name = 10236037
REMARK  8 active torsions:
REMARK  status: ('A' for Active; 'I' for Inactive)
REMARK    1  A    between atoms: C_1  and  N_2
REMARK    2  A    between atoms: C_1  and  C_6
REMARK    3  A    between atoms: C_1  and  C_12
REMARK    4  A    between atoms: C_6  and  C_7
REMARK    5  A    between atoms: C_7  and  C_9
REMARK    6  A    between atoms: C_9  and  C_10
REMARK    7  A    between atoms: C_12  and  C_14
REMARK    8  A    between atoms: C_14  and  O_15
REMARK                            x       y       z     vdW  Elec       q    Type
REMARK                         _______ _______ _______ _____ _____    ______ ____
ROOT
ATOM      1  C   UNL     1      34.422 -16.581 -22.663  0.00  0.00    -0.055 C 
ENDROOT
BRANCH   1   2
ATOM      2  N   UNL     1      35.479 -16.366 -23.652  0.00  0.00    +0.382 N 
ATOM      3  H   UNL     1      35.432 -15.408 -23.998  0.00  0.00    -0.089 HD
ATOM      4  H   UNL     1      35.355 -17.015 -24.429  0.00  0.00    -0.089 HD
ATOM      5  H   UNL     1      36.388 -16.526 -23.218  0.00  0.00    -0.089 HD
ENDBRANCH   1   2
BRANCH   1   6
ATOM      6  C   UNL     1      35.022 -16.919 -21.282  0.00  0.00    -0.021 C 
BRANCH   6   7
ATOM      7  C   UNL     1      35.136 -18.428 -20.946  0.00  0.00    -0.002 C 
ATOM      8  C   UNL     1      36.556 -18.900 -21.285  0.00  0.00    -0.000 C 
BRANCH   7   9
ATOM      9  C   UNL     1      34.065 -19.261 -21.682  0.00  0.00    -0.000 C 
BRANCH   9  10
ATOM     10  C   UNL     1      32.934 -19.754 -20.776  0.00  0.00    -0.000 C 
ATOM     11  C   UNL     1      33.384 -20.925 -19.915  0.00  0.00    -0.000 C 
ENDBRANCH   9  10
ENDBRANCH   7   9
ENDBRANCH   6   7
ENDBRANCH   1   6
BRANCH   1  12
ATOM     12  C   UNL     1      33.468 -15.378 -22.598  0.00  0.00    +0.088 C 
BRANCH  12  14
ATOM     13  O   UNL     1      33.115 -14.568 -24.856  0.00  0.00    -0.250 OA
ATOM     14  C   UNL     1      33.601 -14.406 -23.747  0.00  0.00    +0.312 C 
BRANCH  14  15
ATOM     15  O   UNL     1      34.323 -13.317 -23.386  0.00  0.00    -0.480 OA
ATOM     16  H   UNL     1      35.252 -13.310 -23.507  0.00  0.00    +0.295 HD
ENDBRANCH  14  15
ENDBRANCH  12  14
ENDBRANCH   1  12
TORSDOF 8
ENDMDL
MODEL 4
REMARK VINA RESULT:      -5.7      3.740      5.560
REMARK  Name = 10236037
REMARK  8 active torsions:
REMARK  status: ('A' for Active; 'I' for Inactive)
REMARK    1  A    between atoms: C_1  and  N_2
REMARK    2  A    between atoms: C_1  and  C_6
REMARK    3  A    between atoms: C_1  and  C_12
REMARK    4  A    between atoms: C_6  and  C_7
REMARK    5  A    between atoms: C_7  and  C_9
REMARK    6  A    between atoms: C_9  and  C_10
REMARK    7  A    between atoms: C_12  and  C_14
REMARK    8  A    between atoms: C_14  and  O_15
REMARK                            x       y       z     vdW  Elec       q    Type
REMARK                         _______ _______ _______ _____ _____    ______ ____
ROOT
ATOM      1  C   UNL     1      34.567 -18.644 -21.788  0.00  0.00    -0.055 C 
ENDROOT
BRANCH   1   2
ATOM      2  N   UNL     1      34.794 -19.017 -23.185  0.00  0.00    +0.382 N 
ATOM      3  H   UNL     1      35.259 -18.250 -23.671  0.00  0.00    -0.089 HD
ATOM      4  H   UNL     1      33.900 -19.213 -23.635  0.00  0.00    -0.089 HD
ATOM      5  H   UNL     1      35.383 -19.850 -23.223  0.00  0.00    -0.089 HD
ENDBRANCH   1   2
BRANCH   1   6
ATOM      6  C   UNL     1      35.215 -19.669 -20.833  0.00  0.00    -0.021 C 
BRANCH   6   7
ATOM      7  C   UNL     1      34.323 -20.868 -20.424  0.00  0.00    -0.002 C 
ATOM      8  C   UNL     1      32.911 -20.348 -20.118  0.00  0.00    -0.000 C 
BRANCH   7   9
ATOM      9  C   UNL     1      34.918 -21.643 -19.229  0.00  0.00    -0.000 C 
BRANCH   9  10
ATOM     10  C   UNL     1      36.405 -21.365 -18.991  0.00  0.00    -0.000 C 
ATOM     11  C   UNL     1      36.820 -21.746 -17.577  0.00  0.00    -0.000 C 
ENDBRANCH   9  10
ENDBRANCH   7   9
ENDBRANCH   6   7
ENDBRANCH   1   6
BRANCH   1  12
ATOM     12  C   UNL     1      35.048 -17.211 -21.510  0.00  0.00    +0.088 C 
BRANCH  12  14
ATOM     13  O   UNL     1      33.681 -15.545 -22.622  0.00  0.00    -0.250 OA
ATOM     14  C   UNL     1      34.705 -16.211 -22.589  0.00  0.00    +0.312 C 
BRANCH  14  15
ATOM     15  O   UNL     1      35.690 -16.135 -23.517  0.00  0.00    -0.480 OA
ATOM     16  H   UNL     1      36.193 -15.349 -23.603  0.00  0.00    +0.295 HD
ENDBRANCH  14  15
ENDBRANCH  12  14
ENDBRANCH   1  12
TORSDOF 8
ENDMDL
MODEL 5
REMARK VINA RESULT:      -5.7      3.864      5.718
REMARK  Name = 10236037
REMARK  8 active torsions:
REMARK  status: ('A' for Active; 'I' for Inactive)
REMARK    1  A    between atoms: C_1  and  N_2
REMARK    2  A    between atoms: C_1  and  C_6
REMARK    3  A    between atoms: C_1  and  C_12
REMARK    4  A    between atoms: C_6  and  C_7
REMARK    5  A    between atoms: C_7  and  C_9
REMARK    6  A    between atoms: C_9  and  C_10
REMARK    7  A    between atoms: C_12  and  C_14
REMARK    8  A    between atoms: C_14  and  O_15
REMARK                            x       y       z     vdW  Elec       q    Type
REMARK                         _______ _______ _______ _____ _____    ______ ____
ROOT
ATOM      1  C   UNL     1      34.963 -18.391 -22.549  0.00  0.00    -0.055 C 
ENDROOT
BRANCH   1   2
ATOM      2  N   UNL     1      34.288 -17.415 -21.693  0.00  0.00    +0.382 N 
ATOM      3  H   UNL     1      33.343 -17.253 -22.042  0.00  0.00    -0.089 HD
ATOM      4  H   UNL     1      34.809 -16.537 -21.702  0.00  0.00    -0.089 HD
ATOM      5  H   UNL     1      34.242 -17.774 -20.739  0.00  0.00    -0.089 HD
ENDBRANCH   1   2
BRANCH   1   6
ATOM      6  C   UNL     1      34.737 -19.827 -22.029  0.00  0.00    -0.021 C 
BRANCH   6   7
ATOM      7  C   UNL     1      34.805 -20.007 -20.491  0.00  0.00    -0.002 C 
ATOM      8  C   UNL     1      36.162 -20.628 -20.130  0.00  0.00    -0.000 C 
BRANCH   7   9
ATOM      9  C   UNL     1      33.629 -20.854 -19.961  0.00  0.00    -0.000 C 
BRANCH   9  10
ATOM     10  C   UNL     1      34.049 -22.219 -19.410  0.00  0.00    -0.000 C 
ATOM     11  C   UNL     1      33.211 -22.612 -18.202  0.00  0.00    -0.000 C 
ENDBRANCH   9  10
ENDBRANCH   7   9
ENDBRANCH   6   7
ENDBRANCH   1   6
BRANCH   1  12
ATOM     12  C   UNL     1      34.535 -18.235 -24.017  0.00  0.00    +0.088 C 
BRANCH  12  14
ATOM     13  O   UNL     1      34.744 -16.634 -25.826  0.00  0.00    -0.250 OA
ATOM     14  C   UNL     1      34.982 -16.948 -24.669  0.00  0.00    +0.312 C 
BRANCH  14  15
ATOM     15  O   UNL     1      35.675 -16.172 -23.799  0.00  0.00    -0.480 OA
ATOM     16  H   UNL     1      36.597 -16.054 -23.910  0.00  0.00    +0.295 HD
ENDBRANCH  14  15
ENDBRANCH  12  14
ENDBRANCH   1  12
TORSDOF 8
ENDMDL
MODEL 6
REMARK VINA RESULT:      -5.7      6.356      8.780
REMARK  Name = 10236037
REMARK  8 active torsions:
REMARK  status: ('A' for Active; 'I' for Inactive)
REMARK    1  A    between atoms: C_1  and  N_2
REMARK    2  A    between atoms: C_1  and  C_6
REMARK    3  A    between atoms: C_1  and  C_12
REMARK    4  A    between atoms: C_6  and  C_7
REMARK    5  A    between atoms: C_7  and  C_9
REMARK    6  A    between atoms: C_9  and  C_10
REMARK    7  A    between atoms: C_12  and  C_14
REMARK    8  A    between atoms: C_14  and  O_15
REMARK                            x       y       z     vdW  Elec       q    Type
REMARK                         _______ _______ _______ _____ _____    ______ ____
ROOT
ATOM      1  C   UNL     1      37.747 -26.132 -14.558  0.00  0.00    -0.055 C 
ENDROOT
BRANCH   1   2
ATOM      2  N   UNL     1      37.255 -26.943 -13.445  0.00  0.00    +0.382 N 
ATOM      3  H   UNL     1      37.040 -27.884 -13.777  0.00  0.00    -0.089 HD
ATOM      4  H   UNL     1      36.410 -26.518 -13.061  0.00  0.00    -0.089 HD
ATOM      5  H   UNL     1      37.970 -26.994 -12.719  0.00  0.00    -0.089 HD
ENDBRANCH   1   2
BRANCH   1   6
ATOM      6  C   UNL     1      36.652 -25.166 -15.060  0.00  0.00    -0.021 C 
BRANCH   6   7
ATOM      7  C   UNL     1      36.628 -23.768 -14.392  0.00  0.00    -0.002 C 
ATOM      8  C   UNL     1      35.657 -23.809 -13.203  0.00  0.00    -0.000 C 
BRANCH   7   9
ATOM      9  C   UNL     1      36.253 -22.659 -15.398  0.00  0.00    -0.000 C 
BRANCH   9  10
ATOM     10  C   UNL     1      37.368 -22.323 -16.392  0.00  0.00    -0.000 C 
ATOM     11  C   UNL     1      36.806 -21.739 -17.680  0.00  0.00    -0.000 C 
ENDBRANCH   9  10
ENDBRANCH   7   9
ENDBRANCH   6   7
ENDBRANCH   1   6
BRANCH   1  12
ATOM     12  C   UNL     1      39.039 -25.392 -14.180  0.00  0.00    +0.088 C 
BRANCH  12  14
ATOM     13  O   UNL     1      41.158 -26.566 -14.076  0.00  0.00    -0.250 OA
ATOM     14  C   UNL     1      40.301 -26.002 -14.741  0.00  0.00    +0.312 C 
BRANCH  14  15
ATOM     15  O   UNL     1      40.360 -25.856 -16.087  0.00  0.00    -0.480 OA
ATOM     16  H   UNL     1      39.629 -25.499 -16.552  0.00  0.00    +0.295 HD
ENDBRANCH  14  15
ENDBRANCH  12  14
ENDBRANCH   1  12
TORSDOF 8
ENDMDL
MODEL 7
REMARK VINA RESULT:      -5.7      1.249      2.514
REMARK  Name = 10236037
REMARK  8 active torsions:
REMARK  status: ('A' for Active; 'I' for Inactive)
REMARK    1  A    between atoms: C_1  and  N_2
REMARK    2  A    between atoms: C_1  and  C_6
REMARK    3  A    between atoms: C_1  and  C_12
REMARK    4  A    between atoms: C_6  and  C_7
REMARK    5  A    between atoms: C_7  and  C_9
REMARK    6  A    between atoms: C_9  and  C_10
REMARK    7  A    between atoms: C_12  and  C_14
REMARK    8  A    between atoms: C_14  and  O_15
REMARK                            x       y       z     vdW  Elec       q    Type
REMARK                         _______ _______ _______ _____ _____    ______ ____
ROOT
ATOM      1  C   UNL     1      33.963 -20.392 -20.835  0.00  0.00    -0.055 C 
ENDROOT
BRANCH   1   2
ATOM      2  N   UNL     1      32.530 -20.169 -20.639  0.00  0.00    +0.382 N 
ATOM      3  H   UNL     1      32.383 -19.626 -19.788  0.00  0.00    -0.089 HD
ATOM      4  H   UNL     1      32.054 -21.068 -20.554  0.00  0.00    -0.089 HD
ATOM      5  H   UNL     1      32.153 -19.658 -21.437  0.00  0.00    -0.089 HD
ENDBRANCH   1   2
BRANCH   1   6
ATOM      6  C   UNL     1      34.709 -19.052 -21.007  0.00  0.00    -0.021 C 
BRANCH   6   7
ATOM      7  C   UNL     1      34.428 -18.287 -22.326  0.00  0.00    -0.002 C 
ATOM      8  C   UNL     1      35.084 -19.051 -23.484  0.00  0.00    -0.000 C 
BRANCH   7   9
ATOM      9  C   UNL     1      34.916 -16.825 -22.255  0.00  0.00    -0.000 C 
BRANCH   9  10
ATOM     10  C   UNL     1      34.756 -16.186 -20.873  0.00  0.00    -0.000 C 
ATOM     11  C   UNL     1      33.453 -15.407 -20.769  0.00  0.00    -0.000 C 
ENDBRANCH   9  10
ENDBRANCH   7   9
ENDBRANCH   6   7
ENDBRANCH   1   6
BRANCH   1  12
ATOM     12  C   UNL     1      34.555 -21.239 -19.698  0.00  0.00    +0.088 C 
BRANCH  12  14
ATOM     13  O   UNL     1      32.608 -22.162 -18.585  0.00  0.00    -0.250 OA
ATOM     14  C   UNL     1      33.651 -22.340 -19.197  0.00  0.00    +0.312 C 
BRANCH  14  15
ATOM     15  O   UNL     1      34.138 -23.562 -19.525  0.00  0.00    -0.480 OA
ATOM     16  H   UNL     1      33.786 -24.331 -19.120  0.00  0.00    +0.295 HD
ENDBRANCH  14  15
ENDBRANCH  12  14
ENDBRANCH   1  12
TORSDOF 8
ENDMDL
MODEL 8
REMARK VINA RESULT:      -5.7      5.229      6.771
REMARK  Name = 10236037
REMARK  8 active torsions:
REMARK  status: ('A' for Active; 'I' for Inactive)
REMARK    1  A    between atoms: C_1  and  N_2
REMARK    2  A    between atoms: C_1  and  C_6
REMARK    3  A    between atoms: C_1  and  C_12
REMARK    4  A    between atoms: C_6  and  C_7
REMARK    5  A    between atoms: C_7  and  C_9
REMARK    6  A    between atoms: C_9  and  C_10
REMARK    7  A    between atoms: C_12  and  C_14
REMARK    8  A    between atoms: C_14  and  O_15
REMARK                            x       y       z     vdW  Elec       q    Type
REMARK                         _______ _______ _______ _____ _____    ______ ____
ROOT
ATOM      1  C   UNL     1      34.185 -16.204 -24.220  0.00  0.00    -0.055 C 
ENDROOT
BRANCH   1   2
ATOM      2  N   UNL     1      35.074 -16.842 -25.193  0.00  0.00    +0.382 N 
ATOM      3  H   UNL     1      35.789 -16.176 -25.487  0.00  0.00    -0.089 HD
ATOM      4  H   UNL     1      34.532 -17.140 -26.004  0.00  0.00    -0.089 HD
ATOM      5  H   UNL     1      35.520 -17.653 -24.765  0.00  0.00    -0.089 HD
ENDBRANCH   1   2
BRANCH   1   6
ATOM      6  C   UNL     1      34.945 -15.865 -22.921  0.00  0.00    -0.021 C 
BRANCH   6   7
ATOM      7  C   UNL     1      34.388 -16.507 -21.625  0.00  0.00    -0.002 C 
ATOM      8  C   UNL     1      34.396 -15.450 -20.512  0.00  0.00    -0.000 C 
BRANCH   7   9
ATOM      9  C   UNL     1      35.183 -17.767 -21.223  0.00  0.00    -0.000 C 
BRANCH   9  10
ATOM     10  C   UNL     1      34.615 -19.067 -21.801  0.00  0.00    -0.000 C 
ATOM     11  C   UNL     1      33.574 -19.677 -20.874  0.00  0.00    -0.000 C 
ENDBRANCH   9  10
ENDBRANCH   7   9
ENDBRANCH   6   7
ENDBRANCH   1   6
BRANCH   1  12
ATOM     12  C   UNL     1      33.493 -14.971 -24.823  0.00  0.00    +0.088 C 
BRANCH  12  14
ATOM     13  O   UNL     1      33.588 -14.209 -27.123  0.00  0.00    -0.250 OA
ATOM     14  C   UNL     1      33.243 -15.054 -26.310  0.00  0.00    +0.312 C 
BRANCH  14  15
ATOM     15  O   UNL     1      32.594 -16.199 -26.635  0.00  0.00    -0.480 OA
ATOM     16  H   UNL     1      33.082 -16.962 -26.876  0.00  0.00    +0.295 HD
ENDBRANCH  14  15
ENDBRANCH  12  14
ENDBRANCH   1  12
TORSDOF 8
ENDMDL
MODEL 9
REMARK VINA RESULT:      -5.6      3.770      5.500
REMARK  Name = 10236037
REMARK  8 active torsions:
REMARK  status: ('A' for Active; 'I' for Inactive)
REMARK    1  A    between atoms: C_1  and  N_2
REMARK    2  A    between atoms: C_1  and  C_6
REMARK    3  A    between atoms: C_1  and  C_12
REMARK    4  A    between atoms: C_6  and  C_7
REMARK    5  A    between atoms: C_7  and  C_9
REMARK    6  A    between atoms: C_9  and  C_10
REMARK    7  A    between atoms: C_12  and  C_14
REMARK    8  A    between atoms: C_14  and  O_15
REMARK                            x       y       z     vdW  Elec       q    Type
REMARK                         _______ _______ _______ _____ _____    ______ ____
ROOT
ATOM      1  C   UNL     1      34.707 -18.053 -22.389  0.00  0.00    -0.055 C 
ENDROOT
BRANCH   1   2
ATOM      2  N   UNL     1      35.870 -17.767 -23.230  0.00  0.00    +0.382 N 
ATOM      3  H   UNL     1      36.692 -18.228 -22.841  0.00  0.00    -0.089 HD
ATOM      4  H   UNL     1      36.028 -16.759 -23.260  0.00  0.00    -0.089 HD
ATOM      5  H   UNL     1      35.700 -18.114 -24.174  0.00  0.00    -0.089 HD
ENDBRANCH   1   2
BRANCH   1   6
ATOM      6  C   UNL     1      34.646 -19.552 -22.026  0.00  0.00    -0.021 C 
BRANCH   6   7
ATOM      7  C   UNL     1      34.717 -19.885 -20.514  0.00  0.00    -0.002 C 
ATOM      8  C   UNL     1      36.085 -20.514 -20.215  0.00  0.00    -0.000 C 
BRANCH   7   9
ATOM      9  C   UNL     1      33.556 -20.802 -20.075  0.00  0.00    -0.000 C 
BRANCH   9  10
ATOM     10  C   UNL     1      34.015 -22.116 -19.435  0.00  0.00    -0.000 C 
ATOM     11  C   UNL     1      33.111 -22.513 -18.276  0.00  0.00    -0.000 C 
ENDBRANCH   9  10
ENDBRANCH   7   9
ENDBRANCH   6   7
ENDBRANCH   1   6
BRANCH   1  12
ATOM     12  C   UNL     1      34.689 -17.156 -21.140  0.00  0.00    +0.088 C 
BRANCH  12  14
ATOM     13  O   UNL     1      34.589 -15.177 -22.537  0.00  0.00    -0.250 OA
ATOM     14  C   UNL     1      34.724 -15.675 -21.429  0.00  0.00    +0.312 C 
BRANCH  14  15
ATOM     15  O   UNL     1      34.913 -14.958 -20.294  0.00  0.00    -0.480 OA
ATOM     16  H   UNL     1      34.181 -14.738 -19.751  0.00  0.00    +0.295 HD
ENDBRANCH  14  15
ENDBRANCH  12  14
ENDBRANCH   1  12
TORSDOF 8
ENDMDL
