MODEL 1
REMARK VINA RESULT:      -7.1      0.000      0.000
REMARK  Name = 4943
REMARK  3 active torsions:
REMARK  status: ('A' for Active; 'I' for Inactive)
REMARK    1  A    between atoms: C_1  and  C_7
REMARK    2  A    between atoms: C_2  and  C_10
REMARK    3  A    between atoms: C_3  and  O_13
REMARK                            x       y       z     vdW  Elec       q    Type
REMARK                         _______ _______ _______ _____ _____    ______ ____
ROOT
ATOM      1  C   UNL     1      35.293 -18.018 -21.883  0.00  0.00    +0.011 C 
ATOM      2  C   UNL     1      34.462 -15.869 -22.611  0.00  0.00    +0.011 C 
ATOM      3  C   UNL     1      34.899 -16.713 -21.589  0.00  0.00    +0.126 C 
ATOM      4  C   UNL     1      35.252 -18.480 -23.198  0.00  0.00    -0.001 C 
ATOM      5  C   UNL     1      34.419 -16.332 -23.926  0.00  0.00    -0.001 C 
ATOM      6  C   UNL     1      34.814 -17.637 -24.219  0.00  0.00    -0.000 C 
ENDROOT
BRANCH   1   7
ATOM      7  C   UNL     1      35.766 -18.936 -20.803  0.00  0.00    +0.025 C 
ATOM      8  C   UNL     1      37.226 -19.380 -21.008  0.00  0.00    +0.005 C 
ATOM      9  C   UNL     1      34.860 -20.171 -20.645  0.00  0.00    +0.005 C 
ENDBRANCH   1   7
BRANCH   2  10
ATOM     10  C   UNL     1      34.034 -14.469 -22.317  0.00  0.00    +0.025 C 
ATOM     11  C   UNL     1      32.664 -14.409 -21.617  0.00  0.00    +0.005 C 
ATOM     12  C   UNL     1      34.020 -13.584 -23.576  0.00  0.00    +0.005 C 
ENDBRANCH   2  10
BRANCH   3  13
ATOM     13  O   UNL     1      34.941 -16.262 -20.303  0.00  0.00    -0.506 OA
ATOM     14  H   UNL     1      35.667 -16.481 -19.753  0.00  0.00    +0.292 HD
ENDBRANCH   3  13
TORSDOF 3
ENDMDL
MODEL 2
REMARK VINA RESULT:      -7.1      0.029      4.565
REMARK  Name = 4943
REMARK  3 active torsions:
REMARK  status: ('A' for Active; 'I' for Inactive)
REMARK    1  A    between atoms: C_1  and  C_7
REMARK    2  A    between atoms: C_2  and  C_10
REMARK    3  A    between atoms: C_3  and  O_13
REMARK                            x       y       z     vdW  Elec       q    Type
REMARK                         _______ _______ _______ _____ _____    ______ ____
ROOT
ATOM      1  C   UNL     1      34.481 -15.871 -22.625  0.00  0.00    +0.011 C 
ATOM      2  C   UNL     1      35.288 -18.024 -21.883  0.00  0.00    +0.011 C 
ATOM      3  C   UNL     1      34.905 -16.713 -21.598  0.00  0.00    +0.126 C 
ATOM      4  C   UNL     1      34.439 -16.339 -23.939  0.00  0.00    -0.001 C 
ATOM      5  C   UNL     1      35.248 -18.491 -23.197  0.00  0.00    -0.001 C 
ATOM      6  C   UNL     1      34.823 -17.649 -24.224  0.00  0.00    -0.000 C 
ENDROOT
BRANCH   1   7
ATOM      7  C   UNL     1      34.064 -14.465 -22.340  0.00  0.00    +0.025 C 
ATOM      8  C   UNL     1      32.697 -14.390 -21.636  0.00  0.00    +0.005 C 
ATOM      9  C   UNL     1      34.052 -13.589 -23.605  0.00  0.00    +0.005 C 
ENDBRANCH   1   7
BRANCH   2  10
ATOM     10  C   UNL     1      35.746 -18.941 -20.798  0.00  0.00    +0.025 C 
ATOM     11  C   UNL     1      37.199 -19.410 -21.000  0.00  0.00    +0.005 C 
ATOM     12  C   UNL     1      34.820 -20.159 -20.629  0.00  0.00    +0.005 C 
ENDBRANCH   2  10
BRANCH   3  13
ATOM     13  O   UNL     1      34.944 -16.255 -20.314  0.00  0.00    -0.506 OA
ATOM     14  H   UNL     1      35.739 -15.899 -19.968  0.00  0.00    +0.292 HD
ENDBRANCH   3  13
TORSDOF 3
ENDMDL
MODEL 3
REMARK VINA RESULT:      -7.1      2.282      4.202
REMARK  Name = 4943
REMARK  3 active torsions:
REMARK  status: ('A' for Active; 'I' for Inactive)
REMARK    1  A    between atoms: C_1  and  C_7
REMARK    2  A    between atoms: C_2  and  C_10
REMARK    3  A    between atoms: C_3  and  O_13
REMARK                            x       y       z     vdW  Elec       q    Type
REMARK                         _______ _______ _______ _____ _____    ______ ____
ROOT
ATOM      1  C   UNL     1      34.726 -21.043 -19.726  0.00  0.00    +0.011 C 
ATOM      2  C   UNL     1      34.796 -19.173 -21.254  0.00  0.00    +0.011 C 
ATOM      3  C   UNL     1      35.457 -20.136 -20.493  0.00  0.00    +0.126 C 
ATOM      4  C   UNL     1      33.332 -20.987 -19.721  0.00  0.00    -0.001 C 
ATOM      5  C   UNL     1      33.402 -19.115 -21.248  0.00  0.00    -0.001 C 
ATOM      6  C   UNL     1      32.670 -20.023 -20.482  0.00  0.00    -0.000 C 
ENDROOT
BRANCH   1   7
ATOM      7  C   UNL     1      35.415 -22.083 -18.905  0.00  0.00    +0.025 C 
ATOM      8  C   UNL     1      34.440 -22.860 -18.003  0.00  0.00    +0.005 C 
ATOM      9  C   UNL     1      36.560 -21.498 -18.059  0.00  0.00    +0.005 C 
ENDBRANCH   1   7
BRANCH   2  10
ATOM     10  C   UNL     1      35.561 -18.192 -22.080  0.00  0.00    +0.025 C 
ATOM     11  C   UNL     1      35.109 -16.740 -21.836  0.00  0.00    +0.005 C 
ATOM     12  C   UNL     1      35.497 -18.515 -23.584  0.00  0.00    +0.005 C 
ENDBRANCH   2  10
BRANCH   3  13
ATOM     13  O   UNL     1      36.820 -20.192 -20.497  0.00  0.00    -0.506 OA
ATOM     14  H   UNL     1      37.316 -19.568 -20.005  0.00  0.00    +0.292 HD
ENDBRANCH   3  13
TORSDOF 3
ENDMDL
MODEL 4
REMARK VINA RESULT:      -7.0      2.354      5.788
REMARK  Name = 4943
REMARK  3 active torsions:
REMARK  status: ('A' for Active; 'I' for Inactive)
REMARK    1  A    between atoms: C_1  and  C_7
REMARK    2  A    between atoms: C_2  and  C_10
REMARK    3  A    between atoms: C_3  and  O_13
REMARK                            x       y       z     vdW  Elec       q    Type
REMARK                         _______ _______ _______ _____ _____    ______ ____
ROOT
ATOM      1  C   UNL     1      34.803 -19.346 -21.267  0.00  0.00    +0.011 C 
ATOM      2  C   UNL     1      34.751 -21.133 -19.642  0.00  0.00    +0.011 C 
ATOM      3  C   UNL     1      35.473 -20.265 -20.461  0.00  0.00    +0.126 C 
ATOM      4  C   UNL     1      33.409 -19.293 -21.254  0.00  0.00    -0.001 C 
ATOM      5  C   UNL     1      33.357 -21.081 -19.630  0.00  0.00    -0.001 C 
ATOM      6  C   UNL     1      32.686 -20.161 -20.435  0.00  0.00    -0.000 C 
ENDROOT
BRANCH   1   7
ATOM      7  C   UNL     1      35.558 -18.407 -22.150  0.00  0.00    +0.025 C 
ATOM      8  C   UNL     1      35.207 -16.933 -21.875  0.00  0.00    +0.005 C 
ATOM      9  C   UNL     1      35.365 -18.723 -23.644  0.00  0.00    +0.005 C 
ENDBRANCH   1   7
BRANCH   2  10
ATOM     10  C   UNL     1      35.451 -22.126 -18.773  0.00  0.00    +0.025 C 
ATOM     11  C   UNL     1      34.487 -22.847 -17.813  0.00  0.00    +0.005 C 
ATOM     12  C   UNL     1      36.609 -21.496 -17.979  0.00  0.00    +0.005 C 
ENDBRANCH   2  10
BRANCH   3  13
ATOM     13  O   UNL     1      36.836 -20.315 -20.475  0.00  0.00    -0.506 OA
ATOM     14  H   UNL     1      37.274 -21.102 -20.735  0.00  0.00    +0.292 HD
ENDBRANCH   3  13
TORSDOF 3
ENDMDL
MODEL 5
REMARK VINA RESULT:      -6.9      1.523      2.628
REMARK  Name = 4943
REMARK  3 active torsions:
REMARK  status: ('A' for Active; 'I' for Inactive)
REMARK    1  A    between atoms: C_1  and  C_7
REMARK    2  A    between atoms: C_2  and  C_10
REMARK    3  A    between atoms: C_3  and  O_13
REMARK                            x       y       z     vdW  Elec       q    Type
REMARK                         _______ _______ _______ _____ _____    ______ ____
ROOT
ATOM      1  C   UNL     1      34.708 -16.971 -22.241  0.00  0.00    +0.011 C 
ATOM      2  C   UNL     1      33.869 -14.860 -23.065  0.00  0.00    +0.011 C 
ATOM      3  C   UNL     1      34.709 -15.965 -23.207  0.00  0.00    +0.126 C 
ATOM      4  C   UNL     1      33.866 -16.872 -21.133  0.00  0.00    -0.001 C 
ATOM      5  C   UNL     1      33.029 -14.761 -21.956  0.00  0.00    -0.001 C 
ATOM      6  C   UNL     1      33.028 -15.767 -20.990  0.00  0.00    -0.000 C 
ENDROOT
BRANCH   1   7
ATOM      7  C   UNL     1      35.598 -18.163 -22.376  0.00  0.00    +0.025 C 
ATOM      8  C   UNL     1      34.940 -19.298 -23.182  0.00  0.00    +0.005 C 
ATOM      9  C   UNL     1      36.074 -18.696 -21.013  0.00  0.00    +0.005 C 
ENDBRANCH   1   7
BRANCH   2  10
ATOM     10  C   UNL     1      33.857 -13.772 -24.088  0.00  0.00    +0.025 C 
ATOM     11  C   UNL     1      33.429 -12.416 -23.497  0.00  0.00    +0.005 C 
ATOM     12  C   UNL     1      32.975 -14.117 -25.302  0.00  0.00    +0.005 C 
ENDBRANCH   2  10
BRANCH   3  13
ATOM     13  O   UNL     1      35.531 -16.063 -24.291  0.00  0.00    -0.506 OA
ATOM     14  H   UNL     1      35.166 -16.115 -25.153  0.00  0.00    +0.292 HD
ENDBRANCH   3  13
TORSDOF 3
ENDMDL
MODEL 6
REMARK VINA RESULT:      -6.9      1.526      5.091
REMARK  Name = 4943
REMARK  3 active torsions:
REMARK  status: ('A' for Active; 'I' for Inactive)
REMARK    1  A    between atoms: C_1  and  C_7
REMARK    2  A    between atoms: C_2  and  C_10
REMARK    3  A    between atoms: C_3  and  O_13
REMARK                            x       y       z     vdW  Elec       q    Type
REMARK                         _______ _______ _______ _____ _____    ______ ____
ROOT
ATOM      1  C   UNL     1      33.881 -14.859 -23.086  0.00  0.00    +0.011 C 
ATOM      2  C   UNL     1      34.711 -16.969 -22.252  0.00  0.00    +0.011 C 
ATOM      3  C   UNL     1      34.717 -15.967 -23.221  0.00  0.00    +0.126 C 
ATOM      4  C   UNL     1      33.038 -14.753 -21.979  0.00  0.00    -0.001 C 
ATOM      5  C   UNL     1      33.867 -16.864 -21.146  0.00  0.00    -0.001 C 
ATOM      6  C   UNL     1      33.031 -15.755 -21.010  0.00  0.00    -0.000 C 
ENDROOT
BRANCH   1   7
ATOM      7  C   UNL     1      33.875 -13.775 -24.113  0.00  0.00    +0.025 C 
ATOM      8  C   UNL     1      33.477 -12.409 -23.522  0.00  0.00    +0.005 C 
ATOM      9  C   UNL     1      32.972 -14.109 -25.314  0.00  0.00    +0.005 C 
ENDBRANCH   1   7
BRANCH   2  10
ATOM     10  C   UNL     1      35.597 -18.164 -22.380  0.00  0.00    +0.025 C 
ATOM     11  C   UNL     1      34.944 -19.296 -23.194  0.00  0.00    +0.005 C 
ATOM     12  C   UNL     1      36.059 -18.701 -21.013  0.00  0.00    +0.005 C 
ENDBRANCH   2  10
BRANCH   3  13
ATOM     13  O   UNL     1      35.542 -16.070 -24.303  0.00  0.00    -0.506 OA
ATOM     14  H   UNL     1      35.261 -16.542 -25.063  0.00  0.00    +0.292 HD
ENDBRANCH   3  13
TORSDOF 3
ENDMDL
MODEL 7
REMARK VINA RESULT:      -6.8      2.587      6.223
REMARK  Name = 4943
REMARK  3 active torsions:
REMARK  status: ('A' for Active; 'I' for Inactive)
REMARK    1  A    between atoms: C_1  and  C_7
REMARK    2  A    between atoms: C_2  and  C_10
REMARK    3  A    between atoms: C_3  and  O_13
REMARK                            x       y       z     vdW  Elec       q    Type
REMARK                         _______ _______ _______ _____ _____    ______ ____
ROOT
ATOM      1  C   UNL     1      34.886 -19.672 -20.874  0.00  0.00    +0.011 C 
ATOM      2  C   UNL     1      34.687 -21.584 -19.410  0.00  0.00    +0.011 C 
ATOM      3  C   UNL     1      34.099 -20.644 -20.256  0.00  0.00    +0.126 C 
ATOM      4  C   UNL     1      36.262 -19.641 -20.647  0.00  0.00    -0.001 C 
ATOM      5  C   UNL     1      36.063 -21.552 -19.181  0.00  0.00    -0.001 C 
ATOM      6  C   UNL     1      36.850 -20.581 -19.800  0.00  0.00    -0.000 C 
ENDROOT
BRANCH   1   7
ATOM      7  C   UNL     1      34.276 -18.658 -21.785  0.00  0.00    +0.025 C 
ATOM      8  C   UNL     1      34.745 -18.820 -23.242  0.00  0.00    +0.005 C 
ATOM      9  C   UNL     1      34.529 -17.216 -21.310  0.00  0.00    +0.005 C 
ENDBRANCH   1   7
BRANCH   2  10
ATOM     10  C   UNL     1      33.862 -22.631 -18.737  0.00  0.00    +0.025 C 
ATOM     11  C   UNL     1      34.268 -22.845 -17.268  0.00  0.00    +0.005 C 
ATOM     12  C   UNL     1      33.889 -23.973 -19.490  0.00  0.00    +0.005 C 
ENDBRANCH   2  10
BRANCH   3  13
ATOM     13  O   UNL     1      32.754 -20.674 -20.479  0.00  0.00    -0.506 OA
ATOM     14  H   UNL     1      32.334 -19.953 -20.907  0.00  0.00    +0.292 HD
ENDBRANCH   3  13
TORSDOF 3
ENDMDL
MODEL 8
REMARK VINA RESULT:      -6.7      2.583      4.787
REMARK  Name = 4943
REMARK  3 active torsions:
REMARK  status: ('A' for Active; 'I' for Inactive)
REMARK    1  A    between atoms: C_1  and  C_7
REMARK    2  A    between atoms: C_2  and  C_10
REMARK    3  A    between atoms: C_3  and  O_13
REMARK                            x       y       z     vdW  Elec       q    Type
REMARK                         _______ _______ _______ _____ _____    ______ ____
ROOT
ATOM      1  C   UNL     1      34.686 -21.589 -19.422  0.00  0.00    +0.011 C 
ATOM      2  C   UNL     1      34.889 -19.661 -20.863  0.00  0.00    +0.011 C 
ATOM      3  C   UNL     1      34.099 -20.635 -20.253  0.00  0.00    +0.126 C 
ATOM      4  C   UNL     1      36.063 -21.569 -19.199  0.00  0.00    -0.001 C 
ATOM      5  C   UNL     1      36.266 -19.642 -20.642  0.00  0.00    -0.001 C 
ATOM      6  C   UNL     1      36.853 -20.595 -19.810  0.00  0.00    -0.000 C 
ENDROOT
BRANCH   1   7
ATOM      7  C   UNL     1      33.857 -22.639 -18.758  0.00  0.00    +0.025 C 
ATOM      8  C   UNL     1      34.248 -22.851 -17.283  0.00  0.00    +0.005 C 
ATOM      9  C   UNL     1      33.899 -23.982 -19.509  0.00  0.00    +0.005 C 
ENDBRANCH   1   7
BRANCH   2  10
ATOM     10  C   UNL     1      34.281 -18.632 -21.758  0.00  0.00    +0.025 C 
ATOM     11  C   UNL     1      34.681 -18.825 -23.232  0.00  0.00    +0.005 C 
ATOM     12  C   UNL     1      34.609 -17.197 -21.309  0.00  0.00    +0.005 C 
ENDBRANCH   2  10
BRANCH   3  13
ATOM     13  O   UNL     1      32.753 -20.656 -20.469  0.00  0.00    -0.506 OA
ATOM     14  H   UNL     1      32.195 -21.151 -19.902  0.00  0.00    +0.292 HD
ENDBRANCH   3  13
TORSDOF 3
ENDMDL
MODEL 9
REMARK VINA RESULT:      -6.7      8.321     10.041
REMARK  Name = 4943
REMARK  3 active torsions:
REMARK  status: ('A' for Active; 'I' for Inactive)
REMARK    1  A    between atoms: C_1  and  C_7
REMARK    2  A    between atoms: C_2  and  C_10
REMARK    3  A    between atoms: C_3  and  O_13
REMARK                            x       y       z     vdW  Elec       q    Type
REMARK                         _______ _______ _______ _____ _____    ______ ____
ROOT
ATOM      1  C   UNL     1      32.278 -23.332 -15.355  0.00  0.00    +0.011 C 
ATOM      2  C   UNL     1      34.651 -23.126 -15.764  0.00  0.00    +0.011 C 
ATOM      3  C   UNL     1      33.588 -23.292 -14.876  0.00  0.00    +0.126 C 
ATOM      4  C   UNL     1      32.032 -23.207 -16.722  0.00  0.00    -0.001 C 
ATOM      5  C   UNL     1      34.404 -23.000 -17.131  0.00  0.00    -0.001 C 
ATOM      6  C   UNL     1      33.094 -23.041 -17.610  0.00  0.00    -0.000 C 
ENDROOT
BRANCH   1   7
ATOM      7  C   UNL     1      31.127 -23.510 -14.421  0.00  0.00    +0.025 C 
ATOM      8  C   UNL     1      30.800 -24.993 -14.169  0.00  0.00    +0.005 C 
ATOM      9  C   UNL     1      29.865 -22.768 -14.897  0.00  0.00    +0.005 C 
ENDBRANCH   1   7
BRANCH   2  10
ATOM     10  C   UNL     1      36.059 -23.079 -15.271  0.00  0.00    +0.025 C 
ATOM     11  C   UNL     1      36.963 -22.204 -16.159  0.00  0.00    +0.005 C 
ATOM     12  C   UNL     1      36.674 -24.481 -15.117  0.00  0.00    +0.005 C 
ENDBRANCH   2  10
BRANCH   3  13
ATOM     13  O   UNL     1      33.828 -23.414 -13.539  0.00  0.00    -0.506 OA
ATOM     14  H   UNL     1      34.578 -23.889 -13.239  0.00  0.00    +0.292 HD
ENDBRANCH   3  13
TORSDOF 3
ENDMDL
