MODEL 1
REMARK VINA RESULT:      -9.7      0.000      0.000
REMARK  Name = 5322
REMARK  4 active torsions:
REMARK  status: ('A' for Active; 'I' for Inactive)
REMARK    1  A    between atoms: S_1  and  N_6
REMARK    2  A    between atoms: S_1  and  C_15
REMARK    3  A    between atoms: N_5  and  C_13
REMARK    4  A    between atoms: C_20  and  N_21
REMARK                            x       y       z     vdW  Elec       q    Type
REMARK                         _______ _______ _______ _____ _____    ______ ____
ROOT
ATOM      1  S   UNL     1      35.963 -18.730 -22.055  0.00  0.00    +0.075 S 
ATOM      2  O   UNL     1      37.340 -18.794 -21.603  0.00  0.00    -0.150 OA
ATOM      3  O   UNL     1      35.623 -19.058 -23.425  0.00  0.00    -0.150 OA
ENDROOT
BRANCH   1   6
ATOM      4  O   UNL     1      34.060 -15.992 -25.952  0.00  0.00    -0.193 OA
ATOM      5  N   UNL     1      33.669 -14.488 -24.242  0.00  0.00    -0.205 N 
ATOM      6  N   UNL     1      35.307 -17.204 -21.667  0.00  0.00    -0.188 N 
ATOM      7  N   UNL     1      34.687 -16.624 -23.860  0.00  0.00    -0.304 NA
ATOM      8  C   UNL     1      34.751 -16.307 -22.611  0.00  0.00    +0.214 C 
ATOM      9  C   UNL     1      33.759 -14.193 -22.897  0.00  0.00    +0.081 C 
ATOM     10  C   UNL     1      34.287 -15.046 -22.018  0.00  0.00    +0.067 C 
ATOM     11  C   UNL     1      34.135 -15.718 -24.753  0.00  0.00    +0.274 C 
ATOM     12  H   UNL     1      35.317 -16.927 -20.722  0.00  0.00    +0.176 HD
BRANCH   5  13
ATOM     13  C   UNL     1      33.082 -13.511 -25.151  0.00  0.00    +0.109 C 
ATOM     14  C   UNL     1      33.798 -12.180 -25.021  0.00  0.00    +0.025 C 
ENDBRANCH   5  13
ENDBRANCH   1   6
BRANCH   1  15
ATOM     15  C   UNL     1      34.998 -19.784 -21.015  0.00  0.00    +0.125 C 
ATOM     16  C   UNL     1      35.630 -20.771 -20.279  0.00  0.00    +0.021 C 
ATOM     17  C   UNL     1      33.626 -19.606 -20.958  0.00  0.00    +0.021 C 
ATOM     18  C   UNL     1      34.869 -21.604 -19.460  0.00  0.00    +0.015 C 
ATOM     19  C   UNL     1      32.865 -20.438 -20.138  0.00  0.00    +0.015 C 
ATOM     20  C   UNL     1      33.486 -21.437 -19.389  0.00  0.00    +0.042 C 
BRANCH  20  21
ATOM     21  N   UNL     1      32.716 -22.278 -18.559  0.00  0.00    -0.357 N 
ATOM     22  H   UNL     1      31.785 -22.042 -18.347  0.00  0.00    +0.142 HD
ATOM     23  H   UNL     1      33.110 -23.103 -18.192  0.00  0.00    +0.142 HD
ENDBRANCH  20  21
ENDBRANCH   1  15
TORSDOF 4
ENDMDL
MODEL 2
REMARK VINA RESULT:      -9.7      1.261      1.800
REMARK  Name = 5322
REMARK  4 active torsions:
REMARK  status: ('A' for Active; 'I' for Inactive)
REMARK    1  A    between atoms: S_1  and  N_6
REMARK    2  A    between atoms: S_1  and  C_15
REMARK    3  A    between atoms: N_5  and  C_13
REMARK    4  A    between atoms: C_20  and  N_21
REMARK                            x       y       z     vdW  Elec       q    Type
REMARK                         _______ _______ _______ _____ _____    ______ ____
ROOT
ATOM      1  S   UNL     1      35.884 -18.819 -21.559  0.00  0.00    +0.075 S 
ATOM      2  O   UNL     1      37.320 -18.920 -21.384  0.00  0.00    -0.150 OA
ATOM      3  O   UNL     1      35.299 -18.880 -22.884  0.00  0.00    -0.150 OA
ENDROOT
BRANCH   1   6
ATOM      4  O   UNL     1      33.498 -15.326 -24.459  0.00  0.00    -0.193 OA
ATOM      5  N   UNL     1      33.370 -14.240 -22.423  0.00  0.00    -0.205 N 
ATOM      6  N   UNL     1      35.310 -17.426 -20.759  0.00  0.00    -0.188 N 
ATOM      7  N   UNL     1      34.400 -16.390 -22.664  0.00  0.00    -0.304 NA
ATOM      8  C   UNL     1      34.641 -16.354 -21.397  0.00  0.00    +0.214 C 
ATOM      9  C   UNL     1      33.649 -14.246 -21.073  0.00  0.00    +0.081 C 
ATOM     10  C   UNL     1      34.281 -15.262 -20.483  0.00  0.00    +0.067 C 
ATOM     11  C   UNL     1      33.742 -15.320 -23.252  0.00  0.00    +0.274 C 
ATOM     12  H   UNL     1      35.455 -17.363 -19.787  0.00  0.00    +0.176 HD
BRANCH   5  13
ATOM     13  C   UNL     1      32.676 -13.097 -23.006  0.00  0.00    +0.109 C 
ATOM     14  C   UNL     1      31.866 -12.380 -21.944  0.00  0.00    +0.025 C 
ENDBRANCH   5  13
ENDBRANCH   1   6
BRANCH   1  15
ATOM     15  C   UNL     1      35.126 -20.095 -20.599  0.00  0.00    +0.125 C 
ATOM     16  C   UNL     1      33.745 -20.162 -20.533  0.00  0.00    +0.021 C 
ATOM     17  C   UNL     1      35.928 -21.002 -19.927  0.00  0.00    +0.021 C 
ATOM     18  C   UNL     1      33.147 -21.167 -19.774  0.00  0.00    +0.015 C 
ATOM     19  C   UNL     1      35.329 -22.009 -19.169  0.00  0.00    +0.015 C 
ATOM     20  C   UNL     1      33.939 -22.091 -19.092  0.00  0.00    +0.042 C 
BRANCH  20  21
ATOM     21  N   UNL     1      33.335 -23.109 -18.326  0.00  0.00    -0.357 N 
ATOM     22  H   UNL     1      32.514 -23.546 -18.648  0.00  0.00    +0.142 HD
ATOM     23  H   UNL     1      33.735 -23.384 -17.469  0.00  0.00    +0.142 HD
ENDBRANCH  20  21
ENDBRANCH   1  15
TORSDOF 4
ENDMDL
MODEL 3
REMARK VINA RESULT:      -9.5      5.111      9.819
REMARK  Name = 5322
REMARK  4 active torsions:
REMARK  status: ('A' for Active; 'I' for Inactive)
REMARK    1  A    between atoms: S_1  and  N_6
REMARK    2  A    between atoms: S_1  and  C_15
REMARK    3  A    between atoms: N_5  and  C_13
REMARK    4  A    between atoms: C_20  and  N_21
REMARK                            x       y       z     vdW  Elec       q    Type
REMARK                         _______ _______ _______ _____ _____    ______ ____
ROOT
ATOM      1  S   UNL     1      33.720 -22.681 -18.576  0.00  0.00    +0.075 S 
ATOM      2  O   UNL     1      32.460 -22.436 -17.900  0.00  0.00    -0.150 OA
ATOM      3  O   UNL     1      33.908 -23.879 -19.369  0.00  0.00    -0.150 OA
ENDROOT
BRANCH   1   6
ATOM      4  O   UNL     1      32.967 -24.786 -13.960  0.00  0.00    -0.193 OA
ATOM      5  N   UNL     1      35.087 -23.936 -13.616  0.00  0.00    -0.205 N 
ATOM      6  N   UNL     1      35.001 -22.546 -17.456  0.00  0.00    -0.188 N 
ATOM      7  N   UNL     1      33.933 -23.692 -15.702  0.00  0.00    -0.304 NA
ATOM      8  C   UNL     1      34.967 -23.053 -16.136  0.00  0.00    +0.214 C 
ATOM      9  C   UNL     1      36.170 -23.248 -14.123  0.00  0.00    +0.081 C 
ATOM     10  C   UNL     1      36.189 -22.773 -15.370  0.00  0.00    +0.067 C 
ATOM     11  C   UNL     1      33.939 -24.173 -14.402  0.00  0.00    +0.274 C 
ATOM     12  H   UNL     1      35.819 -22.082 -17.749  0.00  0.00    +0.176 HD
BRANCH   5  13
ATOM     13  C   UNL     1      35.130 -24.427 -12.244  0.00  0.00    +0.109 C 
ATOM     14  C   UNL     1      36.299 -23.808 -11.503  0.00  0.00    +0.025 C 
ENDBRANCH   5  13
ENDBRANCH   1   6
BRANCH   1  15
ATOM     15  C   UNL     1      34.050 -21.302 -19.632  0.00  0.00    +0.125 C 
ATOM     16  C   UNL     1      35.359 -21.005 -19.967  0.00  0.00    +0.021 C 
ATOM     17  C   UNL     1      32.992 -20.544 -20.103  0.00  0.00    +0.021 C 
ATOM     18  C   UNL     1      35.619 -19.916 -20.799  0.00  0.00    +0.015 C 
ATOM     19  C   UNL     1      33.252 -19.456 -20.936  0.00  0.00    +0.015 C 
ATOM     20  C   UNL     1      34.566 -19.142 -21.284  0.00  0.00    +0.042 C 
BRANCH  20  21
ATOM     21  N   UNL     1      34.828 -18.042 -22.127  0.00  0.00    -0.357 N 
ATOM     22  H   UNL     1      35.034 -17.162 -21.739  0.00  0.00    +0.142 HD
ATOM     23  H   UNL     1      34.805 -18.155 -23.105  0.00  0.00    +0.142 HD
ENDBRANCH  20  21
ENDBRANCH   1  15
TORSDOF 4
ENDMDL
MODEL 4
REMARK VINA RESULT:      -9.4      1.397      2.174
REMARK  Name = 5322
REMARK  4 active torsions:
REMARK  status: ('A' for Active; 'I' for Inactive)
REMARK    1  A    between atoms: S_1  and  N_6
REMARK    2  A    between atoms: S_1  and  C_15
REMARK    3  A    between atoms: N_5  and  C_13
REMARK    4  A    between atoms: C_20  and  N_21
REMARK                            x       y       z     vdW  Elec       q    Type
REMARK                         _______ _______ _______ _____ _____    ______ ____
ROOT
ATOM      1  S   UNL     1      36.074 -18.438 -21.378  0.00  0.00    +0.075 S 
ATOM      2  O   UNL     1      35.720 -17.228 -20.660  0.00  0.00    -0.150 OA
ATOM      3  O   UNL     1      37.460 -18.847 -21.491  0.00  0.00    -0.150 OA
ENDROOT
BRANCH   1   6
ATOM      4  O   UNL     1      34.243 -13.918 -22.966  0.00  0.00    -0.193 OA
ATOM      5  N   UNL     1      33.693 -15.189 -24.815  0.00  0.00    -0.205 N 
ATOM      6  N   UNL     1      35.374 -18.401 -22.933  0.00  0.00    -0.188 N 
ATOM      7  N   UNL     1      34.816 -16.117 -22.912  0.00  0.00    -0.304 NA
ATOM      8  C   UNL     1      34.808 -17.250 -23.531  0.00  0.00    +0.214 C 
ATOM      9  C   UNL     1      33.708 -16.420 -25.437  0.00  0.00    +0.081 C 
ATOM     10  C   UNL     1      34.244 -17.498 -24.864  0.00  0.00    +0.067 C 
ATOM     11  C   UNL     1      34.251 -15.012 -23.531  0.00  0.00    +0.274 C 
ATOM     12  H   UNL     1      35.362 -19.239 -23.451  0.00  0.00    +0.176 HD
BRANCH   5  13
ATOM     13  C   UNL     1      33.090 -14.049 -25.497  0.00  0.00    +0.109 C 
ATOM     14  C   UNL     1      33.410 -14.097 -26.978  0.00  0.00    +0.025 C 
ENDBRANCH   5  13
ENDBRANCH   1   6
BRANCH   1  15
ATOM     15  C   UNL     1      35.194 -19.784 -20.645  0.00  0.00    +0.125 C 
ATOM     16  C   UNL     1      33.811 -19.799 -20.701  0.00  0.00    +0.021 C 
ATOM     17  C   UNL     1      35.904 -20.798 -20.025  0.00  0.00    +0.021 C 
ATOM     18  C   UNL     1      33.117 -20.861 -20.122  0.00  0.00    +0.015 C 
ATOM     19  C   UNL     1      35.210 -21.861 -19.446  0.00  0.00    +0.015 C 
ATOM     20  C   UNL     1      33.817 -21.891 -19.494  0.00  0.00    +0.042 C 
BRANCH  20  21
ATOM     21  N   UNL     1      33.115 -22.966 -18.909  0.00  0.00    -0.357 N 
ATOM     22  H   UNL     1      32.144 -22.900 -18.764  0.00  0.00    +0.142 HD
ATOM     23  H   UNL     1      33.597 -23.784 -18.646  0.00  0.00    +0.142 HD
ENDBRANCH  20  21
ENDBRANCH   1  15
TORSDOF 4
ENDMDL
MODEL 5
REMARK VINA RESULT:      -9.3      3.811      5.707
REMARK  Name = 5322
REMARK  4 active torsions:
REMARK  status: ('A' for Active; 'I' for Inactive)
REMARK    1  A    between atoms: S_1  and  N_6
REMARK    2  A    between atoms: S_1  and  C_15
REMARK    3  A    between atoms: N_5  and  C_13
REMARK    4  A    between atoms: C_20  and  N_21
REMARK                            x       y       z     vdW  Elec       q    Type
REMARK                         _______ _______ _______ _____ _____    ______ ____
ROOT
ATOM      1  S   UNL     1      33.917 -23.072 -18.417  0.00  0.00    +0.075 S 
ATOM      2  O   UNL     1      35.249 -22.610 -18.077  0.00  0.00    -0.150 OA
ATOM      3  O   UNL     1      33.732 -24.321 -19.130  0.00  0.00    -0.150 OA
ENDROOT
BRANCH   1   6
ATOM      4  O   UNL     1      36.778 -19.481 -20.702  0.00  0.00    -0.193 OA
ATOM      5  N   UNL     1      34.686 -18.650 -21.226  0.00  0.00    -0.205 N 
ATOM      6  N   UNL     1      33.077 -21.833 -19.235  0.00  0.00    -0.188 N 
ATOM      7  N   UNL     1      34.984 -20.665 -19.964  0.00  0.00    -0.304 NA
ATOM      8  C   UNL     1      33.697 -20.754 -19.909  0.00  0.00    +0.214 C 
ATOM      9  C   UNL     1      33.317 -18.787 -21.143  0.00  0.00    +0.081 C 
ATOM     10  C   UNL     1      32.743 -19.808 -20.503  0.00  0.00    +0.067 C 
ATOM     11  C   UNL     1      35.553 -19.593 -20.634  0.00  0.00    +0.274 C 
ATOM     12  H   UNL     1      32.093 -21.870 -19.237  0.00  0.00    +0.176 HD
BRANCH   5  13
ATOM     13  C   UNL     1      35.249 -17.510 -21.940  0.00  0.00    +0.109 C 
ATOM     14  C   UNL     1      34.771 -16.214 -21.316  0.00  0.00    +0.025 C 
ENDBRANCH   5  13
ENDBRANCH   1   6
BRANCH   1  15
ATOM     15  C   UNL     1      32.980 -23.185 -16.923  0.00  0.00    +0.125 C 
ATOM     16  C   UNL     1      33.623 -23.523 -15.745  0.00  0.00    +0.021 C 
ATOM     17  C   UNL     1      31.618 -22.936 -16.959  0.00  0.00    +0.021 C 
ATOM     18  C   UNL     1      32.884 -23.613 -14.566  0.00  0.00    +0.015 C 
ATOM     19  C   UNL     1      30.879 -23.025 -15.779  0.00  0.00    +0.015 C 
ATOM     20  C   UNL     1      31.512 -23.365 -14.583  0.00  0.00    +0.042 C 
BRANCH  20  21
ATOM     21  N   UNL     1      30.763 -23.454 -13.391  0.00  0.00    -0.357 N 
ATOM     22  H   UNL     1      31.199 -23.740 -12.557  0.00  0.00    +0.142 HD
ATOM     23  H   UNL     1      29.804 -23.229 -13.393  0.00  0.00    +0.142 HD
ENDBRANCH  20  21
ENDBRANCH   1  15
TORSDOF 4
ENDMDL
MODEL 6
REMARK VINA RESULT:      -9.1      5.445     10.246
REMARK  Name = 5322
REMARK  4 active torsions:
REMARK  status: ('A' for Active; 'I' for Inactive)
REMARK    1  A    between atoms: S_1  and  N_6
REMARK    2  A    between atoms: S_1  and  C_15
REMARK    3  A    between atoms: N_5  and  C_13
REMARK    4  A    between atoms: C_20  and  N_21
REMARK                            x       y       z     vdW  Elec       q    Type
REMARK                         _______ _______ _______ _____ _____    ______ ____
ROOT
ATOM      1  S   UNL     1      33.395 -23.014 -17.850  0.00  0.00    +0.075 S 
ATOM      2  O   UNL     1      31.992 -22.699 -17.663  0.00  0.00    -0.150 OA
ATOM      3  O   UNL     1      33.799 -24.329 -18.307  0.00  0.00    -0.150 OA
ENDROOT
BRANCH   1   6
ATOM      4  O   UNL     1      36.044 -26.822 -15.662  0.00  0.00    -0.193 OA
ATOM      5  N   UNL     1      36.533 -25.142 -14.153  0.00  0.00    -0.205 N 
ATOM      6  N   UNL     1      34.259 -22.627 -16.431  0.00  0.00    -0.188 N 
ATOM      7  N   UNL     1      35.148 -24.774 -16.074  0.00  0.00    -0.304 NA
ATOM      8  C   UNL     1      35.032 -23.548 -15.686  0.00  0.00    +0.214 C 
ATOM      9  C   UNL     1      36.380 -23.823 -13.778  0.00  0.00    +0.081 C 
ATOM     10  C   UNL     1      35.648 -22.963 -14.488  0.00  0.00    +0.067 C 
ATOM     11  C   UNL     1      35.915 -25.647 -15.317  0.00  0.00    +0.274 C 
ATOM     12  H   UNL     1      34.216 -21.697 -16.107  0.00  0.00    +0.176 HD
BRANCH   5  13
ATOM     13  C   UNL     1      37.347 -26.030 -13.332  0.00  0.00    +0.109 C 
ATOM     14  C   UNL     1      38.771 -25.515 -13.258  0.00  0.00    +0.025 C 
ENDBRANCH   5  13
ENDBRANCH   1   6
BRANCH   1  15
ATOM     15  C   UNL     1      34.071 -21.841 -18.986  0.00  0.00    +0.125 C 
ATOM     16  C   UNL     1      35.445 -21.762 -19.139  0.00  0.00    +0.021 C 
ATOM     17  C   UNL     1      33.214 -21.021 -19.701  0.00  0.00    +0.021 C 
ATOM     18  C   UNL     1      35.978 -20.835 -20.035  0.00  0.00    +0.015 C 
ATOM     19  C   UNL     1      33.748 -20.095 -20.597  0.00  0.00    +0.015 C 
ATOM     20  C   UNL     1      35.130 -20.002 -20.764  0.00  0.00    +0.042 C 
BRANCH  20  21
ATOM     21  N   UNL     1      35.668 -19.066 -21.671  0.00  0.00    -0.357 N 
ATOM     22  H   UNL     1      35.540 -19.188 -22.639  0.00  0.00    +0.142 HD
ATOM     23  H   UNL     1      36.173 -18.289 -21.336  0.00  0.00    +0.142 HD
ENDBRANCH  20  21
ENDBRANCH   1  15
TORSDOF 4
ENDMDL
MODEL 7
REMARK VINA RESULT:      -9.0      4.539      9.388
REMARK  Name = 5322
REMARK  4 active torsions:
REMARK  status: ('A' for Active; 'I' for Inactive)
REMARK    1  A    between atoms: S_1  and  N_6
REMARK    2  A    between atoms: S_1  and  C_15
REMARK    3  A    between atoms: N_5  and  C_13
REMARK    4  A    between atoms: C_20  and  N_21
REMARK                            x       y       z     vdW  Elec       q    Type
REMARK                         _______ _______ _______ _____ _____    ______ ____
ROOT
ATOM      1  S   UNL     1      34.229 -22.668 -19.000  0.00  0.00    +0.075 S 
ATOM      2  O   UNL     1      34.230 -23.767 -19.948  0.00  0.00    -0.150 OA
ATOM      3  O   UNL     1      35.217 -22.611 -17.941  0.00  0.00    -0.150 OA
ENDROOT
BRANCH   1   6
ATOM      4  O   UNL     1      33.705 -24.060 -14.092  0.00  0.00    -0.193 OA
ATOM      5  N   UNL     1      31.519 -23.446 -14.518  0.00  0.00    -0.205 N 
ATOM      6  N   UNL     1      32.673 -22.504 -18.322  0.00  0.00    -0.188 N 
ATOM      7  N   UNL     1      33.237 -23.300 -16.182  0.00  0.00    -0.304 NA
ATOM      8  C   UNL     1      32.338 -22.849 -16.991  0.00  0.00    +0.214 C 
ATOM      9  C   UNL     1      30.593 -22.960 -15.417  0.00  0.00    +0.081 C 
ATOM     10  C   UNL     1      30.920 -22.639 -16.670  0.00  0.00    +0.067 C 
ATOM     11  C   UNL     1      32.870 -23.627 -14.886  0.00  0.00    +0.274 C 
ATOM     12  H   UNL     1      31.958 -22.145 -18.896  0.00  0.00    +0.176 HD
BRANCH   5  13
ATOM     13  C   UNL     1      31.096 -23.778 -13.163  0.00  0.00    +0.109 C 
ATOM     14  C   UNL     1      30.208 -25.007 -13.179  0.00  0.00    +0.025 C 
ENDBRANCH   5  13
ENDBRANCH   1   6
BRANCH   1  15
ATOM     15  C   UNL     1      34.359 -21.161 -19.913  0.00  0.00    +0.125 C 
ATOM     16  C   UNL     1      35.612 -20.692 -20.269  0.00  0.00    +0.021 C 
ATOM     17  C   UNL     1      33.206 -20.474 -20.253  0.00  0.00    +0.021 C 
ATOM     18  C   UNL     1      35.715 -19.502 -20.988  0.00  0.00    +0.015 C 
ATOM     19  C   UNL     1      33.309 -19.284 -20.973  0.00  0.00    +0.015 C 
ATOM     20  C   UNL     1      34.564 -18.798 -21.340  0.00  0.00    +0.042 C 
BRANCH  20  21
ATOM     21  N   UNL     1      34.667 -17.595 -22.069  0.00  0.00    -0.357 N 
ATOM     22  H   UNL     1      33.891 -16.994 -22.140  0.00  0.00    +0.142 HD
ATOM     23  H   UNL     1      35.517 -17.355 -22.507  0.00  0.00    +0.142 HD
ENDBRANCH  20  21
ENDBRANCH   1  15
TORSDOF 4
ENDMDL
MODEL 8
REMARK VINA RESULT:      -9.0      1.681      7.315
REMARK  Name = 5322
REMARK  4 active torsions:
REMARK  status: ('A' for Active; 'I' for Inactive)
REMARK    1  A    between atoms: S_1  and  N_6
REMARK    2  A    between atoms: S_1  and  C_15
REMARK    3  A    between atoms: N_5  and  C_13
REMARK    4  A    between atoms: C_20  and  N_21
REMARK                            x       y       z     vdW  Elec       q    Type
REMARK                         _______ _______ _______ _____ _____    ______ ____
ROOT
ATOM      1  S   UNL     1      35.330 -18.332 -22.823  0.00  0.00    +0.075 S 
ATOM      2  O   UNL     1      35.364 -18.913 -24.151  0.00  0.00    -0.150 OA
ATOM      3  O   UNL     1      36.528 -18.289 -22.009  0.00  0.00    -0.150 OA
ENDROOT
BRANCH   1   6
ATOM      4  O   UNL     1      36.710 -21.673 -19.185  0.00  0.00    -0.193 OA
ATOM      5  N   UNL     1      34.417 -21.796 -18.924  0.00  0.00    -0.205 N 
ATOM      6  N   UNL     1      34.068 -19.045 -21.922  0.00  0.00    -0.188 N 
ATOM      7  N   UNL     1      35.445 -20.366 -20.549  0.00  0.00    -0.304 NA
ATOM      8  C   UNL     1      34.258 -19.995 -20.891  0.00  0.00    +0.214 C 
ATOM      9  C   UNL     1      33.168 -21.369 -19.323  0.00  0.00    +0.081 C 
ATOM     10  C   UNL     1      33.002 -20.474 -20.298  0.00  0.00    +0.067 C 
ATOM     11  C   UNL     1      35.589 -21.299 -19.533  0.00  0.00    +0.274 C 
ATOM     12  H   UNL     1      33.145 -18.777 -22.135  0.00  0.00    +0.176 HD
BRANCH   5  13
ATOM     13  C   UNL     1      34.529 -22.779 -17.852  0.00  0.00    +0.109 C 
ATOM     14  C   UNL     1      33.151 -23.187 -17.371  0.00  0.00    +0.025 C 
ENDBRANCH   5  13
ENDBRANCH   1   6
BRANCH   1  15
ATOM     15  C   UNL     1      34.743 -16.671 -22.969  0.00  0.00    +0.125 C 
ATOM     16  C   UNL     1      34.299 -16.216 -24.198  0.00  0.00    +0.021 C 
ATOM     17  C   UNL     1      34.740 -15.855 -21.851  0.00  0.00    +0.021 C 
ATOM     18  C   UNL     1      33.837 -14.906 -24.314  0.00  0.00    +0.015 C 
ATOM     19  C   UNL     1      34.277 -14.544 -21.966  0.00  0.00    +0.015 C 
ATOM     20  C   UNL     1      33.826 -14.070 -23.198  0.00  0.00    +0.042 C 
BRANCH  20  21
ATOM     21  N   UNL     1      33.357 -12.744 -23.314  0.00  0.00    -0.357 N 
ATOM     22  H   UNL     1      33.868 -12.004 -22.914  0.00  0.00    +0.142 HD
ATOM     23  H   UNL     1      32.518 -12.559 -23.795  0.00  0.00    +0.142 HD
ENDBRANCH  20  21
ENDBRANCH   1  15
TORSDOF 4
ENDMDL
MODEL 9
REMARK VINA RESULT:      -8.7      2.077      2.354
REMARK  Name = 5322
REMARK  4 active torsions:
REMARK  status: ('A' for Active; 'I' for Inactive)
REMARK    1  A    between atoms: S_1  and  N_6
REMARK    2  A    between atoms: S_1  and  C_15
REMARK    3  A    between atoms: N_5  and  C_13
REMARK    4  A    between atoms: C_20  and  N_21
REMARK                            x       y       z     vdW  Elec       q    Type
REMARK                         _______ _______ _______ _____ _____    ______ ____
ROOT
ATOM      1  S   UNL     1      34.775 -17.425 -22.558  0.00  0.00    +0.075 S 
ATOM      2  O   UNL     1      36.088 -16.810 -22.585  0.00  0.00    -0.150 OA
ATOM      3  O   UNL     1      34.144 -17.864 -23.787  0.00  0.00    -0.150 OA
ENDROOT
BRANCH   1   6
ATOM      4  O   UNL     1      34.047 -12.712 -24.445  0.00  0.00    -0.193 OA
ATOM      5  N   UNL     1      32.670 -12.566 -22.595  0.00  0.00    -0.205 N 
ATOM      6  N   UNL     1      33.693 -16.419 -21.705  0.00  0.00    -0.188 N 
ATOM      7  N   UNL     1      33.899 -14.555 -23.123  0.00  0.00    -0.304 NA
ATOM      8  C   UNL     1      33.380 -15.088 -22.068  0.00  0.00    +0.214 C 
ATOM      9  C   UNL     1      32.140 -13.178 -21.479  0.00  0.00    +0.081 C 
ATOM     10  C   UNL     1      32.443 -14.433 -21.145  0.00  0.00    +0.067 C 
ATOM     11  C   UNL     1      33.567 -13.248 -23.446  0.00  0.00    +0.274 C 
ATOM     12  H   UNL     1      33.257 -16.790 -20.903  0.00  0.00    +0.176 HD
BRANCH   5  13
ATOM     13  C   UNL     1      32.297 -11.190 -22.903  0.00  0.00    +0.109 C 
ATOM     14  C   UNL     1      31.372 -10.647 -21.832  0.00  0.00    +0.025 C 
ENDBRANCH   5  13
ENDBRANCH   1   6
BRANCH   1  15
ATOM     15  C   UNL     1      34.850 -18.827 -21.484  0.00  0.00    +0.125 C 
ATOM     16  C   UNL     1      36.084 -19.287 -21.059  0.00  0.00    +0.021 C 
ATOM     17  C   UNL     1      33.673 -19.440 -21.090  0.00  0.00    +0.021 C 
ATOM     18  C   UNL     1      36.143 -20.394 -20.213  0.00  0.00    +0.015 C 
ATOM     19  C   UNL     1      33.732 -20.546 -20.243  0.00  0.00    +0.015 C 
ATOM     20  C   UNL     1      34.968 -21.024 -19.805  0.00  0.00    +0.042 C 
BRANCH  20  21
ATOM     21  N   UNL     1      35.027 -22.142 -18.947  0.00  0.00    -0.357 N 
ATOM     22  H   UNL     1      34.699 -22.072 -18.022  0.00  0.00    +0.142 HD
ATOM     23  H   UNL     1      35.397 -22.995 -19.275  0.00  0.00    +0.142 HD
ENDBRANCH  20  21
ENDBRANCH   1  15
TORSDOF 4
ENDMDL
