MODEL 1
REMARK VINA RESULT:      -5.8      0.000      0.000
REMARK  Name = 444305
REMARK  7 active torsions:
REMARK  status: ('A' for Active; 'I' for Inactive)
REMARK    1  A    between atoms: C_1  and  O_2
REMARK    2  A    between atoms: C_1  and  C_5
REMARK    3  A    between atoms: C_1  and  C_8
REMARK    4  A    between atoms: C_5  and  O_6
REMARK    5  A    between atoms: C_8  and  O_9
REMARK    6  A    between atoms: C_8  and  C_12
REMARK    7  A    between atoms: C_12  and  O_13
REMARK                            x       y       z     vdW  Elec       q    Type
REMARK                         _______ _______ _______ _____ _____    ______ ____
ROOT
ATOM      1  C   UNL     1      38.969 -25.109 -14.381  0.00  0.00    +0.248 C 
ENDROOT
BRANCH   1   2
ATOM      2  O   UNL     1      39.098 -24.477 -13.119  0.00  0.00    -0.372 OA
ATOM      3  H   UNL     1      40.008 -24.577 -12.799  0.00  0.00    +0.211 HD
ENDBRANCH   1   2
BRANCH   1   5
ATOM      4  O   UNL     1      40.959 -26.407 -13.903  0.00  0.00    -0.247 OA
ATOM      5  C   UNL     1      40.220 -25.897 -14.738  0.00  0.00    +0.344 C 
BRANCH   5   6
ATOM      6  O   UNL     1      40.461 -25.958 -16.070  0.00  0.00    -0.478 OA
ATOM      7  H   UNL     1      40.329 -26.762 -16.534  0.00  0.00    +0.295 HD
ENDBRANCH   5   6
ENDBRANCH   1   5
BRANCH   1   8
ATOM      8  C   UNL     1      37.715 -25.984 -14.378  0.00  0.00    +0.248 C 
BRANCH   8   9
ATOM      9  O   UNL     1      38.109 -27.333 -14.593  0.00  0.00    -0.372 OA
ATOM     10  H   UNL     1      38.980 -27.483 -14.193  0.00  0.00    +0.211 HD
ENDBRANCH   8   9
BRANCH   8  12
ATOM     11  O   UNL     1      37.229 -26.549 -12.059  0.00  0.00    -0.247 OA
ATOM     12  C   UNL     1      36.936 -25.931 -13.074  0.00  0.00    +0.344 C 
BRANCH  12  13
ATOM     13  O   UNL     1      35.842 -25.131 -13.160  0.00  0.00    -0.478 OA
ATOM     14  H   UNL     1      35.208 -25.129 -12.471  0.00  0.00    +0.295 HD
ENDBRANCH  12  13
ENDBRANCH   8  12
ENDBRANCH   1   8
TORSDOF 7
ENDMDL
MODEL 2
REMARK VINA RESULT:      -5.8      1.488      2.143
REMARK  Name = 444305
REMARK  7 active torsions:
REMARK  status: ('A' for Active; 'I' for Inactive)
REMARK    1  A    between atoms: C_1  and  O_2
REMARK    2  A    between atoms: C_1  and  C_5
REMARK    3  A    between atoms: C_1  and  C_8
REMARK    4  A    between atoms: C_5  and  O_6
REMARK    5  A    between atoms: C_8  and  O_9
REMARK    6  A    between atoms: C_8  and  C_12
REMARK    7  A    between atoms: C_12  and  O_13
REMARK                            x       y       z     vdW  Elec       q    Type
REMARK                         _______ _______ _______ _____ _____    ______ ____
ROOT
ATOM      1  C   UNL     1      38.863 -25.893 -14.207  0.00  0.00    +0.248 C 
ENDROOT
BRANCH   1   2
ATOM      2  O   UNL     1      38.529 -27.203 -14.634  0.00  0.00    -0.372 OA
ATOM      3  H   UNL     1      38.546 -27.805 -13.875  0.00  0.00    +0.211 HD
ENDBRANCH   1   2
BRANCH   1   5
ATOM      4  O   UNL     1      40.913 -24.606 -14.310  0.00  0.00    -0.247 OA
ATOM      5  C   UNL     1      40.162 -25.418 -14.838  0.00  0.00    +0.344 C 
BRANCH   5   6
ATOM      6  O   UNL     1      40.400 -25.956 -16.060  0.00  0.00    -0.478 OA
ATOM      7  H   UNL     1      39.686 -26.130 -16.641  0.00  0.00    +0.295 HD
ENDBRANCH   5   6
ENDBRANCH   1   5
BRANCH   1   8
ATOM      8  C   UNL     1      37.694 -24.954 -14.509  0.00  0.00    +0.248 C 
BRANCH   8   9
ATOM      9  O   UNL     1      38.034 -24.168 -15.644  0.00  0.00    -0.372 OA
ATOM     10  H   UNL     1      37.226 -23.920 -16.119  0.00  0.00    +0.211 HD
ENDBRANCH   8   9
BRANCH   8  12
ATOM     11  O   UNL     1      36.194 -26.363 -15.812  0.00  0.00    -0.247 OA
ATOM     12  C   UNL     1      36.393 -25.677 -14.818  0.00  0.00    +0.344 C 
BRANCH  12  13
ATOM     13  O   UNL     1      35.445 -25.456 -13.872  0.00  0.00    -0.478 OA
ATOM     14  H   UNL     1      35.493 -25.899 -13.047  0.00  0.00    +0.295 HD
ENDBRANCH  12  13
ENDBRANCH   8  12
ENDBRANCH   1   8
TORSDOF 7
ENDMDL
MODEL 3
REMARK VINA RESULT:      -5.7      1.455      3.878
REMARK  Name = 444305
REMARK  7 active torsions:
REMARK  status: ('A' for Active; 'I' for Inactive)
REMARK    1  A    between atoms: C_1  and  O_2
REMARK    2  A    between atoms: C_1  and  C_5
REMARK    3  A    between atoms: C_1  and  C_8
REMARK    4  A    between atoms: C_5  and  O_6
REMARK    5  A    between atoms: C_8  and  O_9
REMARK    6  A    between atoms: C_8  and  C_12
REMARK    7  A    between atoms: C_12  and  O_13
REMARK                            x       y       z     vdW  Elec       q    Type
REMARK                         _______ _______ _______ _____ _____    ______ ____
ROOT
ATOM      1  C   UNL     1      37.954 -24.650 -14.403  0.00  0.00    +0.248 C 
ENDROOT
BRANCH   1   2
ATOM      2  O   UNL     1      38.368 -23.850 -15.497  0.00  0.00    -0.372 OA
ATOM      3  H   UNL     1      38.878 -23.093 -15.170  0.00  0.00    +0.211 HD
ENDBRANCH   1   2
BRANCH   1   5
ATOM      4  O   UNL     1      36.042 -25.328 -15.727  0.00  0.00    -0.247 OA
ATOM      5  C   UNL     1      36.557 -25.209 -14.622  0.00  0.00    +0.344 C 
BRANCH   5   6
ATOM      6  O   UNL     1      35.918 -25.537 -13.472  0.00  0.00    -0.478 OA
ATOM      7  H   UNL     1      36.235 -25.214 -12.651  0.00  0.00    +0.295 HD
ENDBRANCH   5   6
ENDBRANCH   1   5
BRANCH   1   8
ATOM      8  C   UNL     1      38.988 -25.751 -14.168  0.00  0.00    +0.248 C 
BRANCH   8   9
ATOM      9  O   UNL     1      38.442 -26.983 -14.622  0.00  0.00    -0.372 OA
ATOM     10  H   UNL     1      38.075 -27.471 -13.869  0.00  0.00    +0.211 HD
ENDBRANCH   8   9
BRANCH   8  12
ATOM     11  O   UNL     1      40.646 -26.124 -15.913  0.00  0.00    -0.247 OA
ATOM     12  C   UNL     1      40.300 -25.526 -14.903  0.00  0.00    +0.344 C 
BRANCH  12  13
ATOM     13  O   UNL     1      41.076 -24.593 -14.295  0.00  0.00    -0.478 OA
ATOM     14  H   UNL     1      41.932 -24.407 -14.627  0.00  0.00    +0.295 HD
ENDBRANCH  12  13
ENDBRANCH   8  12
ENDBRANCH   1   8
TORSDOF 7
ENDMDL
MODEL 4
REMARK VINA RESULT:      -5.5      1.687      3.540
REMARK  Name = 444305
REMARK  7 active torsions:
REMARK  status: ('A' for Active; 'I' for Inactive)
REMARK    1  A    between atoms: C_1  and  O_2
REMARK    2  A    between atoms: C_1  and  C_5
REMARK    3  A    between atoms: C_1  and  C_8
REMARK    4  A    between atoms: C_5  and  O_6
REMARK    5  A    between atoms: C_8  and  O_9
REMARK    6  A    between atoms: C_8  and  C_12
REMARK    7  A    between atoms: C_12  and  O_13
REMARK                            x       y       z     vdW  Elec       q    Type
REMARK                         _______ _______ _______ _____ _____    ______ ____
ROOT
ATOM      1  C   UNL     1      37.884 -24.771 -13.936  0.00  0.00    +0.248 C 
ENDROOT
BRANCH   1   2
ATOM      2  O   UNL     1      38.560 -24.003 -12.955  0.00  0.00    -0.372 OA
ATOM      3  H   UNL     1      39.020 -24.595 -12.341  0.00  0.00    +0.211 HD
ENDBRANCH   1   2
BRANCH   1   5
ATOM      4  O   UNL     1      37.925 -22.815 -15.366  0.00  0.00    -0.247 OA
ATOM      5  C   UNL     1      37.433 -23.906 -15.103  0.00  0.00    +0.344 C 
BRANCH   5   6
ATOM      6  O   UNL     1      36.409 -24.444 -15.812  0.00  0.00    -0.478 OA
ATOM      7  H   UNL     1      35.524 -24.233 -15.588  0.00  0.00    +0.295 HD
ENDBRANCH   5   6
ENDBRANCH   1   5
BRANCH   1   8
ATOM      8  C   UNL     1      38.789 -25.920 -14.383  0.00  0.00    +0.248 C 
BRANCH   8   9
ATOM      9  O   UNL     1      38.148 -26.605 -15.452  0.00  0.00    -0.372 OA
ATOM     10  H   UNL     1      38.295 -27.559 -15.359  0.00  0.00    +0.211 HD
ENDBRANCH   8   9
BRANCH   8  12
ATOM     11  O   UNL     1      40.913 -24.738 -14.249  0.00  0.00    -0.247 OA
ATOM     12  C   UNL     1      40.155 -25.469 -14.872  0.00  0.00    +0.344 C 
BRANCH  12  13
ATOM     13  O   UNL     1      40.441 -25.946 -16.110  0.00  0.00    -0.478 OA
ATOM     14  H   UNL     1      40.623 -26.858 -16.230  0.00  0.00    +0.295 HD
ENDBRANCH  12  13
ENDBRANCH   8  12
ENDBRANCH   1   8
TORSDOF 7
ENDMDL
MODEL 5
REMARK VINA RESULT:      -5.5      1.966      3.181
REMARK  Name = 444305
REMARK  7 active torsions:
REMARK  status: ('A' for Active; 'I' for Inactive)
REMARK    1  A    between atoms: C_1  and  O_2
REMARK    2  A    between atoms: C_1  and  C_5
REMARK    3  A    between atoms: C_1  and  C_8
REMARK    4  A    between atoms: C_5  and  O_6
REMARK    5  A    between atoms: C_8  and  O_9
REMARK    6  A    between atoms: C_8  and  C_12
REMARK    7  A    between atoms: C_12  and  O_13
REMARK                            x       y       z     vdW  Elec       q    Type
REMARK                         _______ _______ _______ _____ _____    ______ ____
ROOT
ATOM      1  C   UNL     1      37.687 -25.803 -12.538  0.00  0.00    +0.248 C 
ENDROOT
BRANCH   1   2
ATOM      2  O   UNL     1      36.609 -25.893 -11.622  0.00  0.00    -0.372 OA
ATOM      3  H   UNL     1      35.977 -26.560 -11.931  0.00  0.00    +0.211 HD
ENDBRANCH   1   2
BRANCH   1   5
ATOM      4  O   UNL     1      38.059 -27.096 -14.553  0.00  0.00    -0.247 OA
ATOM      5  C   UNL     1      37.313 -26.382 -13.894  0.00  0.00    +0.344 C 
BRANCH   5   6
ATOM      6  O   UNL     1      36.081 -26.009 -14.321  0.00  0.00    -0.478 OA
ATOM      7  H   UNL     1      35.848 -25.102 -14.342  0.00  0.00    +0.295 HD
ENDBRANCH   5   6
ENDBRANCH   1   5
BRANCH   1   8
ATOM      8  C   UNL     1      38.141 -24.346 -12.636  0.00  0.00    +0.248 C 
BRANCH   8   9
ATOM      9  O   UNL     1      38.312 -24.022 -14.010  0.00  0.00    -0.372 OA
ATOM     10  H   UNL     1      38.585 -24.815 -14.497  0.00  0.00    +0.211 HD
ENDBRANCH   8   9
BRANCH   8  12
ATOM     11  O   UNL     1      37.288 -22.790 -10.968  0.00  0.00    -0.247 OA
ATOM     12  C   UNL     1      37.151 -23.357 -12.044  0.00  0.00    +0.344 C 
BRANCH  12  13
ATOM     13  O   UNL     1      36.061 -23.184 -12.836  0.00  0.00    -0.478 OA
ATOM     14  H   UNL     1      35.392 -23.839 -12.861  0.00  0.00    +0.295 HD
ENDBRANCH  12  13
ENDBRANCH   8  12
ENDBRANCH   1   8
TORSDOF 7
ENDMDL
MODEL 6
REMARK VINA RESULT:      -5.4      1.977      3.610
REMARK  Name = 444305
REMARK  7 active torsions:
REMARK  status: ('A' for Active; 'I' for Inactive)
REMARK    1  A    between atoms: C_1  and  O_2
REMARK    2  A    between atoms: C_1  and  C_5
REMARK    3  A    between atoms: C_1  and  C_8
REMARK    4  A    between atoms: C_5  and  O_6
REMARK    5  A    between atoms: C_8  and  O_9
REMARK    6  A    between atoms: C_8  and  C_12
REMARK    7  A    between atoms: C_12  and  O_13
REMARK                            x       y       z     vdW  Elec       q    Type
REMARK                         _______ _______ _______ _____ _____    ______ ____
ROOT
ATOM      1  C   UNL     1      38.124 -24.288 -12.646  0.00  0.00    +0.248 C 
ENDROOT
BRANCH   1   2
ATOM      2  O   UNL     1      38.324 -23.965 -14.012  0.00  0.00    -0.372 OA
ATOM      3  H   UNL     1      37.736 -23.235 -14.261  0.00  0.00    +0.211 HD
ENDBRANCH   1   2
BRANCH   1   5
ATOM      4  O   UNL     1      37.240 -22.857 -10.902  0.00  0.00    -0.247 OA
ATOM      5  C   UNL     1      37.094 -23.371 -12.005  0.00  0.00    +0.344 C 
BRANCH   5   6
ATOM      6  O   UNL     1      35.978 -23.200 -12.756  0.00  0.00    -0.478 OA
ATOM      7  H   UNL     1      35.975 -23.460 -13.656  0.00  0.00    +0.295 HD
ENDBRANCH   5   6
ENDBRANCH   1   5
BRANCH   1   8
ATOM      8  C   UNL     1      37.737 -25.763 -12.532  0.00  0.00    +0.248 C 
BRANCH   8   9
ATOM      9  O   UNL     1      36.634 -25.869 -11.641  0.00  0.00    -0.372 OA
ATOM     10  H   UNL     1      35.817 -25.637 -12.110  0.00  0.00    +0.211 HD
ENDBRANCH   8   9
BRANCH   8  12
ATOM     11  O   UNL     1      38.039 -27.129 -14.525  0.00  0.00    -0.247 OA
ATOM     12  C   UNL     1      37.329 -26.392 -13.854  0.00  0.00    +0.344 C 
BRANCH  12  13
ATOM     13  O   UNL     1      36.080 -26.023 -14.236  0.00  0.00    -0.478 OA
ATOM     14  H   UNL     1      35.456 -26.674 -14.492  0.00  0.00    +0.295 HD
ENDBRANCH  12  13
ENDBRANCH   8  12
ENDBRANCH   1   8
TORSDOF 7
ENDMDL
MODEL 7
REMARK VINA RESULT:      -5.4      2.915      4.510
REMARK  Name = 444305
REMARK  7 active torsions:
REMARK  status: ('A' for Active; 'I' for Inactive)
REMARK    1  A    between atoms: C_1  and  O_2
REMARK    2  A    between atoms: C_1  and  C_5
REMARK    3  A    between atoms: C_1  and  C_8
REMARK    4  A    between atoms: C_5  and  O_6
REMARK    5  A    between atoms: C_8  and  O_9
REMARK    6  A    between atoms: C_8  and  C_12
REMARK    7  A    between atoms: C_12  and  O_13
REMARK                            x       y       z     vdW  Elec       q    Type
REMARK                         _______ _______ _______ _____ _____    ______ ____
ROOT
ATOM      1  C   UNL     1      35.613 -24.366 -12.610  0.00  0.00    +0.248 C 
ENDROOT
BRANCH   1   2
ATOM      2  O   UNL     1      34.265 -24.766 -12.790  0.00  0.00    -0.372 OA
ATOM      3  H   UNL     1      34.069 -25.516 -12.208  0.00  0.00    +0.211 HD
ENDBRANCH   1   2
BRANCH   1   5
ATOM      4  O   UNL     1      37.016 -23.870 -10.698  0.00  0.00    -0.247 OA
ATOM      5  C   UNL     1      36.016 -24.419 -11.145  0.00  0.00    +0.344 C 
BRANCH   5   6
ATOM      6  O   UNL     1      35.177 -25.160 -10.378  0.00  0.00    -0.478 OA
ATOM      7  H   UNL     1      34.916 -24.848  -9.534  0.00  0.00    +0.295 HD
ENDBRANCH   5   6
ENDBRANCH   1   5
BRANCH   1   8
ATOM      8  C   UNL     1      36.514 -25.233 -13.490  0.00  0.00    +0.248 C 
BRANCH   8   9
ATOM      9  O   UNL     1      36.764 -26.456 -12.808  0.00  0.00    -0.372 OA
ATOM     10  H   UNL     1      36.479 -27.199 -13.363  0.00  0.00    +0.211 HD
ENDBRANCH   8   9
BRANCH   8  12
ATOM     11  O   UNL     1      35.391 -24.759 -15.599  0.00  0.00    -0.247 OA
ATOM     12  C   UNL     1      35.906 -25.571 -14.842  0.00  0.00    +0.344 C 
BRANCH  12  13
ATOM     13  O   UNL     1      35.969 -26.899 -15.117  0.00  0.00    -0.478 OA
ATOM     14  H   UNL     1      35.737 -27.525 -14.459  0.00  0.00    +0.295 HD
ENDBRANCH  12  13
ENDBRANCH   8  12
ENDBRANCH   1   8
TORSDOF 7
ENDMDL
MODEL 8
REMARK VINA RESULT:      -5.3      2.145      4.474
REMARK  Name = 444305
REMARK  7 active torsions:
REMARK  status: ('A' for Active; 'I' for Inactive)
REMARK    1  A    between atoms: C_1  and  O_2
REMARK    2  A    between atoms: C_1  and  C_5
REMARK    3  A    between atoms: C_1  and  C_8
REMARK    4  A    between atoms: C_5  and  O_6
REMARK    5  A    between atoms: C_8  and  O_9
REMARK    6  A    between atoms: C_8  and  C_12
REMARK    7  A    between atoms: C_12  and  O_13
REMARK                            x       y       z     vdW  Elec       q    Type
REMARK                         _______ _______ _______ _____ _____    ______ ____
ROOT
ATOM      1  C   UNL     1      36.769 -23.837 -11.544  0.00  0.00    +0.248 C 
ENDROOT
BRANCH   1   2
ATOM      2  O   UNL     1      36.432 -22.821 -12.474  0.00  0.00    -0.372 OA
ATOM      3  H   UNL     1      36.721 -23.086 -13.361  0.00  0.00    +0.211 HD
ENDBRANCH   1   2
BRANCH   1   5
ATOM      4  O   UNL     1      35.345 -24.604  -9.740  0.00  0.00    -0.247 OA
ATOM      5  C   UNL     1      35.525 -24.475 -10.945  0.00  0.00    +0.344 C 
BRANCH   5   6
ATOM      6  O   UNL     1      34.641 -24.916 -11.874  0.00  0.00    -0.478 OA
ATOM      7  H   UNL     1      34.318 -25.795 -11.832  0.00  0.00    +0.295 HD
ENDBRANCH   5   6
ENDBRANCH   1   5
BRANCH   1   8
ATOM      8  C   UNL     1      37.673 -24.862 -12.228  0.00  0.00    +0.248 C 
BRANCH   8   9
ATOM      9  O   UNL     1      37.221 -26.164 -11.876  0.00  0.00    -0.372 OA
ATOM     10  H   UNL     1      36.597 -26.100 -11.136  0.00  0.00    +0.211 HD
ENDBRANCH   8   9
BRANCH   8  12
ATOM     11  O   UNL     1      38.548 -24.231 -14.412  0.00  0.00    -0.247 OA
ATOM     12  C   UNL     1      37.671 -24.765 -13.745  0.00  0.00    +0.344 C 
BRANCH  12  13
ATOM     13  O   UNL     1      36.559 -25.317 -14.294  0.00  0.00    -0.478 OA
ATOM     14  H   UNL     1      36.383 -25.206 -15.208  0.00  0.00    +0.295 HD
ENDBRANCH  12  13
ENDBRANCH   8  12
ENDBRANCH   1   8
TORSDOF 7
ENDMDL
MODEL 9
REMARK VINA RESULT:      -5.3      1.917      3.052
REMARK  Name = 444305
REMARK  7 active torsions:
REMARK  status: ('A' for Active; 'I' for Inactive)
REMARK    1  A    between atoms: C_1  and  O_2
REMARK    2  A    between atoms: C_1  and  C_5
REMARK    3  A    between atoms: C_1  and  C_8
REMARK    4  A    between atoms: C_5  and  O_6
REMARK    5  A    between atoms: C_8  and  O_9
REMARK    6  A    between atoms: C_8  and  C_12
REMARK    7  A    between atoms: C_12  and  O_13
REMARK                            x       y       z     vdW  Elec       q    Type
REMARK                         _______ _______ _______ _____ _____    ______ ____
ROOT
ATOM      1  C   UNL     1      37.382 -24.725 -14.536  0.00  0.00    +0.248 C 
ENDROOT
BRANCH   1   2
ATOM      2  O   UNL     1      38.760 -24.414 -14.411  0.00  0.00    -0.372 OA
ATOM      3  H   UNL     1      39.163 -24.374 -15.292  0.00  0.00    +0.211 HD
ENDBRANCH   1   2
BRANCH   1   5
ATOM      4  O   UNL     1      36.209 -26.542 -15.627  0.00  0.00    -0.247 OA
ATOM      5  C   UNL     1      37.176 -26.166 -14.976  0.00  0.00    +0.344 C 
BRANCH   5   6
ATOM      6  O   UNL     1      38.152 -27.007 -14.552  0.00  0.00    -0.478 OA
ATOM      7  H   UNL     1      38.365 -27.056 -13.640  0.00  0.00    +0.295 HD
ENDBRANCH   5   6
ENDBRANCH   1   5
BRANCH   1   8
ATOM      8  C   UNL     1      36.677 -24.416 -13.215  0.00  0.00    +0.248 C 
BRANCH   8   9
ATOM      9  O   UNL     1      36.123 -25.624 -12.710  0.00  0.00    -0.372 OA
ATOM     10  H   UNL     1      36.197 -25.634 -11.742  0.00  0.00    +0.211 HD
ENDBRANCH   8   9
BRANCH   8  12
ATOM     11  O   UNL     1      37.903 -22.665 -12.046  0.00  0.00    -0.247 OA
ATOM     12  C   UNL     1      37.599 -23.847 -12.149  0.00  0.00    +0.344 C 
BRANCH  12  13
ATOM     13  O   UNL     1      38.083 -24.807 -11.321  0.00  0.00    -0.478 OA
ATOM     14  H   UNL     1      38.985 -25.059 -11.371  0.00  0.00    +0.295 HD
ENDBRANCH  12  13
ENDBRANCH   8  12
ENDBRANCH   1   8
TORSDOF 7
ENDMDL
