MODEL 1
REMARK VINA RESULT:      -9.8      0.000      0.000
REMARK  Name = 9574768
REMARK  12 active torsions:
REMARK  status: ('A' for Active; 'I' for Inactive)
REMARK    1  A    between atoms: P_1  and  N_3
REMARK    2  A    between atoms: P_1  and  O_13
REMARK    3  A    between atoms: P_1  and  C_20
REMARK    4  A    between atoms: N_3  and  C_5
REMARK    5  A    between atoms: C_5  and  C_8
REMARK    6  A    between atoms: C_8  and  O_9
REMARK    7  A    between atoms: O_9  and  C_10
REMARK    8  A    between atoms: O_13  and  C_14
REMARK    9  A    between atoms: C_20  and  O_21
REMARK   10  A    between atoms: O_21  and  C_22
REMARK   11  A    between atoms: C_22  and  C_24
REMARK   12  A    between atoms: C_24  and  N_25
REMARK                            x       y       z     vdW  Elec       q    Type
REMARK                         _______ _______ _______ _____ _____    ______ ____
ROOT
ATOM      1  P   UNL     1      32.705 -13.375 -22.820  0.00  0.00    +0.358 P 
ATOM      2  O   UNL     1      34.053 -12.825 -22.430  0.00  0.00    -0.256 OA
ENDROOT
BRANCH   1   3
ATOM      3  N   UNL     1      32.433 -13.716 -24.417  0.00  0.00    -0.215 NA
ATOM      4  H   UNL     1      31.912 -12.929 -24.805  0.00  0.00    +0.134 HD
BRANCH   3   5
ATOM      5  C   UNL     1      33.564 -13.950 -25.299  0.00  0.00    +0.162 C 
ATOM      6  C   UNL     1      33.519 -15.376 -25.829  0.00  0.00    +0.030 C 
BRANCH   5   8
ATOM      7  O   UNL     1      33.452 -13.236 -27.630  0.00  0.00    -0.249 OA
ATOM      8  C   UNL     1      33.489 -12.952 -26.440  0.00  0.00    +0.332 C 
BRANCH   8   9
ATOM      9  O   UNL     1      33.463 -11.684 -25.927  0.00  0.00    -0.451 OA
BRANCH   9  10
ATOM     10  C   UNL     1      34.714 -11.187 -25.443  0.00  0.00    +0.169 C 
ATOM     11  C   UNL     1      35.524 -10.646 -26.611  0.00  0.00    +0.047 C 
ATOM     12  C   UNL     1      34.455 -10.119 -24.391  0.00  0.00    +0.047 C 
ENDBRANCH   9  10
ENDBRANCH   8   9
ENDBRANCH   5   8
ENDBRANCH   3   5
ENDBRANCH   1   3
BRANCH   1  13
ATOM     13  O   UNL     1      31.501 -12.429 -22.291  0.00  0.00    -0.429 OA
BRANCH  13  14
ATOM     14  C   UNL     1      31.643 -11.400 -21.399  0.00  0.00    +0.146 C 
ATOM     15  C   UNL     1      31.574 -11.657 -20.033  0.00  0.00    +0.037 C 
ATOM     16  C   UNL     1      31.855 -10.107 -21.866  0.00  0.00    +0.037 C 
ATOM     17  C   UNL     1      31.719 -10.609 -19.124  0.00  0.00    +0.003 C 
ATOM     18  C   UNL     1      31.999  -9.059 -20.956  0.00  0.00    +0.003 C 
ATOM     19  C   UNL     1      31.931  -9.310 -19.586  0.00  0.00    +0.000 C 
ENDBRANCH  13  14
ENDBRANCH   1  13
BRANCH   1  20
ATOM     20  C   UNL     1      32.371 -14.898 -21.919  0.00  0.00    +0.258 C 
BRANCH  20  21
ATOM     21  O   UNL     1      33.421 -15.789 -22.272  0.00  0.00    -0.343 OA
BRANCH  21  22
ATOM     22  C   UNL     1      33.831 -16.577 -21.162  0.00  0.00    +0.136 C 
ATOM     23  C   UNL     1      34.768 -15.722 -20.320  0.00  0.00    +0.034 C 
BRANCH  22  24
ATOM     24  C   UNL     1      34.540 -17.842 -21.654  0.00  0.00    +0.123 C 
BRANCH  24  25
ATOM     25  N   UNL     1      34.040 -19.056 -21.010  0.00  0.00    -0.269 N 
ATOM     26  N   UNL     1      32.594 -20.571 -20.300  0.00  0.00    -0.242 NA
ATOM     27  N   UNL     1      36.118 -20.022 -20.214  0.00  0.00    -0.228 NA
ATOM     28  N   UNL     1      35.707 -22.126 -19.048  0.00  0.00    -0.229 NA
ATOM     29  C   UNL     1      34.786 -19.996 -20.382  0.00  0.00    +0.151 C 
ATOM     30  C   UNL     1      32.735 -19.430 -20.942  0.00  0.00    +0.221 C 
ATOM     31  C   UNL     1      33.868 -20.936 -19.945  0.00  0.00    +0.140 C 
ATOM     32  C   UNL     1      34.372 -22.034 -19.255  0.00  0.00    +0.143 C 
ATOM     33  C   UNL     1      36.486 -21.129 -19.533  0.00  0.00    +0.253 C 
ATOM     34  N   UNL     1      33.512 -23.037 -18.776  0.00  0.00    -0.342 N 
ATOM     35  H   UNL     1      33.879 -23.810 -18.289  0.00  0.00    +0.144 HD
ATOM     36  H   UNL     1      32.541 -22.968 -18.929  0.00  0.00    +0.144 HD
ENDBRANCH  24  25
ENDBRANCH  22  24
ENDBRANCH  21  22
ENDBRANCH  20  21
ENDBRANCH   1  20
TORSDOF 12
ENDMDL
MODEL 2
REMARK VINA RESULT:      -9.6      7.987     13.008
REMARK  Name = 9574768
REMARK  12 active torsions:
REMARK  status: ('A' for Active; 'I' for Inactive)
REMARK    1  A    between atoms: P_1  and  N_3
REMARK    2  A    between atoms: P_1  and  O_13
REMARK    3  A    between atoms: P_1  and  C_20
REMARK    4  A    between atoms: N_3  and  C_5
REMARK    5  A    between atoms: C_5  and  C_8
REMARK    6  A    between atoms: C_8  and  O_9
REMARK    7  A    between atoms: O_9  and  C_10
REMARK    8  A    between atoms: O_13  and  C_14
REMARK    9  A    between atoms: C_20  and  O_21
REMARK   10  A    between atoms: O_21  and  C_22
REMARK   11  A    between atoms: C_22  and  C_24
REMARK   12  A    between atoms: C_24  and  N_25
REMARK                            x       y       z     vdW  Elec       q    Type
REMARK                         _______ _______ _______ _____ _____    ______ ____
ROOT
ATOM      1  P   UNL     1      34.283 -24.031 -13.720  0.00  0.00    +0.358 P 
ATOM      2  O   UNL     1      34.325 -25.407 -14.333  0.00  0.00    -0.256 OA
ENDROOT
BRANCH   1   3
ATOM      3  N   UNL     1      35.372 -23.674 -12.524  0.00  0.00    -0.215 NA
ATOM      4  H   UNL     1      35.133 -24.257 -11.721  0.00  0.00    +0.134 HD
BRANCH   3   5
ATOM      5  C   UNL     1      36.792 -23.860 -12.775  0.00  0.00    +0.162 C 
ATOM      6  C   UNL     1      37.591 -22.821 -12.001  0.00  0.00    +0.030 C 
BRANCH   5   8
ATOM      7  O   UNL     1      36.527 -25.961 -11.565  0.00  0.00    -0.249 OA
ATOM      8  C   UNL     1      37.169 -25.262 -12.338  0.00  0.00    +0.332 C 
BRANCH   8   9
ATOM      9  O   UNL     1      38.339 -25.623 -12.947  0.00  0.00    -0.451 OA
BRANCH   9  10
ATOM     10  C   UNL     1      38.337 -25.559 -14.377  0.00  0.00    +0.169 C 
ATOM     11  C   UNL     1      39.772 -25.567 -14.881  0.00  0.00    +0.047 C 
ATOM     12  C   UNL     1      37.536 -26.729 -14.929  0.00  0.00    +0.047 C 
ENDBRANCH   9  10
ENDBRANCH   8   9
ENDBRANCH   5   8
ENDBRANCH   3   5
ENDBRANCH   1   3
BRANCH   1  13
ATOM     13  O   UNL     1      32.800 -23.665 -13.181  0.00  0.00    -0.429 OA
BRANCH  13  14
ATOM     14  C   UNL     1      31.638 -23.862 -13.878  0.00  0.00    +0.146 C 
ATOM     15  C   UNL     1      31.197 -25.158 -14.129  0.00  0.00    +0.037 C 
ATOM     16  C   UNL     1      30.909 -22.766 -14.329  0.00  0.00    +0.037 C 
ATOM     17  C   UNL     1      30.013 -25.359 -14.839  0.00  0.00    +0.003 C 
ATOM     18  C   UNL     1      29.726 -22.969 -15.039  0.00  0.00    +0.003 C 
ATOM     19  C   UNL     1      29.278 -24.265 -15.294  0.00  0.00    +0.000 C 
ENDBRANCH  13  14
ENDBRANCH   1  13
BRANCH   1  20
ATOM     20  C   UNL     1      34.509 -22.777 -14.993  0.00  0.00    +0.258 C 
BRANCH  20  21
ATOM     21  O   UNL     1      34.597 -23.489 -16.220  0.00  0.00    -0.343 OA
BRANCH  21  22
ATOM     22  C   UNL     1      33.913 -22.812 -17.266  0.00  0.00    +0.136 C 
ATOM     23  C   UNL     1      32.476 -23.317 -17.270  0.00  0.00    +0.034 C 
BRANCH  22  24
ATOM     24  C   UNL     1      34.595 -23.098 -18.607  0.00  0.00    +0.123 C 
BRANCH  24  25
ATOM     25  N   UNL     1      35.116 -21.889 -19.244  0.00  0.00    -0.269 N 
ATOM     26  N   UNL     1      36.584 -20.375 -19.909  0.00  0.00    -0.242 NA
ATOM     27  N   UNL     1      33.069 -20.944 -20.139  0.00  0.00    -0.228 NA
ATOM     28  N   UNL     1      33.520 -18.854 -21.316  0.00  0.00    -0.229 NA
ATOM     29  C   UNL     1      34.393 -20.962 -19.915  0.00  0.00    +0.151 C 
ATOM     30  C   UNL     1      36.420 -21.508 -19.259  0.00  0.00    +0.221 C 
ATOM     31  C   UNL     1      35.325 -20.023 -20.325  0.00  0.00    +0.140 C 
ATOM     32  C   UNL     1      34.846 -18.937 -21.052  0.00  0.00    +0.143 C 
ATOM     33  C   UNL     1      32.725 -19.848 -20.850  0.00  0.00    +0.253 C 
ATOM     34  N   UNL     1      35.721 -17.937 -21.510  0.00  0.00    -0.342 N 
ATOM     35  H   UNL     1      35.371 -17.174 -22.023  0.00  0.00    +0.144 HD
ATOM     36  H   UNL     1      36.685 -18.001 -21.317  0.00  0.00    +0.144 HD
ENDBRANCH  24  25
ENDBRANCH  22  24
ENDBRANCH  21  22
ENDBRANCH  20  21
ENDBRANCH   1  20
TORSDOF 12
ENDMDL
MODEL 3
REMARK VINA RESULT:      -9.4      6.202     11.891
REMARK  Name = 9574768
REMARK  12 active torsions:
REMARK  status: ('A' for Active; 'I' for Inactive)
REMARK    1  A    between atoms: P_1  and  N_3
REMARK    2  A    between atoms: P_1  and  O_13
REMARK    3  A    between atoms: P_1  and  C_20
REMARK    4  A    between atoms: N_3  and  C_5
REMARK    5  A    between atoms: C_5  and  C_8
REMARK    6  A    between atoms: C_8  and  O_9
REMARK    7  A    between atoms: O_9  and  C_10
REMARK    8  A    between atoms: O_13  and  C_14
REMARK    9  A    between atoms: C_20  and  O_21
REMARK   10  A    between atoms: O_21  and  C_22
REMARK   11  A    between atoms: C_22  and  C_24
REMARK   12  A    between atoms: C_24  and  N_25
REMARK                            x       y       z     vdW  Elec       q    Type
REMARK                         _______ _______ _______ _____ _____    ______ ____
ROOT
ATOM      1  P   UNL     1      34.111 -23.372 -17.406  0.00  0.00    +0.358 P 
ATOM      2  O   UNL     1      33.574 -24.225 -18.527  0.00  0.00    -0.256 OA
ENDROOT
BRANCH   1   3
ATOM      3  N   UNL     1      35.082 -24.091 -16.273  0.00  0.00    -0.215 NA
ATOM      4  H   UNL     1      35.789 -24.622 -16.782  0.00  0.00    +0.134 HD
BRANCH   3   5
ATOM      5  C   UNL     1      35.787 -23.261 -15.310  0.00  0.00    +0.162 C 
ATOM      6  C   UNL     1      35.315 -23.593 -13.901  0.00  0.00    +0.030 C 
BRANCH   5   8
ATOM      7  O   UNL     1      38.100 -22.733 -15.880  0.00  0.00    -0.249 OA
ATOM      8  C   UNL     1      37.273 -23.529 -15.454  0.00  0.00    +0.332 C 
BRANCH   8   9
ATOM      9  O   UNL     1      37.544 -24.801 -15.028  0.00  0.00    -0.451 OA
BRANCH   9  10
ATOM     10  C   UNL     1      38.656 -24.931 -14.136  0.00  0.00    +0.169 C 
ATOM     11  C   UNL     1      38.224 -25.711 -12.905  0.00  0.00    +0.047 C 
ATOM     12  C   UNL     1      39.804 -25.613 -14.866  0.00  0.00    +0.047 C 
ENDBRANCH   9  10
ENDBRANCH   8   9
ENDBRANCH   5   8
ENDBRANCH   3   5
ENDBRANCH   1   3
BRANCH   1  13
ATOM     13  O   UNL     1      32.922 -22.590 -16.631  0.00  0.00    -0.429 OA
BRANCH  13  14
ATOM     14  C   UNL     1      31.804 -23.180 -16.105  0.00  0.00    +0.146 C 
ATOM     15  C   UNL     1      31.932 -24.092 -15.063  0.00  0.00    +0.037 C 
ATOM     16  C   UNL     1      30.551 -22.860 -16.617  0.00  0.00    +0.037 C 
ATOM     17  C   UNL     1      30.793 -24.693 -14.526  0.00  0.00    +0.003 C 
ATOM     18  C   UNL     1      29.412 -23.462 -16.080  0.00  0.00    +0.003 C 
ATOM     19  C   UNL     1      29.533 -24.378 -15.035  0.00  0.00    +0.000 C 
ENDBRANCH  13  14
ENDBRANCH   1  13
BRANCH   1  20
ATOM     20  C   UNL     1      35.057 -21.992 -18.074  0.00  0.00    +0.258 C 
BRANCH  20  21
ATOM     21  O   UNL     1      34.773 -21.973 -19.466  0.00  0.00    -0.343 OA
BRANCH  21  22
ATOM     22  C   UNL     1      34.499 -20.655 -19.924  0.00  0.00    +0.136 C 
ATOM     23  C   UNL     1      33.038 -20.616 -20.347  0.00  0.00    +0.034 C 
BRANCH  22  24
ATOM     24  C   UNL     1      35.417 -20.310 -21.099  0.00  0.00    +0.123 C 
BRANCH  24  25
ATOM     25  N   UNL     1      35.198 -18.957 -21.609  0.00  0.00    -0.269 N 
ATOM     26  N   UNL     1      35.023 -16.753 -21.605  0.00  0.00    -0.242 NA
ATOM     27  N   UNL     1      34.725 -19.435 -23.940  0.00  0.00    -0.228 NA
ATOM     28  N   UNL     1      34.291 -17.376 -25.177  0.00  0.00    -0.229 NA
ATOM     29  C   UNL     1      34.892 -18.621 -22.885  0.00  0.00    +0.151 C 
ATOM     30  C   UNL     1      35.269 -17.818 -20.871  0.00  0.00    +0.221 C 
ATOM     31  C   UNL     1      34.787 -17.240 -22.866  0.00  0.00    +0.140 C 
ATOM     32  C   UNL     1      34.474 -16.617 -24.070  0.00  0.00    +0.143 C 
ATOM     33  C   UNL     1      34.425 -18.718 -25.045  0.00  0.00    +0.253 C 
ATOM     34  N   UNL     1      34.349 -15.219 -24.143  0.00  0.00    -0.342 N 
ATOM     35  H   UNL     1      34.127 -14.789 -25.000  0.00  0.00    +0.144 HD
ATOM     36  H   UNL     1      34.484 -14.670 -23.337  0.00  0.00    +0.144 HD
ENDBRANCH  24  25
ENDBRANCH  22  24
ENDBRANCH  21  22
ENDBRANCH  20  21
ENDBRANCH   1  20
TORSDOF 12
ENDMDL
MODEL 4
REMARK VINA RESULT:      -9.2      7.763     12.903
REMARK  Name = 9574768
REMARK  12 active torsions:
REMARK  status: ('A' for Active; 'I' for Inactive)
REMARK    1  A    between atoms: P_1  and  N_3
REMARK    2  A    between atoms: P_1  and  O_13
REMARK    3  A    between atoms: P_1  and  C_20
REMARK    4  A    between atoms: N_3  and  C_5
REMARK    5  A    between atoms: C_5  and  C_8
REMARK    6  A    between atoms: C_8  and  O_9
REMARK    7  A    between atoms: O_9  and  C_10
REMARK    8  A    between atoms: O_13  and  C_14
REMARK    9  A    between atoms: C_20  and  O_21
REMARK   10  A    between atoms: O_21  and  C_22
REMARK   11  A    between atoms: C_22  and  C_24
REMARK   12  A    between atoms: C_24  and  N_25
REMARK                            x       y       z     vdW  Elec       q    Type
REMARK                         _______ _______ _______ _____ _____    ______ ____
ROOT
ATOM      1  P   UNL     1      34.447 -23.895 -13.989  0.00  0.00    +0.358 P 
ATOM      2  O   UNL     1      34.417 -25.287 -14.565  0.00  0.00    -0.256 OA
ENDROOT
BRANCH   1   3
ATOM      3  N   UNL     1      35.369 -23.627 -12.640  0.00  0.00    -0.215 NA
ATOM      4  H   UNL     1      35.030 -24.262 -11.917  0.00  0.00    +0.134 HD
BRANCH   3   5
ATOM      5  C   UNL     1      36.810 -23.802 -12.715  0.00  0.00    +0.162 C 
ATOM      6  C   UNL     1      37.501 -22.783 -11.820  0.00  0.00    +0.030 C 
BRANCH   5   8
ATOM      7  O   UNL     1      36.448 -25.905 -11.531  0.00  0.00    -0.249 OA
ATOM      8  C   UNL     1      37.138 -25.215 -12.271  0.00  0.00    +0.332 C 
BRANCH   8   9
ATOM      9  O   UNL     1      38.325 -25.599 -12.832  0.00  0.00    -0.451 OA
BRANCH   9  10
ATOM     10  C   UNL     1      38.393 -25.508 -14.259  0.00  0.00    +0.169 C 
ATOM     11  C   UNL     1      39.849 -25.562 -14.696  0.00  0.00    +0.047 C 
ATOM     12  C   UNL     1      37.575 -26.635 -14.872  0.00  0.00    +0.047 C 
ENDBRANCH   9  10
ENDBRANCH   8   9
ENDBRANCH   5   8
ENDBRANCH   3   5
ENDBRANCH   1   3
BRANCH   1  13
ATOM     13  O   UNL     1      32.954 -23.338 -13.701  0.00  0.00    -0.429 OA
BRANCH  13  14
ATOM     14  C   UNL     1      31.824 -23.737 -14.364  0.00  0.00    +0.146 C 
ATOM     15  C   UNL     1      31.214 -22.873 -15.268  0.00  0.00    +0.037 C 
ATOM     16  C   UNL     1      31.296 -25.002 -14.127  0.00  0.00    +0.037 C 
ATOM     17  C   UNL     1      30.062 -23.279 -15.943  0.00  0.00    +0.003 C 
ATOM     18  C   UNL     1      30.145 -25.408 -14.803  0.00  0.00    +0.003 C 
ATOM     19  C   UNL     1      29.528 -24.546 -15.710  0.00  0.00    +0.000 C 
ENDBRANCH  13  14
ENDBRANCH   1  13
BRANCH   1  20
ATOM     20  C   UNL     1      35.022 -22.722 -15.230  0.00  0.00    +0.258 C 
BRANCH  20  21
ATOM     21  O   UNL     1      34.999 -23.429 -16.463  0.00  0.00    -0.343 OA
BRANCH  21  22
ATOM     22  C   UNL     1      34.308 -22.699 -17.468  0.00  0.00    +0.136 C 
ATOM     23  C   UNL     1      33.180 -23.586 -17.978  0.00  0.00    +0.034 C 
BRANCH  22  24
ATOM     24  C   UNL     1      35.270 -22.333 -18.602  0.00  0.00    +0.123 C 
BRANCH  24  25
ATOM     25  N   UNL     1      34.733 -21.299 -19.486  0.00  0.00    -0.269 N 
ATOM     26  N   UNL     1      33.241 -20.102 -20.595  0.00  0.00    -0.242 NA
ATOM     27  N   UNL     1      36.783 -20.200 -20.174  0.00  0.00    -0.228 NA
ATOM     28  N   UNL     1      36.308 -18.357 -21.703  0.00  0.00    -0.229 NA
ATOM     29  C   UNL     1      35.451 -20.372 -20.163  0.00  0.00    +0.151 C 
ATOM     30  C   UNL     1      33.417 -21.110 -19.766  0.00  0.00    +0.221 C 
ATOM     31  C   UNL     1      34.504 -19.632 -20.850  0.00  0.00    +0.140 C 
ATOM     32  C   UNL     1      34.975 -18.589 -21.643  0.00  0.00    +0.143 C 
ATOM     33  C   UNL     1      37.117 -19.165 -20.976  0.00  0.00    +0.253 C 
ATOM     34  N   UNL     1      34.084 -17.785 -22.374  0.00  0.00    -0.342 N 
ATOM     35  H   UNL     1      34.428 -17.050 -22.932  0.00  0.00    +0.144 HD
ATOM     36  H   UNL     1      33.115 -17.956 -22.328  0.00  0.00    +0.144 HD
ENDBRANCH  24  25
ENDBRANCH  22  24
ENDBRANCH  21  22
ENDBRANCH  20  21
ENDBRANCH   1  20
TORSDOF 12
ENDMDL
MODEL 5
REMARK VINA RESULT:      -9.2      3.528      9.399
REMARK  Name = 9574768
REMARK  12 active torsions:
REMARK  status: ('A' for Active; 'I' for Inactive)
REMARK    1  A    between atoms: P_1  and  N_3
REMARK    2  A    between atoms: P_1  and  O_13
REMARK    3  A    between atoms: P_1  and  C_20
REMARK    4  A    between atoms: N_3  and  C_5
REMARK    5  A    between atoms: C_5  and  C_8
REMARK    6  A    between atoms: C_8  and  O_9
REMARK    7  A    between atoms: O_9  and  C_10
REMARK    8  A    between atoms: O_13  and  C_14
REMARK    9  A    between atoms: C_20  and  O_21
REMARK   10  A    between atoms: O_21  and  C_22
REMARK   11  A    between atoms: C_22  and  C_24
REMARK   12  A    between atoms: C_24  and  N_25
REMARK                            x       y       z     vdW  Elec       q    Type
REMARK                         _______ _______ _______ _____ _____    ______ ____
ROOT
ATOM      1  P   UNL     1      33.547 -13.172 -24.003  0.00  0.00    +0.358 P 
ATOM      2  O   UNL     1      33.376 -13.385 -25.485  0.00  0.00    -0.256 OA
ENDROOT
BRANCH   1   3
ATOM      3  N   UNL     1      34.572 -14.180 -23.181  0.00  0.00    -0.215 NA
ATOM      4  H   UNL     1      34.695 -13.783 -22.249  0.00  0.00    +0.134 HD
BRANCH   3   5
ATOM      5  C   UNL     1      34.206 -15.576 -23.001  0.00  0.00    +0.162 C 
ATOM      6  C   UNL     1      34.657 -16.386 -24.208  0.00  0.00    +0.030 C 
BRANCH   5   8
ATOM      7  O   UNL     1      34.860 -15.514 -20.651  0.00  0.00    -0.249 OA
ATOM      8  C   UNL     1      34.876 -16.080 -21.737  0.00  0.00    +0.332 C 
BRANCH   8   9
ATOM      9  O   UNL     1      35.496 -17.271 -22.001  0.00  0.00    -0.451 OA
BRANCH   9  10
ATOM     10  C   UNL     1      35.274 -18.310 -21.042  0.00  0.00    +0.169 C 
ATOM     11  C   UNL     1      34.066 -19.131 -21.464  0.00  0.00    +0.047 C 
ATOM     12  C   UNL     1      36.529 -19.163 -20.931  0.00  0.00    +0.047 C 
ENDBRANCH   9  10
ENDBRANCH   8   9
ENDBRANCH   5   8
ENDBRANCH   3   5
ENDBRANCH   1   3
BRANCH   1  13
ATOM     13  O   UNL     1      32.121 -13.163 -23.235  0.00  0.00    -0.429 OA
BRANCH  13  14
ATOM     14  C   UNL     1      31.868 -12.520 -22.053  0.00  0.00    +0.146 C 
ATOM     15  C   UNL     1      32.316 -13.074 -20.858  0.00  0.00    +0.037 C 
ATOM     16  C   UNL     1      31.166 -11.319 -22.057  0.00  0.00    +0.037 C 
ATOM     17  C   UNL     1      32.059 -12.419 -19.653  0.00  0.00    +0.003 C 
ATOM     18  C   UNL     1      30.909 -10.665 -20.852  0.00  0.00    +0.003 C 
ATOM     19  C   UNL     1      31.355 -11.216 -19.650  0.00  0.00    +0.000 C 
ENDBRANCH  13  14
ENDBRANCH   1  13
BRANCH   1  20
ATOM     20  C   UNL     1      34.126 -11.497 -23.680  0.00  0.00    +0.258 C 
BRANCH  20  21
ATOM     21  O   UNL     1      33.515 -10.683 -24.671  0.00  0.00    -0.343 OA
BRANCH  21  22
ATOM     22  C   UNL     1      34.391  -9.656 -25.115  0.00  0.00    +0.136 C 
ATOM     23  C   UNL     1      35.614 -10.332 -25.719  0.00  0.00    +0.034 C 
BRANCH  22  24
ATOM     24  C   UNL     1      34.788  -8.763 -23.936  0.00  0.00    +0.123 C 
BRANCH  24  25
ATOM     25  N   UNL     1      33.845  -7.668 -23.714  0.00  0.00    -0.269 N 
ATOM     26  N   UNL     1      32.601  -5.893 -24.154  0.00  0.00    -0.242 NA
ATOM     27  N   UNL     1      33.294  -8.026 -21.378  0.00  0.00    -0.228 NA
ATOM     28  N   UNL     1      31.695  -6.355 -20.598  0.00  0.00    -0.229 NA
ATOM     29  C   UNL     1      33.206  -7.384 -22.554  0.00  0.00    +0.151 C 
ATOM     30  C   UNL     1      33.461  -6.759 -24.648  0.00  0.00    +0.221 C 
ATOM     31  C   UNL     1      32.433  -6.272 -22.846  0.00  0.00    +0.140 C 
ATOM     32  C   UNL     1      31.656  -5.757 -21.812  0.00  0.00    +0.143 C 
ATOM     33  C   UNL     1      32.501  -7.437 -20.458  0.00  0.00    +0.253 C 
ATOM     34  N   UNL     1      30.839  -4.632 -22.020  0.00  0.00    -0.342 N 
ATOM     35  H   UNL     1      30.294  -4.277 -21.281  0.00  0.00    +0.144 HD
ATOM     36  H   UNL     1      30.812  -4.201 -22.905  0.00  0.00    +0.144 HD
ENDBRANCH  24  25
ENDBRANCH  22  24
ENDBRANCH  21  22
ENDBRANCH  20  21
ENDBRANCH   1  20
TORSDOF 12
ENDMDL
MODEL 6
REMARK VINA RESULT:      -9.1      1.279      2.300
REMARK  Name = 9574768
REMARK  12 active torsions:
REMARK  status: ('A' for Active; 'I' for Inactive)
REMARK    1  A    between atoms: P_1  and  N_3
REMARK    2  A    between atoms: P_1  and  O_13
REMARK    3  A    between atoms: P_1  and  C_20
REMARK    4  A    between atoms: N_3  and  C_5
REMARK    5  A    between atoms: C_5  and  C_8
REMARK    6  A    between atoms: C_8  and  O_9
REMARK    7  A    between atoms: O_9  and  C_10
REMARK    8  A    between atoms: O_13  and  C_14
REMARK    9  A    between atoms: C_20  and  O_21
REMARK   10  A    between atoms: O_21  and  C_22
REMARK   11  A    between atoms: C_22  and  C_24
REMARK   12  A    between atoms: C_24  and  N_25
REMARK                            x       y       z     vdW  Elec       q    Type
REMARK                         _______ _______ _______ _____ _____    ______ ____
ROOT
ATOM      1  P   UNL     1      33.476 -14.574 -22.603  0.00  0.00    +0.358 P 
ATOM      2  O   UNL     1      34.790 -13.877 -22.362  0.00  0.00    -0.256 OA
ENDROOT
BRANCH   1   3
ATOM      3  N   UNL     1      32.767 -14.415 -24.091  0.00  0.00    -0.215 NA
ATOM      4  H   UNL     1      32.212 -13.559 -24.065  0.00  0.00    +0.134 HD
BRANCH   3   5
ATOM      5  C   UNL     1      33.606 -14.340 -25.275  0.00  0.00    +0.162 C 
ATOM      6  C   UNL     1      33.088 -15.303 -26.335  0.00  0.00    +0.030 C 
BRANCH   5   8
ATOM      7  O   UNL     1      33.081 -12.549 -26.847  0.00  0.00    -0.249 OA
ATOM      8  C   UNL     1      33.575 -12.912 -25.787  0.00  0.00    +0.332 C 
BRANCH   8   9
ATOM      9  O   UNL     1      34.183 -12.095 -24.875  0.00  0.00    -0.451 OA
BRANCH   9  10
ATOM     10  C   UNL     1      34.256 -10.712 -25.236  0.00  0.00    +0.169 C 
ATOM     11  C   UNL     1      34.131  -9.859 -23.983  0.00  0.00    +0.047 C 
ATOM     12  C   UNL     1      35.566 -10.455 -25.967  0.00  0.00    +0.047 C 
ENDBRANCH   9  10
ENDBRANCH   8   9
ENDBRANCH   5   8
ENDBRANCH   3   5
ENDBRANCH   1   3
BRANCH   1  13
ATOM     13  O   UNL     1      32.380 -14.185 -21.475  0.00  0.00    -0.429 OA
BRANCH  13  14
ATOM     14  C   UNL     1      32.023 -12.908 -21.132  0.00  0.00    +0.146 C 
ATOM     15  C   UNL     1      31.660 -12.004 -22.125  0.00  0.00    +0.037 C 
ATOM     16  C   UNL     1      32.026 -12.528 -19.794  0.00  0.00    +0.037 C 
ATOM     17  C   UNL     1      31.296 -10.703 -21.775  0.00  0.00    +0.003 C 
ATOM     18  C   UNL     1      31.662 -11.227 -19.445  0.00  0.00    +0.003 C 
ATOM     19  C   UNL     1      31.298 -10.315 -20.436  0.00  0.00    +0.000 C 
ENDBRANCH  13  14
ENDBRANCH   1  13
BRANCH   1  20
ATOM     20  C   UNL     1      33.652 -16.345 -22.319  0.00  0.00    +0.258 C 
BRANCH  20  21
ATOM     21  O   UNL     1      35.000 -16.653 -22.646  0.00  0.00    -0.343 OA
BRANCH  21  22
ATOM     22  C   UNL     1      35.137 -18.000 -23.078  0.00  0.00    +0.136 C 
ATOM     23  C   UNL     1      34.602 -18.077 -24.501  0.00  0.00    +0.034 C 
BRANCH  22  24
ATOM     24  C   UNL     1      34.351 -18.928 -22.149  0.00  0.00    +0.123 C 
BRANCH  24  25
ATOM     25  N   UNL     1      35.193 -19.550 -21.127  0.00  0.00    -0.269 N 
ATOM     26  N   UNL     1      36.982 -19.958 -19.895  0.00  0.00    -0.242 NA
ATOM     27  N   UNL     1      33.634 -21.155 -20.189  0.00  0.00    -0.228 NA
ATOM     28  N   UNL     1      34.683 -22.436 -18.395  0.00  0.00    -0.229 NA
ATOM     29  C   UNL     1      34.824 -20.540 -20.279  0.00  0.00    +0.151 C 
ATOM     30  C   UNL     1      36.487 -19.227 -20.872  0.00  0.00    +0.221 C 
ATOM     31  C   UNL     1      35.953 -20.782 -19.516  0.00  0.00    +0.140 C 
ATOM     32  C   UNL     1      35.854 -21.772 -18.543  0.00  0.00    +0.143 C 
ATOM     33  C   UNL     1      33.661 -22.092 -19.216  0.00  0.00    +0.253 C 
ATOM     34  N   UNL     1      36.951 -22.084 -17.721  0.00  0.00    -0.342 N 
ATOM     35  H   UNL     1      36.869 -22.786 -17.036  0.00  0.00    +0.144 HD
ATOM     36  H   UNL     1      37.801 -21.598 -17.830  0.00  0.00    +0.144 HD
ENDBRANCH  24  25
ENDBRANCH  22  24
ENDBRANCH  21  22
ENDBRANCH  20  21
ENDBRANCH   1  20
TORSDOF 12
ENDMDL
MODEL 7
REMARK VINA RESULT:      -9.0      6.031     11.895
REMARK  Name = 9574768
REMARK  12 active torsions:
REMARK  status: ('A' for Active; 'I' for Inactive)
REMARK    1  A    between atoms: P_1  and  N_3
REMARK    2  A    between atoms: P_1  and  O_13
REMARK    3  A    between atoms: P_1  and  C_20
REMARK    4  A    between atoms: N_3  and  C_5
REMARK    5  A    between atoms: C_5  and  C_8
REMARK    6  A    between atoms: C_8  and  O_9
REMARK    7  A    between atoms: O_9  and  C_10
REMARK    8  A    between atoms: O_13  and  C_14
REMARK    9  A    between atoms: C_20  and  O_21
REMARK   10  A    between atoms: O_21  and  C_22
REMARK   11  A    between atoms: C_22  and  C_24
REMARK   12  A    between atoms: C_24  and  N_25
REMARK                            x       y       z     vdW  Elec       q    Type
REMARK                         _______ _______ _______ _____ _____    ______ ____
ROOT
ATOM      1  P   UNL     1      34.019 -23.462 -17.366  0.00  0.00    +0.358 P 
ATOM      2  O   UNL     1      33.450 -24.344 -18.447  0.00  0.00    -0.256 OA
ENDROOT
BRANCH   1   3
ATOM      3  N   UNL     1      35.040 -24.145 -16.255  0.00  0.00    -0.215 NA
ATOM      4  H   UNL     1      35.766 -24.633 -16.780  0.00  0.00    +0.134 HD
BRANCH   3   5
ATOM      5  C   UNL     1      35.715 -23.294 -15.290  0.00  0.00    +0.162 C 
ATOM      6  C   UNL     1      35.240 -23.633 -13.884  0.00  0.00    +0.030 C 
BRANCH   5   8
ATOM      7  O   UNL     1      38.020 -22.699 -15.824  0.00  0.00    -0.249 OA
ATOM      8  C   UNL     1      37.208 -23.523 -15.421  0.00  0.00    +0.332 C 
BRANCH   8   9
ATOM      9  O   UNL     1      37.506 -24.794 -15.014  0.00  0.00    -0.451 OA
BRANCH   9  10
ATOM     10  C   UNL     1      38.636 -24.917 -14.144  0.00  0.00    +0.169 C 
ATOM     11  C   UNL     1      38.235 -25.707 -12.909  0.00  0.00    +0.047 C 
ATOM     12  C   UNL     1      39.777 -25.584 -14.899  0.00  0.00    +0.047 C 
ENDBRANCH   9  10
ENDBRANCH   8   9
ENDBRANCH   5   8
ENDBRANCH   3   5
ENDBRANCH   1   3
BRANCH   1  13
ATOM     13  O   UNL     1      32.852 -22.673 -16.566  0.00  0.00    -0.429 OA
BRANCH  13  14
ATOM     14  C   UNL     1      31.723 -23.251 -16.051  0.00  0.00    +0.146 C 
ATOM     15  C   UNL     1      31.835 -24.206 -15.044  0.00  0.00    +0.037 C 
ATOM     16  C   UNL     1      30.474 -22.878 -16.537  0.00  0.00    +0.037 C 
ATOM     17  C   UNL     1      30.684 -24.794 -14.519  0.00  0.00    +0.003 C 
ATOM     18  C   UNL     1      29.324 -23.468 -16.011  0.00  0.00    +0.003 C 
ATOM     19  C   UNL     1      29.429 -24.426 -15.003  0.00  0.00    +0.000 C 
ENDBRANCH  13  14
ENDBRANCH   1  13
BRANCH   1  20
ATOM     20  C   UNL     1      34.925 -22.088 -18.100  0.00  0.00    +0.258 C 
BRANCH  20  21
ATOM     21  O   UNL     1      35.038 -22.399 -19.482  0.00  0.00    -0.343 OA
BRANCH  21  22
ATOM     22  C   UNL     1      35.597 -21.317 -20.215  0.00  0.00    +0.136 C 
ATOM     23  C   UNL     1      36.843 -20.859 -19.470  0.00  0.00    +0.034 C 
BRANCH  22  24
ATOM     24  C   UNL     1      34.578 -20.179 -20.325  0.00  0.00    +0.123 C 
BRANCH  24  25
ATOM     25  N   UNL     1      34.740 -19.392 -21.547  0.00  0.00    -0.269 N 
ATOM     26  N   UNL     1      34.999 -18.949 -23.697  0.00  0.00    -0.242 NA
ATOM     27  N   UNL     1      34.695 -17.145 -20.634  0.00  0.00    -0.228 NA
ATOM     28  N   UNL     1      34.941 -15.484 -22.405  0.00  0.00    -0.229 NA
ATOM     29  C   UNL     1      34.785 -18.041 -21.630  0.00  0.00    +0.151 C 
ATOM     30  C   UNL     1      34.871 -19.903 -22.799  0.00  0.00    +0.221 C 
ATOM     31  C   UNL     1      34.947 -17.780 -22.980  0.00  0.00    +0.140 C 
ATOM     32  C   UNL     1      35.025 -16.443 -23.357  0.00  0.00    +0.143 C 
ATOM     33  C   UNL     1      34.784 -15.888 -21.121  0.00  0.00    +0.253 C 
ATOM     34  N   UNL     1      35.187 -16.086 -24.707  0.00  0.00    -0.342 N 
ATOM     35  H   UNL     1      35.241 -15.137 -24.962  0.00  0.00    +0.144 HD
ATOM     36  H   UNL     1      35.246 -16.786 -25.397  0.00  0.00    +0.144 HD
ENDBRANCH  24  25
ENDBRANCH  22  24
ENDBRANCH  21  22
ENDBRANCH  20  21
ENDBRANCH   1  20
TORSDOF 12
ENDMDL
MODEL 8
REMARK VINA RESULT:      -9.0      1.065      2.229
REMARK  Name = 9574768
REMARK  12 active torsions:
REMARK  status: ('A' for Active; 'I' for Inactive)
REMARK    1  A    between atoms: P_1  and  N_3
REMARK    2  A    between atoms: P_1  and  O_13
REMARK    3  A    between atoms: P_1  and  C_20
REMARK    4  A    between atoms: N_3  and  C_5
REMARK    5  A    between atoms: C_5  and  C_8
REMARK    6  A    between atoms: C_8  and  O_9
REMARK    7  A    between atoms: O_9  and  C_10
REMARK    8  A    between atoms: O_13  and  C_14
REMARK    9  A    between atoms: C_20  and  O_21
REMARK   10  A    between atoms: O_21  and  C_22
REMARK   11  A    between atoms: C_22  and  C_24
REMARK   12  A    between atoms: C_24  and  N_25
REMARK                            x       y       z     vdW  Elec       q    Type
REMARK                         _______ _______ _______ _____ _____    ______ ____
ROOT
ATOM      1  P   UNL     1      32.696 -13.460 -22.699  0.00  0.00    +0.358 P 
ATOM      2  O   UNL     1      34.071 -12.849 -22.612  0.00  0.00    -0.256 OA
ENDROOT
BRANCH   1   3
ATOM      3  N   UNL     1      32.276 -14.247 -24.093  0.00  0.00    -0.215 NA
ATOM      4  H   UNL     1      31.259 -14.331 -24.092  0.00  0.00    +0.134 HD
BRANCH   3   5
ATOM      5  C   UNL     1      32.652 -13.675 -25.376  0.00  0.00    +0.162 C 
ATOM      6  C   UNL     1      33.640 -12.537 -25.162  0.00  0.00    +0.030 C 
BRANCH   5   8
ATOM      7  O   UNL     1      33.719 -14.631 -27.351  0.00  0.00    -0.249 OA
ATOM      8  C   UNL     1      33.272 -14.772 -26.219  0.00  0.00    +0.332 C 
BRANCH   8   9
ATOM      9  O   UNL     1      33.259 -15.944 -25.513  0.00  0.00    -0.451 OA
BRANCH   9  10
ATOM     10  C   UNL     1      34.520 -16.611 -25.397  0.00  0.00    +0.169 C 
ATOM     11  C   UNL     1      35.288 -16.030 -24.221  0.00  0.00    +0.047 C 
ATOM     12  C   UNL     1      34.281 -18.105 -25.237  0.00  0.00    +0.047 C 
ENDBRANCH   9  10
ENDBRANCH   8   9
ENDBRANCH   5   8
ENDBRANCH   3   5
ENDBRANCH   1   3
BRANCH   1  13
ATOM     13  O   UNL     1      31.541 -12.375 -22.361  0.00  0.00    -0.429 OA
BRANCH  13  14
ATOM     14  C   UNL     1      31.681 -11.317 -21.503  0.00  0.00    +0.146 C 
ATOM     15  C   UNL     1      31.495 -11.508 -20.137  0.00  0.00    +0.037 C 
ATOM     16  C   UNL     1      32.010 -10.062 -22.004  0.00  0.00    +0.037 C 
ATOM     17  C   UNL     1      31.638 -10.431 -19.263  0.00  0.00    +0.003 C 
ATOM     18  C   UNL     1      32.153  -8.985 -21.129  0.00  0.00    +0.003 C 
ATOM     19  C   UNL     1      31.966  -9.169 -19.758  0.00  0.00    +0.000 C 
ENDBRANCH  13  14
ENDBRANCH   1  13
BRANCH   1  20
ATOM     20  C   UNL     1      32.459 -14.646 -21.363  0.00  0.00    +0.258 C 
BRANCH  20  21
ATOM     21  O   UNL     1      32.948 -15.884 -21.861  0.00  0.00    -0.343 OA
BRANCH  21  22
ATOM     22  C   UNL     1      33.682 -16.590 -20.869  0.00  0.00    +0.136 C 
ATOM     23  C   UNL     1      34.715 -15.629 -20.298  0.00  0.00    +0.034 C 
BRANCH  22  24
ATOM     24  C   UNL     1      34.360 -17.813 -21.494  0.00  0.00    +0.123 C 
BRANCH  24  25
ATOM     25  N   UNL     1      33.922 -19.071 -20.891  0.00  0.00    -0.269 N 
ATOM     26  N   UNL     1      32.552 -20.671 -20.218  0.00  0.00    -0.242 NA
ATOM     27  N   UNL     1      36.053 -19.983 -20.177  0.00  0.00    -0.228 NA
ATOM     28  N   UNL     1      35.750 -22.149 -19.091  0.00  0.00    -0.229 NA
ATOM     29  C   UNL     1      34.718 -20.005 -20.318  0.00  0.00    +0.151 C 
ATOM     30  C   UNL     1      32.635 -19.500 -20.815  0.00  0.00    +0.221 C 
ATOM     31  C   UNL     1      33.847 -20.998 -19.903  0.00  0.00    +0.140 C 
ATOM     32  C   UNL     1      34.408 -22.102 -19.268  0.00  0.00    +0.143 C 
ATOM     33  C   UNL     1      36.479 -21.101 -19.549  0.00  0.00    +0.253 C 
ATOM     34  N   UNL     1      33.599 -23.158 -18.816  0.00  0.00    -0.342 N 
ATOM     35  H   UNL     1      34.007 -23.934 -18.368  0.00  0.00    +0.144 HD
ATOM     36  H   UNL     1      32.623 -23.122 -18.947  0.00  0.00    +0.144 HD
ENDBRANCH  24  25
ENDBRANCH  22  24
ENDBRANCH  21  22
ENDBRANCH  20  21
ENDBRANCH   1  20
TORSDOF 12
ENDMDL
MODEL 9
REMARK VINA RESULT:      -9.0      1.682      4.125
REMARK  Name = 9574768
REMARK  12 active torsions:
REMARK  status: ('A' for Active; 'I' for Inactive)
REMARK    1  A    between atoms: P_1  and  N_3
REMARK    2  A    between atoms: P_1  and  O_13
REMARK    3  A    between atoms: P_1  and  C_20
REMARK    4  A    between atoms: N_3  and  C_5
REMARK    5  A    between atoms: C_5  and  C_8
REMARK    6  A    between atoms: C_8  and  O_9
REMARK    7  A    between atoms: O_9  and  C_10
REMARK    8  A    between atoms: O_13  and  C_14
REMARK    9  A    between atoms: C_20  and  O_21
REMARK   10  A    between atoms: O_21  and  C_22
REMARK   11  A    between atoms: C_22  and  C_24
REMARK   12  A    between atoms: C_24  and  N_25
REMARK                            x       y       z     vdW  Elec       q    Type
REMARK                         _______ _______ _______ _____ _____    ______ ____
ROOT
ATOM      1  P   UNL     1      33.123 -14.098 -21.713  0.00  0.00    +0.358 P 
ATOM      2  O   UNL     1      31.884 -14.785 -22.227  0.00  0.00    -0.256 OA
ENDROOT
BRANCH   1   3
ATOM      3  N   UNL     1      32.935 -12.764 -20.750  0.00  0.00    -0.215 NA
ATOM      4  H   UNL     1      33.598 -12.062 -21.081  0.00  0.00    +0.134 HD
BRANCH   3   5
ATOM      5  C   UNL     1      31.635 -12.116 -20.675  0.00  0.00    +0.162 C 
ATOM      6  C   UNL     1      31.527 -11.326 -19.379  0.00  0.00    +0.030 C 
BRANCH   5   8
ATOM      7  O   UNL     1      30.471 -11.035 -22.527  0.00  0.00    -0.249 OA
ATOM      8  C   UNL     1      31.495 -11.199 -21.875  0.00  0.00    +0.332 C 
BRANCH   8   9
ATOM      9  O   UNL     1      32.692 -10.581 -22.111  0.00  0.00    -0.451 OA
BRANCH   9  10
ATOM     10  C   UNL     1      32.609  -9.248 -22.624  0.00  0.00    +0.169 C 
ATOM     11  C   UNL     1      32.526  -8.268 -21.464  0.00  0.00    +0.047 C 
ATOM     12  C   UNL     1      33.817  -8.977 -23.510  0.00  0.00    +0.047 C 
ENDBRANCH   9  10
ENDBRANCH   8   9
ENDBRANCH   5   8
ENDBRANCH   3   5
ENDBRANCH   1   3
BRANCH   1  13
ATOM     13  O   UNL     1      34.135 -13.715 -22.918  0.00  0.00    -0.429 OA
BRANCH  13  14
ATOM     14  C   UNL     1      33.795 -13.661 -24.244  0.00  0.00    +0.146 C 
ATOM     15  C   UNL     1      33.780 -12.436 -24.902  0.00  0.00    +0.037 C 
ATOM     16  C   UNL     1      33.470 -14.832 -24.920  0.00  0.00    +0.037 C 
ATOM     17  C   UNL     1      33.435 -12.381 -26.253  0.00  0.00    +0.003 C 
ATOM     18  C   UNL     1      33.124 -14.777 -26.270  0.00  0.00    +0.003 C 
ATOM     19  C   UNL     1      33.106 -13.551 -26.936  0.00  0.00    +0.000 C 
ENDBRANCH  13  14
ENDBRANCH   1  13
BRANCH   1  20
ATOM     20  C   UNL     1      34.129 -15.257 -20.770  0.00  0.00    +0.258 C 
BRANCH  20  21
ATOM     21  O   UNL     1      33.671 -16.551 -21.141  0.00  0.00    -0.343 OA
BRANCH  21  22
ATOM     22  C   UNL     1      34.753 -17.412 -21.470  0.00  0.00    +0.136 C 
ATOM     23  C   UNL     1      35.630 -16.677 -22.474  0.00  0.00    +0.034 C 
BRANCH  22  24
ATOM     24  C   UNL     1      34.219 -18.718 -22.065  0.00  0.00    +0.123 C 
BRANCH  24  25
ATOM     25  N   UNL     1      33.878 -19.706 -21.043  0.00  0.00    -0.269 N 
ATOM     26  N   UNL     1      32.627 -20.978 -19.738  0.00  0.00    -0.242 NA
ATOM     27  N   UNL     1      36.095 -20.378 -20.322  0.00  0.00    -0.228 NA
ATOM     28  N   UNL     1      35.961 -22.071 -18.569  0.00  0.00    -0.229 NA
ATOM     29  C   UNL     1      34.753 -20.419 -20.295  0.00  0.00    +0.151 C 
ATOM     30  C   UNL     1      32.617 -20.064 -20.686  0.00  0.00    +0.221 C 
ATOM     31  C   UNL     1      33.955 -21.210 -19.485  0.00  0.00    +0.140 C 
ATOM     32  C   UNL     1      34.607 -22.060 -18.597  0.00  0.00    +0.143 C 
ATOM     33  C   UNL     1      36.612 -21.241 -19.421  0.00  0.00    +0.253 C 
ATOM     34  N   UNL     1      33.876 -22.899 -17.738  0.00  0.00    -0.342 N 
ATOM     35  H   UNL     1      34.348 -23.496 -17.114  0.00  0.00    +0.144 HD
ATOM     36  H   UNL     1      32.892 -22.889 -17.761  0.00  0.00    +0.144 HD
ENDBRANCH  24  25
ENDBRANCH  22  24
ENDBRANCH  21  22
ENDBRANCH  20  21
ENDBRANCH   1  20
TORSDOF 12
ENDMDL
