MODEL 1
REMARK VINA RESULT:     -11.2      0.000      0.000
REMARK  Name = 23624249
REMARK  4 active torsions:
REMARK  status: ('A' for Active; 'I' for Inactive)
REMARK    1  A    between atoms: N_5  and  C_17
REMARK    2  A    between atoms: C_7  and  C_29
REMARK    3  A    between atoms: C_18  and  C_23
REMARK    4  A    between atoms: C_23  and  C_25
REMARK                            x       y       z     vdW  Elec       q    Type
REMARK                         _______ _______ _______ _____ _____    ______ ____
ROOT
ATOM      1  N   UNL     1      30.663 -22.839 -16.909  0.00  0.00    -0.239 N 
ATOM      2  N   UNL     1      31.953 -23.006 -16.569  0.00  0.00    -0.166 NA
ATOM      3  N   UNL     1      32.931 -24.144 -14.698  0.00  0.00    -0.275 N 
ATOM      4  N   UNL     1      34.802 -23.318 -15.917  0.00  0.00    -0.317 NA
ATOM      5  N   UNL     1      36.672 -22.520 -17.090  0.00  0.00    -0.238 N 
ATOM      6  N   UNL     1      37.036 -23.741 -15.119  0.00  0.00    -0.317 NA
ATOM      7  C   UNL     1      29.784 -23.413 -16.039  0.00  0.00    +0.045 C 
ATOM      8  C   UNL     1      30.552 -23.999 -15.062  0.00  0.00    +0.048 C 
ATOM      9  C   UNL     1      31.842 -23.702 -15.465  0.00  0.00    +0.152 C 
ATOM     10  C   UNL     1      34.332 -24.001 -14.853  0.00  0.00    +0.184 C 
ATOM     11  C   UNL     1      35.140 -24.575 -13.892  0.00  0.00    +0.151 C 
ATOM     12  C   UNL     1      36.145 -23.226 -15.991  0.00  0.00    +0.205 C 
ATOM     13  C   UNL     1      36.498 -24.412 -14.079  0.00  0.00    +0.179 C 
ATOM     14  H   UNL     1      30.378 -22.346 -17.712  0.00  0.00    +0.174 HD
ATOM     15  H   UNL     1      32.672 -24.654 -13.897  0.00  0.00    +0.156 HD
ATOM     16  H   UNL     1      37.654 -22.481 -17.100  0.00  0.00    +0.166 HD
ATOM     17  N   UNL     1      37.362 -24.986 -13.116  0.00  0.00    -0.309 N 
ATOM     18  C   UNL     1      38.783 -24.887 -13.200  0.00  0.00    +0.110 C 
ATOM     19  H   UNL     1      36.967 -25.473 -12.358  0.00  0.00    +0.149 HD
ENDROOT
BRANCH   5  20
ATOM     20  C   UNL     1      36.066 -21.857 -18.177  0.00  0.00    +0.058 C 
ATOM     21  C   UNL     1      34.870 -20.547 -20.331  0.00  0.00    -0.007 C 
ATOM     22  C   UNL     1      34.724 -22.089 -18.477  0.00  0.00    +0.015 C 
ATOM     23  C   UNL     1      36.811 -20.970 -18.955  0.00  0.00    +0.015 C 
ATOM     24  C   UNL     1      34.126 -21.435 -19.554  0.00  0.00    -0.002 C 
ATOM     25  C   UNL     1      36.213 -20.314 -20.031  0.00  0.00    -0.002 C 
BRANCH  21  26
ATOM     26  C   UNL     1      34.231 -19.846 -21.482  0.00  0.00    +0.132 C 
BRANCH  26  28
ATOM     27  N   UNL     1      34.704 -17.254 -21.464  0.00  0.00    -0.196 NA
ATOM     28  C   UNL     1      34.492 -18.395 -21.475  0.00  0.00    +0.078 C 
ENDBRANCH  26  28
ENDBRANCH  21  26
ENDBRANCH   5  20
BRANCH   7  29
ATOM     29  C   UNL     1      28.264 -23.404 -16.139  0.00  0.00    +0.037 C 
ATOM     30  C   UNL     1      27.599 -22.497 -17.144  0.00  0.00    +0.006 C 
ATOM     31  C   UNL     1      27.504 -22.185 -15.679  0.00  0.00    +0.006 C 
ENDBRANCH   7  29
TORSDOF 4
ENDMDL
MODEL 2
REMARK VINA RESULT:     -11.2      1.552      6.153
REMARK  Name = 23624249
REMARK  4 active torsions:
REMARK  status: ('A' for Active; 'I' for Inactive)
REMARK    1  A    between atoms: N_5  and  C_17
REMARK    2  A    between atoms: C_7  and  C_29
REMARK    3  A    between atoms: C_18  and  C_23
REMARK    4  A    between atoms: C_23  and  C_25
REMARK                            x       y       z     vdW  Elec       q    Type
REMARK                         _______ _______ _______ _____ _____    ______ ____
ROOT
ATOM      1  N   UNL     1      33.598 -21.630 -19.262  0.00  0.00    -0.239 N 
ATOM      2  N   UNL     1      33.990 -22.197 -18.107  0.00  0.00    -0.166 NA
ATOM      3  N   UNL     1      36.170 -22.366 -17.121  0.00  0.00    -0.275 N 
ATOM      4  N   UNL     1      34.742 -23.463 -15.564  0.00  0.00    -0.317 NA
ATOM      5  N   UNL     1      33.368 -24.552 -14.004  0.00  0.00    -0.238 N 
ATOM      6  N   UNL     1      35.666 -24.410 -13.550  0.00  0.00    -0.317 NA
ATOM      7  C   UNL     1      34.616 -21.066 -19.973  0.00  0.00    +0.045 C 
ATOM      8  C   UNL     1      35.754 -21.278 -19.232  0.00  0.00    +0.048 C 
ATOM      9  C   UNL     1      35.279 -21.965 -18.129  0.00  0.00    +0.152 C 
ATOM     10  C   UNL     1      35.986 -23.064 -15.903  0.00  0.00    +0.184 C 
ATOM     11  C   UNL     1      37.104 -23.299 -15.128  0.00  0.00    +0.151 C 
ATOM     12  C   UNL     1      34.652 -24.121 -14.391  0.00  0.00    +0.205 C 
ATOM     13  C   UNL     1      36.882 -23.981 -13.950  0.00  0.00    +0.179 C 
ATOM     14  H   UNL     1      32.662 -21.622 -19.566  0.00  0.00    +0.174 HD
ATOM     15  H   UNL     1      37.106 -22.112 -17.294  0.00  0.00    +0.156 HD
ATOM     16  H   UNL     1      33.353 -25.026 -13.142  0.00  0.00    +0.166 HD
ATOM     17  N   UNL     1      38.003 -24.242 -13.125  0.00  0.00    -0.309 N 
ATOM     18  C   UNL     1      37.901 -24.938 -11.884  0.00  0.00    +0.110 C 
ATOM     19  H   UNL     1      38.888 -23.930 -13.420  0.00  0.00    +0.149 HD
ENDROOT
BRANCH   5  20
ATOM     20  C   UNL     1      32.100 -24.438 -14.611  0.00  0.00    +0.058 C 
ATOM     21  C   UNL     1      29.590 -24.213 -15.809  0.00  0.00    -0.007 C 
ATOM     22  C   UNL     1      31.873 -23.458 -15.576  0.00  0.00    +0.015 C 
ATOM     23  C   UNL     1      31.072 -25.307 -14.244  0.00  0.00    +0.015 C 
ATOM     24  C   UNL     1      30.618 -23.344 -16.175  0.00  0.00    -0.002 C 
ATOM     25  C   UNL     1      29.818 -25.195 -14.843  0.00  0.00    -0.002 C 
BRANCH  21  26
ATOM     26  C   UNL     1      28.249 -24.093 -16.450  0.00  0.00    +0.132 C 
BRANCH  26  28
ATOM     27  N   UNL     1      27.620 -21.602 -17.034  0.00  0.00    -0.196 NA
ATOM     28  C   UNL     1      27.900 -22.698 -16.774  0.00  0.00    +0.078 C 
ENDBRANCH  26  28
ENDBRANCH  21  26
ENDBRANCH   5  20
BRANCH   7  29
ATOM     29  C   UNL     1      34.505 -20.349 -21.312  0.00  0.00    +0.037 C 
ATOM     30  C   UNL     1      35.413 -19.180 -21.598  0.00  0.00    +0.006 C 
ATOM     31  C   UNL     1      33.951 -18.947 -21.352  0.00  0.00    +0.006 C 
ENDBRANCH   7  29
TORSDOF 4
ENDMDL
MODEL 3
REMARK VINA RESULT:     -10.7      2.172      7.237
REMARK  Name = 23624249
REMARK  4 active torsions:
REMARK  status: ('A' for Active; 'I' for Inactive)
REMARK    1  A    between atoms: N_5  and  C_17
REMARK    2  A    between atoms: C_7  and  C_29
REMARK    3  A    between atoms: C_18  and  C_23
REMARK    4  A    between atoms: C_23  and  C_25
REMARK                            x       y       z     vdW  Elec       q    Type
REMARK                         _______ _______ _______ _____ _____    ______ ____
ROOT
ATOM      1  N   UNL     1      35.648 -21.635 -19.156  0.00  0.00    -0.239 N 
ATOM      2  N   UNL     1      34.883 -22.255 -18.241  0.00  0.00    -0.166 NA
ATOM      3  N   UNL     1      32.496 -22.372 -18.034  0.00  0.00    -0.275 N 
ATOM      4  N   UNL     1      33.301 -23.647 -16.192  0.00  0.00    -0.317 NA
ATOM      5  N   UNL     1      34.055 -24.911 -14.364  0.00  0.00    -0.238 N 
ATOM      6  N   UNL     1      31.741 -24.676 -14.672  0.00  0.00    -0.317 NA
ATOM      7  C   UNL     1      34.937 -20.971 -20.112  0.00  0.00    +0.045 C 
ATOM      8  C   UNL     1      33.614 -21.171 -19.801  0.00  0.00    +0.048 C 
ATOM      9  C   UNL     1      33.680 -21.954 -18.662  0.00  0.00    +0.152 C 
ATOM     10  C   UNL     1      32.250 -23.161 -16.884  0.00  0.00    +0.184 C 
ATOM     11  C   UNL     1      30.933 -23.386 -16.537  0.00  0.00    +0.151 C 
ATOM     12  C   UNL     1      32.982 -24.387 -15.111  0.00  0.00    +0.205 C 
ATOM     13  C   UNL     1      30.737 -24.159 -15.411  0.00  0.00    +0.179 C 
ATOM     14  H   UNL     1      36.632 -21.658 -19.139  0.00  0.00    +0.174 HD
ATOM     15  H   UNL     1      31.677 -22.056 -18.481  0.00  0.00    +0.156 HD
ATOM     16  H   UNL     1      33.772 -25.443 -13.587  0.00  0.00    +0.166 HD
ATOM     17  N   UNL     1      29.400 -24.414 -15.020  0.00  0.00    -0.309 N 
ATOM     18  C   UNL     1      29.068 -25.199 -13.876  0.00  0.00    +0.110 C 
ATOM     19  H   UNL     1      28.670 -24.034 -15.560  0.00  0.00    +0.149 HD
ENDROOT
BRANCH   5  20
ATOM     20  C   UNL     1      35.455 -24.821 -14.512  0.00  0.00    +0.058 C 
ATOM     21  C   UNL     1      38.223 -24.646 -14.807  0.00  0.00    -0.007 C 
ATOM     22  C   UNL     1      36.101 -23.601 -14.317  0.00  0.00    +0.015 C 
ATOM     23  C   UNL     1      36.193 -25.955 -14.855  0.00  0.00    +0.015 C 
ATOM     24  C   UNL     1      37.485 -23.513 -14.465  0.00  0.00    -0.002 C 
ATOM     25  C   UNL     1      37.577 -25.867 -15.002  0.00  0.00    -0.002 C 
BRANCH  21  26
ATOM     26  C   UNL     1      39.704 -24.552 -14.964  0.00  0.00    +0.132 C 
BRANCH  26  28
ATOM     27  N   UNL     1      40.942 -26.765 -14.249  0.00  0.00    -0.196 NA
ATOM     28  C   UNL     1      40.394 -25.790 -14.560  0.00  0.00    +0.078 C 
ENDBRANCH  26  28
ENDBRANCH  21  26
ENDBRANCH   5  20
BRANCH   7  29
ATOM     29  C   UNL     1      35.503 -20.175 -21.281  0.00  0.00    +0.037 C 
ATOM     30  C   UNL     1      36.450 -19.035 -21.004  0.00  0.00    +0.006 C 
ATOM     31  C   UNL     1      35.057 -18.749 -21.484  0.00  0.00    +0.006 C 
ENDBRANCH   7  29
TORSDOF 4
ENDMDL
MODEL 4
REMARK VINA RESULT:      -8.5      1.730      6.214
REMARK  Name = 23624249
REMARK  4 active torsions:
REMARK  status: ('A' for Active; 'I' for Inactive)
REMARK    1  A    between atoms: N_5  and  C_17
REMARK    2  A    between atoms: C_7  and  C_29
REMARK    3  A    between atoms: C_18  and  C_23
REMARK    4  A    between atoms: C_23  and  C_25
REMARK                            x       y       z     vdW  Elec       q    Type
REMARK                         _______ _______ _______ _____ _____    ______ ____
ROOT
ATOM      1  N   UNL     1      31.938 -24.093 -15.473  0.00  0.00    -0.239 N 
ATOM      2  N   UNL     1      32.918 -23.497 -16.173  0.00  0.00    -0.166 NA
ATOM      3  N   UNL     1      32.825 -22.232 -18.209  0.00  0.00    -0.275 N 
ATOM      4  N   UNL     1      35.134 -22.227 -17.629  0.00  0.00    -0.317 NA
ATOM      5  N   UNL     1      37.418 -22.199 -17.091  0.00  0.00    -0.238 N 
ATOM      6  N   UNL     1      36.722 -21.087 -19.037  0.00  0.00    -0.317 NA
ATOM      7  C   UNL     1      30.699 -23.946 -16.023  0.00  0.00    +0.045 C 
ATOM      8  C   UNL     1      30.881 -23.200 -17.162  0.00  0.00    +0.048 C 
ATOM      9  C   UNL     1      32.246 -22.977 -17.170  0.00  0.00    +0.152 C 
ATOM     10  C   UNL     1      34.160 -21.846 -18.481  0.00  0.00    +0.184 C 
ATOM     11  C   UNL     1      34.387 -21.096 -19.618  0.00  0.00    +0.151 C 
ATOM     12  C   UNL     1      36.376 -21.820 -17.959  0.00  0.00    +0.205 C 
ATOM     13  C   UNL     1      35.700 -20.740 -19.847  0.00  0.00    +0.179 C 
ATOM     14  H   UNL     1      32.099 -24.591 -14.639  0.00  0.00    +0.174 HD
ATOM     15  H   UNL     1      32.177 -21.915 -18.879  0.00  0.00    +0.156 HD
ATOM     16  H   UNL     1      38.304 -21.878 -17.373  0.00  0.00    +0.166 HD
ATOM     17  N   UNL     1      35.975 -19.969 -21.002  0.00  0.00    -0.309 N 
ATOM     18  C   UNL     1      37.292 -19.540 -21.346  0.00  0.00    +0.110 C 
ATOM     19  H   UNL     1      35.228 -19.719 -21.592  0.00  0.00    +0.149 HD
ENDROOT
BRANCH   5  20
ATOM     20  C   UNL     1      37.440 -22.949 -15.897  0.00  0.00    +0.058 C 
ATOM     21  C   UNL     1      37.480 -24.433 -13.535  0.00  0.00    -0.007 C 
ATOM     22  C   UNL     1      38.463 -23.868 -15.668  0.00  0.00    +0.015 C 
ATOM     23  C   UNL     1      36.436 -22.771 -14.944  0.00  0.00    +0.015 C 
ATOM     24  C   UNL     1      38.483 -24.611 -14.487  0.00  0.00    -0.002 C 
ATOM     25  C   UNL     1      36.457 -23.512 -13.763  0.00  0.00    -0.002 C 
BRANCH  21  26
ATOM     26  C   UNL     1      37.502 -25.226 -12.271  0.00  0.00    +0.132 C 
BRANCH  26  28
ATOM     27  N   UNL     1      35.361 -24.823 -10.790  0.00  0.00    -0.196 NA
ATOM     28  C   UNL     1      36.307 -24.997 -11.440  0.00  0.00    +0.078 C 
ENDBRANCH  26  28
ENDBRANCH  21  26
ENDBRANCH   5  20
BRANCH   7  29
ATOM     29  C   UNL     1      29.388 -24.497 -15.478  0.00  0.00    +0.037 C 
ATOM     30  C   UNL     1      28.192 -24.586 -16.391  0.00  0.00    +0.006 C 
ATOM     31  C   UNL     1      28.218 -23.564 -15.292  0.00  0.00    +0.006 C 
ENDBRANCH   7  29
TORSDOF 4
ENDMDL
