MODEL 1
REMARK VINA RESULT:      -5.6      0.000      0.000
REMARK  Name = 447827
REMARK  7 active torsions:
REMARK  status: ('A' for Active; 'I' for Inactive)
REMARK    1  A    between atoms: C_1  and  N_2
REMARK    2  A    between atoms: C_1  and  C_7
REMARK    3  A    between atoms: C_1  and  C_10
REMARK    4  A    between atoms: C_7  and  O_8
REMARK    5  A    between atoms: C_10  and  C_11
REMARK    6  A    between atoms: C_11  and  S_12
REMARK    7  A    between atoms: S_12  and  C_15
REMARK                            x       y       z     vdW  Elec       q    Type
REMARK                         _______ _______ _______ _____ _____    ______ ____
ROOT
ATOM      1  C   UNK     1      38.905 -25.194 -14.410  0.00  0.00    +0.037 C 
ENDROOT
BRANCH   1   2
ATOM      2  N   UNK     1      37.884 -25.771 -15.290  0.00  0.00    +0.389 N 
ATOM      3  H   UNK     1      37.890 -25.281 -16.184  0.00  0.00    -0.088 HD
ATOM      4  H   UNK     1      36.967 -25.674 -14.855  0.00  0.00    -0.088 HD
ATOM      5  H   UNK     1      38.086 -26.759 -15.442  0.00  0.00    -0.088 HD
ENDBRANCH   1   2
BRANCH   1   7
ATOM      6  O   UNK     1      40.961 -26.401 -13.907  0.00  0.00    -0.253 OA
ATOM      7  C   UNK     1      40.207 -25.903 -14.735  0.00  0.00    +0.293 C 
BRANCH   7   8
ATOM      8  O   UNK     1      40.446 -25.958 -16.070  0.00  0.00    -0.482 OA
ATOM      9  H   UNK     1      40.859 -25.237 -16.503  0.00  0.00    +0.295 HD
ENDBRANCH   7   8
ENDBRANCH   1   7
BRANCH   1  10
ATOM     10  C   UNK     1      38.500 -25.423 -12.947  0.00  0.00    +0.001 C 
BRANCH  10  11
ATOM     11  C   UNK     1      38.455 -24.169 -12.069  0.00  0.00    +0.061 C 
BRANCH  11  12
ATOM     12  S   UNK     1      36.850 -23.318 -12.118  0.00  0.00    -0.071 S 
BRANCH  12  15
ATOM     13  F   UNK     1      35.458 -24.477 -10.235  0.00  0.00    -0.186 F 
ATOM     14  F   UNK     1      34.660 -24.738 -12.246  0.00  0.00    -0.186 F 
ATOM     15  C   UNK     1      35.811 -24.667 -11.531  0.00  0.00    +0.367 C 
ENDBRANCH  12  15
ENDBRANCH  11  12
ENDBRANCH  10  11
ENDBRANCH   1  10
TORSDOF 7
ENDMDL
MODEL 2
REMARK VINA RESULT:      -5.5      1.558      1.880
REMARK  Name = 447827
REMARK  7 active torsions:
REMARK  status: ('A' for Active; 'I' for Inactive)
REMARK    1  A    between atoms: C_1  and  N_2
REMARK    2  A    between atoms: C_1  and  C_7
REMARK    3  A    between atoms: C_1  and  C_10
REMARK    4  A    between atoms: C_7  and  O_8
REMARK    5  A    between atoms: C_10  and  C_11
REMARK    6  A    between atoms: C_11  and  S_12
REMARK    7  A    between atoms: S_12  and  C_15
REMARK                            x       y       z     vdW  Elec       q    Type
REMARK                         _______ _______ _______ _____ _____    ______ ____
ROOT
ATOM      1  C   UNK     1      39.048 -25.253 -14.366  0.00  0.00    +0.037 C 
ENDROOT
BRANCH   1   2
ATOM      2  N   UNK     1      37.995 -25.725 -15.270  0.00  0.00    +0.389 N 
ATOM      3  H   UNK     1      38.379 -25.842 -16.208  0.00  0.00    -0.088 HD
ATOM      4  H   UNK     1      37.239 -25.041 -15.296  0.00  0.00    -0.088 HD
ATOM      5  H   UNK     1      37.635 -26.618 -14.936  0.00  0.00    -0.088 HD
ENDBRANCH   1   2
BRANCH   1   7
ATOM      6  O   UNK     1      41.067 -26.560 -13.974  0.00  0.00    -0.253 OA
ATOM      7  C   UNK     1      40.316 -25.991 -14.757  0.00  0.00    +0.293 C 
BRANCH   7   8
ATOM      8  O   UNK     1      40.526 -25.984 -16.098  0.00  0.00    -0.482 OA
ATOM      9  H   UNK     1      41.388 -26.118 -16.439  0.00  0.00    +0.295 HD
ENDBRANCH   7   8
ENDBRANCH   1   7
BRANCH   1  10
ATOM     10  C   UNK     1      38.650 -25.567 -12.917  0.00  0.00    +0.001 C 
BRANCH  10  11
ATOM     11  C   UNK     1      37.213 -26.060 -12.719  0.00  0.00    +0.061 C 
BRANCH  11  12
ATOM     12  S   UNK     1      36.130 -24.818 -11.953  0.00  0.00    -0.071 S 
BRANCH  12  15
ATOM     13  F   UNK     1      36.873 -22.761 -13.384  0.00  0.00    -0.186 F 
ATOM     14  F   UNK     1      36.954 -22.446 -11.229  0.00  0.00    -0.186 F 
ATOM     15  C   UNK     1      37.165 -23.366 -12.205  0.00  0.00    +0.367 C 
ENDBRANCH  12  15
ENDBRANCH  11  12
ENDBRANCH  10  11
ENDBRANCH   1  10
TORSDOF 7
ENDMDL
MODEL 3
REMARK VINA RESULT:      -5.4      1.537      1.544
REMARK  Name = 447827
REMARK  7 active torsions:
REMARK  status: ('A' for Active; 'I' for Inactive)
REMARK    1  A    between atoms: C_1  and  N_2
REMARK    2  A    between atoms: C_1  and  C_7
REMARK    3  A    between atoms: C_1  and  C_10
REMARK    4  A    between atoms: C_7  and  O_8
REMARK    5  A    between atoms: C_10  and  C_11
REMARK    6  A    between atoms: C_11  and  S_12
REMARK    7  A    between atoms: S_12  and  C_15
REMARK                            x       y       z     vdW  Elec       q    Type
REMARK                         _______ _______ _______ _____ _____    ______ ____
ROOT
ATOM      1  C   UNK     1      38.915 -25.265 -14.384  0.00  0.00    +0.037 C 
ENDROOT
BRANCH   1   2
ATOM      2  N   UNK     1      37.904 -25.799 -15.302  0.00  0.00    +0.389 N 
ATOM      3  H   UNK     1      38.062 -26.798 -15.437  0.00  0.00    -0.088 HD
ATOM      4  H   UNK     1      37.975 -25.321 -16.200  0.00  0.00    -0.088 HD
ATOM      5  H   UNK     1      36.975 -25.651 -14.910  0.00  0.00    -0.088 HD
ENDBRANCH   1   2
BRANCH   1   7
ATOM      6  O   UNK     1      40.989 -26.460 -13.933  0.00  0.00    -0.253 OA
ATOM      7  C   UNK     1      40.224 -25.945 -14.739  0.00  0.00    +0.293 C 
BRANCH   7   8
ATOM      8  O   UNK     1      40.457 -25.952 -16.077  0.00  0.00    -0.482 OA
ATOM      9  H   UNK     1      40.043 -25.317 -16.628  0.00  0.00    +0.295 HD
ENDBRANCH   7   8
ENDBRANCH   1   7
BRANCH   1  10
ATOM     10  C   UNK     1      38.502 -25.579 -12.939  0.00  0.00    +0.001 C 
BRANCH  10  11
ATOM     11  C   UNK     1      37.904 -24.409 -12.153  0.00  0.00    +0.061 C 
BRANCH  11  12
ATOM     12  S   UNK     1      36.139 -24.628 -11.776  0.00  0.00    -0.071 S 
BRANCH  12  15
ATOM     13  F   UNK     1      36.369 -23.050 -13.846  0.00  0.00    -0.186 F 
ATOM     14  F   UNK     1      35.081 -24.780 -14.160  0.00  0.00    -0.186 F 
ATOM     15  C   UNK     1      35.450 -23.848 -13.245  0.00  0.00    +0.367 C 
ENDBRANCH  12  15
ENDBRANCH  11  12
ENDBRANCH  10  11
ENDBRANCH   1  10
TORSDOF 7
ENDMDL
MODEL 4
REMARK VINA RESULT:      -5.4      3.094      3.396
REMARK  Name = 447827
REMARK  7 active torsions:
REMARK  status: ('A' for Active; 'I' for Inactive)
REMARK    1  A    between atoms: C_1  and  N_2
REMARK    2  A    between atoms: C_1  and  C_7
REMARK    3  A    between atoms: C_1  and  C_10
REMARK    4  A    between atoms: C_7  and  O_8
REMARK    5  A    between atoms: C_10  and  C_11
REMARK    6  A    between atoms: C_11  and  S_12
REMARK    7  A    between atoms: S_12  and  C_15
REMARK                            x       y       z     vdW  Elec       q    Type
REMARK                         _______ _______ _______ _____ _____    ______ ____
ROOT
ATOM      1  C   UNK     1      38.580 -25.734 -14.545  0.00  0.00    +0.037 C 
ENDROOT
BRANCH   1   2
ATOM      2  N   UNK     1      37.965 -27.031 -14.252  0.00  0.00    +0.389 N 
ATOM      3  H   UNK     1      38.197 -27.693 -14.992  0.00  0.00    -0.088 HD
ATOM      4  H   UNK     1      36.952 -26.923 -14.200  0.00  0.00    -0.088 HD
ATOM      5  H   UNK     1      38.315 -27.381 -13.360  0.00  0.00    -0.088 HD
ENDBRANCH   1   2
BRANCH   1   7
ATOM      6  O   UNK     1      40.859 -26.322 -13.915  0.00  0.00    -0.253 OA
ATOM      7  C   UNK     1      40.056 -25.999 -14.781  0.00  0.00    +0.293 C 
BRANCH   7   8
ATOM      8  O   UNK     1      40.402 -25.868 -16.087  0.00  0.00    -0.482 OA
ATOM      9  H   UNK     1      41.237 -26.173 -16.385  0.00  0.00    +0.295 HD
ENDBRANCH   7   8
ENDBRANCH   1   7
BRANCH   1  10
ATOM     10  C   UNK     1      38.372 -24.793 -13.349  0.00  0.00    +0.001 C 
BRANCH  10  11
ATOM     11  C   UNK     1      37.296 -23.719 -13.533  0.00  0.00    +0.061 C 
BRANCH  11  12
ATOM     12  S   UNK     1      36.420 -23.847 -15.120  0.00  0.00    -0.071 S 
BRANCH  12  15
ATOM     13  F   UNK     1      38.590 -22.912 -16.236  0.00  0.00    -0.186 F 
ATOM     14  F   UNK     1      36.738 -22.347 -17.236  0.00  0.00    -0.186 F 
ATOM     15  C   UNK     1      37.299 -22.557 -16.018  0.00  0.00    +0.367 C 
ENDBRANCH  12  15
ENDBRANCH  11  12
ENDBRANCH  10  11
ENDBRANCH   1  10
TORSDOF 7
ENDMDL
MODEL 5
REMARK VINA RESULT:      -5.3      3.941      4.814
REMARK  Name = 447827
REMARK  7 active torsions:
REMARK  status: ('A' for Active; 'I' for Inactive)
REMARK    1  A    between atoms: C_1  and  N_2
REMARK    2  A    between atoms: C_1  and  C_7
REMARK    3  A    between atoms: C_1  and  C_10
REMARK    4  A    between atoms: C_7  and  O_8
REMARK    5  A    between atoms: C_10  and  C_11
REMARK    6  A    between atoms: C_11  and  S_12
REMARK    7  A    between atoms: S_12  and  C_15
REMARK                            x       y       z     vdW  Elec       q    Type
REMARK                         _______ _______ _______ _____ _____    ______ ____
ROOT
ATOM      1  C   UNK     1      36.815 -23.322 -11.769  0.00  0.00    +0.037 C 
ENDROOT
BRANCH   1   2
ATOM      2  N   UNK     1      38.131 -23.964 -11.693  0.00  0.00    +0.389 N 
ATOM      3  H   UNK     1      38.400 -24.073 -10.715  0.00  0.00    -0.088 HD
ATOM      4  H   UNK     1      38.820 -23.383 -12.171  0.00  0.00    -0.088 HD
ATOM      5  H   UNK     1      38.089 -24.880 -12.139  0.00  0.00    -0.088 HD
ENDBRANCH   1   2
BRANCH   1   7
ATOM      6  O   UNK     1      34.966 -24.892 -11.537  0.00  0.00    -0.253 OA
ATOM      7  C   UNK     1      35.851 -24.223 -11.018  0.00  0.00    +0.293 C 
BRANCH   7   8
ATOM      8  O   UNK     1      36.090 -24.236  -9.682  0.00  0.00    -0.482 OA
ATOM      9  H   UNK     1      35.698 -23.588  -9.129  0.00  0.00    +0.295 HD
ENDBRANCH   7   8
ENDBRANCH   1   7
BRANCH   1  10
ATOM     10  C   UNK     1      36.406 -23.180 -13.242  0.00  0.00    +0.001 C 
BRANCH  10  11
ATOM     11  C   UNK     1      37.248 -23.978 -14.242  0.00  0.00    +0.061 C 
BRANCH  11  12
ATOM     12  S   UNK     1      36.394 -25.449 -14.882  0.00  0.00    -0.071 S 
BRANCH  12  15
ATOM     13  F   UNK     1      38.723 -26.379 -14.147  0.00  0.00    -0.186 F 
ATOM     14  F   UNK     1      37.087 -26.847 -12.786  0.00  0.00    -0.186 F 
ATOM     15  C   UNK     1      37.409 -26.713 -14.097  0.00  0.00    +0.367 C 
ENDBRANCH  12  15
ENDBRANCH  11  12
ENDBRANCH  10  11
ENDBRANCH   1  10
TORSDOF 7
ENDMDL
MODEL 6
REMARK VINA RESULT:      -5.3      9.130     10.229
REMARK  Name = 447827
REMARK  7 active torsions:
REMARK  status: ('A' for Active; 'I' for Inactive)
REMARK    1  A    between atoms: C_1  and  N_2
REMARK    2  A    between atoms: C_1  and  C_7
REMARK    3  A    between atoms: C_1  and  C_10
REMARK    4  A    between atoms: C_7  and  O_8
REMARK    5  A    between atoms: C_10  and  C_11
REMARK    6  A    between atoms: C_11  and  S_12
REMARK    7  A    between atoms: S_12  and  C_15
REMARK                            x       y       z     vdW  Elec       q    Type
REMARK                         _______ _______ _______ _____ _____    ______ ____
ROOT
ATOM      1  C   UNK     1      28.060 -23.238 -15.770  0.00  0.00    +0.037 C 
ENDROOT
BRANCH   1   2
ATOM      2  N   UNK     1      28.230 -24.135 -16.917  0.00  0.00    +0.389 N 
ATOM      3  H   UNK     1      27.947 -23.652 -17.770  0.00  0.00    -0.088 HD
ATOM      4  H   UNK     1      27.651 -24.964 -16.789  0.00  0.00    -0.088 HD
ATOM      5  H   UNK     1      29.209 -24.411 -16.992  0.00  0.00    -0.088 HD
ENDBRANCH   1   2
BRANCH   1   7
ATOM      6  O   UNK     1      27.186 -21.433 -17.153  0.00  0.00    -0.253 OA
ATOM      7  C   UNK     1      27.056 -22.181 -16.192  0.00  0.00    +0.293 C 
BRANCH   7   8
ATOM      8  O   UNK     1      25.957 -22.165 -15.395  0.00  0.00    -0.482 OA
ATOM      9  H   UNK     1      25.124 -22.422 -15.740  0.00  0.00    +0.295 HD
ENDBRANCH   7   8
ENDBRANCH   1   7
BRANCH   1  10
ATOM     10  C   UNK     1      29.414 -22.606 -15.417  0.00  0.00    +0.001 C 
BRANCH  10  11
ATOM     11  C   UNK     1      30.645 -23.318 -15.985  0.00  0.00    +0.061 C 
BRANCH  11  12
ATOM     12  S   UNK     1      31.933 -23.624 -14.740  0.00  0.00    -0.071 S 
BRANCH  12  15
ATOM     13  F   UNK     1      30.365 -24.556 -12.868  0.00  0.00    -0.186 F 
ATOM     14  F   UNK     1      30.355 -25.708 -14.718  0.00  0.00    -0.186 F 
ATOM     15  C   UNK     1      31.154 -25.001 -13.879  0.00  0.00    +0.367 C 
ENDBRANCH  12  15
ENDBRANCH  11  12
ENDBRANCH  10  11
ENDBRANCH   1  10
TORSDOF 7
ENDMDL
MODEL 7
REMARK VINA RESULT:      -5.3      2.227      2.495
REMARK  Name = 447827
REMARK  7 active torsions:
REMARK  status: ('A' for Active; 'I' for Inactive)
REMARK    1  A    between atoms: C_1  and  N_2
REMARK    2  A    between atoms: C_1  and  C_7
REMARK    3  A    between atoms: C_1  and  C_10
REMARK    4  A    between atoms: C_7  and  O_8
REMARK    5  A    between atoms: C_10  and  C_11
REMARK    6  A    between atoms: C_11  and  S_12
REMARK    7  A    between atoms: S_12  and  C_15
REMARK                            x       y       z     vdW  Elec       q    Type
REMARK                         _______ _______ _______ _____ _____    ______ ____
ROOT
ATOM      1  C   UNK     1      37.961 -26.306 -14.435  0.00  0.00    +0.037 C 
ENDROOT
BRANCH   1   2
ATOM      2  N   UNK     1      38.664 -25.220 -15.125  0.00  0.00    +0.389 N 
ATOM      3  H   UNK     1      39.478 -24.940 -14.578  0.00  0.00    -0.088 HD
ATOM      4  H   UNK     1      38.036 -24.422 -15.230  0.00  0.00    -0.088 HD
ATOM      5  H   UNK     1      38.965 -25.539 -16.044  0.00  0.00    -0.088 HD
ENDBRANCH   1   2
BRANCH   1   7
ATOM      6  O   UNK     1      36.673 -27.340 -16.226  0.00  0.00    -0.253 OA
ATOM      7  C   UNK     1      36.715 -26.601 -15.250  0.00  0.00    +0.293 C 
BRANCH   7   8
ATOM      8  O   UNK     1      35.617 -25.971 -14.761  0.00  0.00    -0.482 OA
ATOM      9  H   UNK     1      35.685 -25.095 -14.434  0.00  0.00    +0.295 HD
ENDBRANCH   7   8
ENDBRANCH   1   7
BRANCH   1  10
ATOM     10  C   UNK     1      37.598 -25.852 -13.014  0.00  0.00    +0.001 C 
BRANCH  10  11
ATOM     11  C   UNK     1      38.351 -24.621 -12.501  0.00  0.00    +0.061 C 
BRANCH  11  12
ATOM     12  S   UNK     1      37.248 -23.299 -11.919  0.00  0.00    -0.071 S 
BRANCH  12  15
ATOM     13  F   UNK     1      35.518 -24.368 -10.278  0.00  0.00    -0.186 F 
ATOM     14  F   UNK     1      34.685 -23.735 -12.190  0.00  0.00    -0.186 F 
ATOM     15  C   UNK     1      35.778 -24.291 -11.607  0.00  0.00    +0.367 C 
ENDBRANCH  12  15
ENDBRANCH  11  12
ENDBRANCH  10  11
ENDBRANCH   1  10
TORSDOF 7
ENDMDL
MODEL 8
REMARK VINA RESULT:      -5.3      4.233      5.134
REMARK  Name = 447827
REMARK  7 active torsions:
REMARK  status: ('A' for Active; 'I' for Inactive)
REMARK    1  A    between atoms: C_1  and  N_2
REMARK    2  A    between atoms: C_1  and  C_7
REMARK    3  A    between atoms: C_1  and  C_10
REMARK    4  A    between atoms: C_7  and  O_8
REMARK    5  A    between atoms: C_10  and  C_11
REMARK    6  A    between atoms: C_11  and  S_12
REMARK    7  A    between atoms: S_12  and  C_15
REMARK                            x       y       z     vdW  Elec       q    Type
REMARK                         _______ _______ _______ _____ _____    ______ ____
ROOT
ATOM      1  C   UNK     1      36.597 -23.250 -11.830  0.00  0.00    +0.037 C 
ENDROOT
BRANCH   1   2
ATOM      2  N   UNK     1      38.021 -23.544 -11.637  0.00  0.00    +0.389 N 
ATOM      3  H   UNK     1      38.508 -23.465 -12.530  0.00  0.00    -0.088 HD
ATOM      4  H   UNK     1      38.126 -24.493 -11.277  0.00  0.00    -0.088 HD
ATOM      5  H   UNK     1      38.418 -22.882 -10.972  0.00  0.00    -0.088 HD
ENDBRANCH   1   2
BRANCH   1   7
ATOM      6  O   UNK     1      35.945 -24.320  -9.740  0.00  0.00    -0.253 OA
ATOM      7  C   UNK     1      35.832 -24.228 -10.956  0.00  0.00    +0.293 C 
BRANCH   7   8
ATOM      8  O   UNK     1      34.967 -24.992 -11.671  0.00  0.00    -0.482 OA
ATOM      9  H   UNK     1      35.015 -25.004 -12.607  0.00  0.00    +0.295 HD
ENDBRANCH   7   8
ENDBRANCH   1   7
BRANCH   1  10
ATOM     10  C   UNK     1      36.239 -23.435 -13.311  0.00  0.00    +0.001 C 
BRANCH  10  11
ATOM     11  C   UNK     1      37.409 -23.779 -14.237  0.00  0.00    +0.061 C 
BRANCH  11  12
ATOM     12  S   UNK     1      37.464 -25.537 -14.696  0.00  0.00    -0.071 S 
BRANCH  12  15
ATOM     13  F   UNK     1      39.893 -24.757 -15.263  0.00  0.00    -0.186 F 
ATOM     14  F   UNK     1      39.694 -25.795 -13.357  0.00  0.00    -0.186 F 
ATOM     15  C   UNK     1      39.248 -25.775 -14.639  0.00  0.00    +0.367 C 
ENDBRANCH  12  15
ENDBRANCH  11  12
ENDBRANCH  10  11
ENDBRANCH   1  10
TORSDOF 7
ENDMDL
MODEL 9
REMARK VINA RESULT:      -5.3     11.563     12.232
REMARK  Name = 447827
REMARK  7 active torsions:
REMARK  status: ('A' for Active; 'I' for Inactive)
REMARK    1  A    between atoms: C_1  and  N_2
REMARK    2  A    between atoms: C_1  and  C_7
REMARK    3  A    between atoms: C_1  and  C_10
REMARK    4  A    between atoms: C_7  and  O_8
REMARK    5  A    between atoms: C_10  and  C_11
REMARK    6  A    between atoms: C_11  and  S_12
REMARK    7  A    between atoms: S_12  and  C_15
REMARK                            x       y       z     vdW  Elec       q    Type
REMARK                         _______ _______ _______ _____ _____    ______ ____
ROOT
ATOM      1  C   UNK     1      34.687 -18.161 -23.750  0.00  0.00    +0.037 C 
ENDROOT
BRANCH   1   2
ATOM      2  N   UNK     1      34.648 -19.267 -24.711  0.00  0.00    +0.389 N 
ATOM      3  H   UNK     1      34.839 -18.911 -25.648  0.00  0.00    -0.088 HD
ATOM      4  H   UNK     1      33.724 -19.699 -24.695  0.00  0.00    -0.088 HD
ATOM      5  H   UNK     1      35.352 -19.961 -24.461  0.00  0.00    -0.088 HD
ENDBRANCH   1   2
BRANCH   1   7
ATOM      6  O   UNK     1      34.781 -16.766 -25.745  0.00  0.00    -0.253 OA
ATOM      7  C   UNK     1      34.994 -16.906 -24.547  0.00  0.00    +0.293 C 
BRANCH   7   8
ATOM      8  O   UNK     1      35.517 -15.919 -23.776  0.00  0.00    -0.482 OA
ATOM      9  H   UNK     1      36.185 -16.118 -23.149  0.00  0.00    +0.295 HD
ENDBRANCH   7   8
ENDBRANCH   1   7
BRANCH   1  10
ATOM     10  C   UNK     1      35.779 -18.435 -22.707  0.00  0.00    +0.001 C 
BRANCH  10  11
ATOM     11  C   UNK     1      35.306 -18.482 -21.251  0.00  0.00    +0.061 C 
BRANCH  11  12
ATOM     12  S   UNK     1      35.010 -20.170 -20.648  0.00  0.00    -0.071 S 
BRANCH  12  15
ATOM     13  F   UNK     1      32.756 -20.594 -19.397  0.00  0.00    -0.186 F 
ATOM     14  F   UNK     1      32.756 -18.850 -20.704  0.00  0.00    -0.186 F 
ATOM     15  C   UNK     1      33.211 -20.123 -20.585  0.00  0.00    +0.367 C 
ENDBRANCH  12  15
ENDBRANCH  11  12
ENDBRANCH  10  11
ENDBRANCH   1  10
TORSDOF 7
ENDMDL
