MODEL 1
REMARK VINA RESULT:     -11.1      0.000      0.000
REMARK  Name = 25093369
REMARK  5 active torsions:
REMARK  status: ('A' for Active; 'I' for Inactive)
REMARK    1  A    between atoms: C_1  and  C_3
REMARK    2  A    between atoms: C_1  and  C_17
REMARK    3  A    between atoms: C_4  and  C_9
REMARK    4  A    between atoms: C_7  and  O_15
REMARK    5  A    between atoms: C_18  and  C_23
REMARK                            x       y       z     vdW  Elec       q    Type
REMARK                         _______ _______ _______ _____ _____    ______ ____
ROOT
ATOM      1  C   UNL     1      33.246 -12.302 -24.278  0.00  0.00    +0.086 C 
ATOM      2  C   UNL     1      34.346 -11.599 -25.098  0.00  0.00    +0.019 C 
ENDROOT
BRANCH   1   3
ATOM      3  C   UNL     1      32.631 -11.404 -23.258  0.00  0.00    -0.007 C 
ATOM      4  C   UNL     1      31.900  -9.205 -22.575  0.00  0.00    +0.003 C 
ATOM      5  C   UNL     1      32.474 -10.044 -23.529  0.00  0.00    -0.003 C 
ATOM      6  C   UNL     1      32.214 -11.925 -22.033  0.00  0.00    +0.034 C 
ATOM      7  C   UNL     1      31.640 -11.085 -21.079  0.00  0.00    +0.138 C 
ATOM      8  C   UNL     1      31.483  -9.725 -21.350  0.00  0.00    +0.037 C 
BRANCH   4   9
ATOM      9  C   UNL     1      31.736  -7.796 -22.855  0.00  0.00    +0.000 C 
ATOM     10  C   UNL     1      31.961  -6.853 -21.853  0.00  0.00    +0.000 C 
ATOM     11  C   UNL     1      31.353  -7.379 -24.130  0.00  0.00    +0.000 C 
ATOM     12  C   UNL     1      31.804  -5.495 -22.122  0.00  0.00    +0.000 C 
ATOM     13  C   UNL     1      31.195  -6.019 -24.402  0.00  0.00    +0.000 C 
ATOM     14  C   UNL     1      31.421  -5.077 -23.398  0.00  0.00    +0.000 C 
ENDBRANCH   4   9
BRANCH   7  15
ATOM     15  O   UNL     1      31.231 -11.593 -19.883  0.00  0.00    -0.471 OA
ATOM     16  C   UNL     1      31.330 -10.738 -18.746  0.00  0.00    +0.252 C 
ENDBRANCH   7  15
ENDBRANCH   1   3
BRANCH   1  17
ATOM     17  C   UNL     1      33.788 -13.549 -23.682  0.00  0.00    -0.087 C 
ATOM     18  C   UNL     1      34.211 -14.557 -23.183  0.00  0.00    -0.076 C 
BRANCH  18  23
ATOM     19  N   UNL     1      35.204 -17.041 -20.611  0.00  0.00    -0.336 NA
ATOM     20  N   UNL     1      35.657 -17.961 -22.792  0.00  0.00    -0.317 NA
ATOM     21  N   UNL     1      35.177 -16.716 -24.745  0.00  0.00    -0.334 N 
ATOM     22  N   UNL     1      36.127 -19.185 -20.846  0.00  0.00    -0.283 N 
ATOM     23  C   UNL     1      34.709 -15.757 -22.586  0.00  0.00    +0.179 C 
ATOM     24  C   UNL     1      34.744 -15.926 -21.217  0.00  0.00    +0.120 C 
ATOM     25  C   UNL     1      35.183 -16.817 -23.331  0.00  0.00    +0.186 C 
ATOM     26  C   UNL     1      34.260 -14.852 -20.296  0.00  0.00    +0.064 C 
ATOM     27  C   UNL     1      35.639 -18.003 -21.446  0.00  0.00    +0.196 C 
ATOM     28  H   UNL     1      35.510 -17.461 -25.294  0.00  0.00    +0.144 HD
ATOM     29  H   UNL     1      34.839 -15.898 -25.178  0.00  0.00    +0.144 HD
ATOM     30  H   UNL     1      36.138 -19.271 -19.865  0.00  0.00    +0.156 HD
ATOM     31  H   UNL     1      36.458 -19.922 -21.409  0.00  0.00    +0.156 HD
ENDBRANCH  18  23
ENDBRANCH   1  17
TORSDOF 5
ENDMDL
MODEL 2
REMARK VINA RESULT:     -10.9     11.011     13.990
REMARK  Name = 25093369
REMARK  5 active torsions:
REMARK  status: ('A' for Active; 'I' for Inactive)
REMARK    1  A    between atoms: C_1  and  C_3
REMARK    2  A    between atoms: C_1  and  C_17
REMARK    3  A    between atoms: C_4  and  C_9
REMARK    4  A    between atoms: C_7  and  O_15
REMARK    5  A    between atoms: C_18  and  C_23
REMARK                            x       y       z     vdW  Elec       q    Type
REMARK                         _______ _______ _______ _____ _____    ______ ____
ROOT
ATOM      1  C   UNL     1      32.721 -24.022 -13.966  0.00  0.00    +0.086 C 
ATOM      2  C   UNL     1      31.867 -25.233 -13.542  0.00  0.00    +0.019 C 
ENDROOT
BRANCH   1   3
ATOM      3  C   UNL     1      32.275 -23.431 -15.260  0.00  0.00    -0.007 C 
ATOM      4  C   UNL     1      32.802 -22.441 -17.400  0.00  0.00    +0.003 C 
ATOM      5  C   UNL     1      33.219 -22.994 -16.190  0.00  0.00    -0.003 C 
ATOM      6  C   UNL     1      30.914 -23.314 -15.540  0.00  0.00    +0.034 C 
ATOM      7  C   UNL     1      30.496 -22.760 -16.750  0.00  0.00    +0.138 C 
ATOM      8  C   UNL     1      31.440 -22.324 -17.680  0.00  0.00    +0.037 C 
BRANCH   4   9
ATOM      9  C   UNL     1      33.779 -21.989 -18.365  0.00  0.00    +0.000 C 
ATOM     10  C   UNL     1      35.132 -22.270 -18.174  0.00  0.00    +0.000 C 
ATOM     11  C   UNL     1      33.370 -21.271 -19.489  0.00  0.00    +0.000 C 
ATOM     12  C   UNL     1      36.074 -21.835 -19.104  0.00  0.00    +0.000 C 
ATOM     13  C   UNL     1      34.312 -20.835 -20.421  0.00  0.00    +0.000 C 
ATOM     14  C   UNL     1      35.665 -21.117 -20.228  0.00  0.00    +0.000 C 
ENDBRANCH   4   9
BRANCH   7  15
ATOM     15  O   UNL     1      29.167 -22.647 -17.024  0.00  0.00    -0.471 OA
ATOM     16  C   UNL     1      28.358 -23.801 -16.802  0.00  0.00    +0.252 C 
ENDBRANCH   7  15
ENDBRANCH   1   3
BRANCH   1  17
ATOM     17  C   UNL     1      34.156 -24.406 -13.984  0.00  0.00    -0.087 C 
ATOM     18  C   UNL     1      35.311 -24.737 -13.999  0.00  0.00    -0.076 C 
BRANCH  18  23
ATOM     19  N   UNL     1      38.964 -24.766 -13.349  0.00  0.00    -0.336 NA
ATOM     20  N   UNL     1      38.409 -26.658 -14.733  0.00  0.00    -0.317 NA
ATOM     21  N   UNL     1      36.173 -27.042 -15.404  0.00  0.00    -0.334 N 
ATOM     22  N   UNL     1      40.622 -26.265 -14.061  0.00  0.00    -0.283 N 
ATOM     23  C   UNL     1      36.683 -25.139 -14.020  0.00  0.00    +0.179 C 
ATOM     24  C   UNL     1      37.659 -24.423 -13.357  0.00  0.00    +0.120 C 
ATOM     25  C   UNL     1      37.120 -26.258 -14.698  0.00  0.00    +0.186 C 
ATOM     26  C   UNL     1      37.318 -23.190 -12.583  0.00  0.00    +0.064 C 
ATOM     27  C   UNL     1      39.265 -25.877 -14.047  0.00  0.00    +0.196 C 
ATOM     28  H   UNL     1      36.465 -27.845 -15.893  0.00  0.00    +0.144 HD
ATOM     29  H   UNL     1      35.222 -26.785 -15.402  0.00  0.00    +0.144 HD
ATOM     30  H   UNL     1      41.292 -25.731 -13.577  0.00  0.00    +0.156 HD
ATOM     31  H   UNL     1      40.899 -27.070 -14.556  0.00  0.00    +0.156 HD
ENDBRANCH  18  23
ENDBRANCH   1  17
TORSDOF 5
ENDMDL
MODEL 3
REMARK VINA RESULT:     -10.9      0.552      1.867
REMARK  Name = 25093369
REMARK  5 active torsions:
REMARK  status: ('A' for Active; 'I' for Inactive)
REMARK    1  A    between atoms: C_1  and  C_3
REMARK    2  A    between atoms: C_1  and  C_17
REMARK    3  A    between atoms: C_4  and  C_9
REMARK    4  A    between atoms: C_7  and  O_15
REMARK    5  A    between atoms: C_18  and  C_23
REMARK                            x       y       z     vdW  Elec       q    Type
REMARK                         _______ _______ _______ _____ _____    ______ ____
ROOT
ATOM      1  C   UNL     1      33.167 -12.314 -24.267  0.00  0.00    +0.086 C 
ATOM      2  C   UNL     1      34.254 -11.634 -25.121  0.00  0.00    +0.019 C 
ENDROOT
BRANCH   1   3
ATOM      3  C   UNL     1      32.587 -11.398 -23.243  0.00  0.00    -0.007 C 
ATOM      4  C   UNL     1      31.930  -9.176 -22.556  0.00  0.00    +0.003 C 
ATOM      5  C   UNL     1      32.471 -10.033 -23.514  0.00  0.00    -0.003 C 
ATOM      6  C   UNL     1      32.163 -11.904 -22.015  0.00  0.00    +0.034 C 
ATOM      7  C   UNL     1      31.621 -11.046 -21.057  0.00  0.00    +0.138 C 
ATOM      8  C   UNL     1      31.505  -9.683 -21.328  0.00  0.00    +0.037 C 
BRANCH   4   9
ATOM      9  C   UNL     1      31.808  -7.763 -22.836  0.00  0.00    +0.000 C 
ATOM     10  C   UNL     1      31.438  -7.332 -24.109  0.00  0.00    +0.000 C 
ATOM     11  C   UNL     1      32.061  -6.829 -21.831  0.00  0.00    +0.000 C 
ATOM     12  C   UNL     1      31.320  -5.970 -24.380  0.00  0.00    +0.000 C 
ATOM     13  C   UNL     1      31.943  -5.465 -22.100  0.00  0.00    +0.000 C 
ATOM     14  C   UNL     1      31.572  -5.035 -23.374  0.00  0.00    +0.000 C 
ENDBRANCH   4   9
BRANCH   7  15
ATOM     15  O   UNL     1      31.205 -11.541 -19.859  0.00  0.00    -0.471 OA
ATOM     16  C   UNL     1      31.526 -10.781 -18.695  0.00  0.00    +0.252 C 
ENDBRANCH   7  15
ENDBRANCH   1   3
BRANCH   1  17
ATOM     17  C   UNL     1      33.709 -13.561 -23.668  0.00  0.00    -0.087 C 
ATOM     18  C   UNL     1      34.129 -14.570 -23.172  0.00  0.00    -0.076 C 
BRANCH  18  23
ATOM     19  N   UNL     1      35.419 -18.033 -22.822  0.00  0.00    -0.336 NA
ATOM     20  N   UNL     1      35.267 -17.037 -20.633  0.00  0.00    -0.317 NA
ATOM     21  N   UNL     1      34.487 -14.820 -20.372  0.00  0.00    -0.334 N 
ATOM     22  N   UNL     1      36.039 -19.236 -20.906  0.00  0.00    -0.283 N 
ATOM     23  C   UNL     1      34.623 -15.775 -22.578  0.00  0.00    +0.179 C 
ATOM     24  C   UNL     1      34.950 -16.878 -23.339  0.00  0.00    +0.120 C 
ATOM     25  C   UNL     1      34.803 -15.913 -21.217  0.00  0.00    +0.186 C 
ATOM     26  C   UNL     1      34.801 -16.859 -24.827  0.00  0.00    +0.064 C 
ATOM     27  C   UNL     1      35.550 -18.043 -21.482  0.00  0.00    +0.196 C 
ATOM     28  H   UNL     1      34.609 -14.898 -19.399  0.00  0.00    +0.144 HD
ATOM     29  H   UNL     1      34.146 -13.980 -20.759  0.00  0.00    +0.144 HD
ATOM     30  H   UNL     1      36.262 -20.004 -21.479  0.00  0.00    +0.156 HD
ATOM     31  H   UNL     1      36.155 -19.300 -19.930  0.00  0.00    +0.156 HD
ENDBRANCH  18  23
ENDBRANCH   1  17
TORSDOF 5
ENDMDL
MODEL 4
REMARK VINA RESULT:     -10.4      4.753      9.300
REMARK  Name = 25093369
REMARK  5 active torsions:
REMARK  status: ('A' for Active; 'I' for Inactive)
REMARK    1  A    between atoms: C_1  and  C_3
REMARK    2  A    between atoms: C_1  and  C_17
REMARK    3  A    between atoms: C_4  and  C_9
REMARK    4  A    between atoms: C_7  and  O_15
REMARK    5  A    between atoms: C_18  and  C_23
REMARK                            x       y       z     vdW  Elec       q    Type
REMARK                         _______ _______ _______ _____ _____    ______ ____
ROOT
ATOM      1  C   UNL     1      31.648 -12.084 -21.438  0.00  0.00    +0.086 C 
ATOM      2  C   UNL     1      32.037 -12.416 -19.984  0.00  0.00    +0.019 C 
ENDROOT
BRANCH   1   3
ATOM      3  C   UNL     1      32.488 -12.807 -22.435  0.00  0.00    -0.007 C 
ATOM      4  C   UNL     1      33.844 -14.714 -23.037  0.00  0.00    +0.003 C 
ATOM      5  C   UNL     1      33.057 -14.038 -22.105  0.00  0.00    -0.003 C 
ATOM      6  C   UNL     1      32.706 -12.253 -23.696  0.00  0.00    +0.034 C 
ATOM      7  C   UNL     1      33.493 -12.929 -24.628  0.00  0.00    +0.138 C 
ATOM      8  C   UNL     1      34.062 -14.160 -24.299  0.00  0.00    +0.037 C 
BRANCH   4   9
ATOM      9  C   UNL     1      34.433 -15.990 -22.697  0.00  0.00    +0.000 C 
ATOM     10  C   UNL     1      34.805 -16.879 -23.705  0.00  0.00    +0.000 C 
ATOM     11  C   UNL     1      34.632 -16.332 -21.359  0.00  0.00    +0.000 C 
ATOM     12  C   UNL     1      35.374 -18.109 -23.378  0.00  0.00    +0.000 C 
ATOM     13  C   UNL     1      35.201 -17.563 -21.030  0.00  0.00    +0.000 C 
ATOM     14  C   UNL     1      35.572 -18.451 -22.040  0.00  0.00    +0.000 C 
ENDBRANCH   4   9
BRANCH   7  15
ATOM     15  O   UNL     1      33.704 -12.388 -25.860  0.00  0.00    -0.471 OA
ATOM     16  C   UNL     1      33.321 -13.173 -26.987  0.00  0.00    +0.252 C 
ENDBRANCH   7  15
ENDBRANCH   1   3
BRANCH   1  17
ATOM     17  C   UNL     1      31.672 -10.612 -21.638  0.00  0.00    -0.087 C 
ATOM     18  C   UNL     1      31.678  -9.420 -21.784  0.00  0.00    -0.076 C 
BRANCH  18  23
ATOM     19  N   UNL     1      31.158  -6.066 -23.285  0.00  0.00    -0.336 NA
ATOM     20  N   UNL     1      32.198  -5.797 -21.128  0.00  0.00    -0.317 NA
ATOM     21  N   UNL     1      32.719  -7.684 -19.800  0.00  0.00    -0.334 N 
ATOM     22  N   UNL     1      31.675  -3.934 -22.455  0.00  0.00    -0.283 N 
ATOM     23  C   UNL     1      31.681  -7.999 -21.950  0.00  0.00    +0.179 C 
ATOM     24  C   UNL     1      31.176  -7.400 -23.086  0.00  0.00    +0.120 C 
ATOM     25  C   UNL     1      32.184  -7.140 -20.995  0.00  0.00    +0.186 C 
ATOM     26  C   UNL     1      30.602  -8.219 -24.198  0.00  0.00    +0.064 C 
ATOM     27  C   UNL     1      31.677  -5.335 -22.280  0.00  0.00    +0.196 C 
ATOM     28  H   UNL     1      33.082  -7.087 -19.107  0.00  0.00    +0.144 HD
ATOM     29  H   UNL     1      32.727  -8.660 -19.664  0.00  0.00    +0.144 HD
ATOM     30  H   UNL     1      31.307  -3.540 -23.278  0.00  0.00    +0.156 HD
ATOM     31  H   UNL     1      32.043  -3.350 -21.751  0.00  0.00    +0.156 HD
ENDBRANCH  18  23
ENDBRANCH   1  17
TORSDOF 5
ENDMDL
MODEL 5
REMARK VINA RESULT:     -10.3      3.901      9.269
REMARK  Name = 25093369
REMARK  5 active torsions:
REMARK  status: ('A' for Active; 'I' for Inactive)
REMARK    1  A    between atoms: C_1  and  C_3
REMARK    2  A    between atoms: C_1  and  C_17
REMARK    3  A    between atoms: C_4  and  C_9
REMARK    4  A    between atoms: C_7  and  O_15
REMARK    5  A    between atoms: C_18  and  C_23
REMARK                            x       y       z     vdW  Elec       q    Type
REMARK                         _______ _______ _______ _____ _____    ______ ____
ROOT
ATOM      1  C   UNL     1      32.358 -14.299 -21.650  0.00  0.00    +0.086 C 
ATOM      2  C   UNL     1      32.553 -14.336 -20.122  0.00  0.00    +0.019 C 
ENDROOT
BRANCH   1   3
ATOM      3  C   UNL     1      33.162 -15.338 -22.355  0.00  0.00    -0.007 C 
ATOM      4  C   UNL     1      34.442 -17.387 -22.300  0.00  0.00    +0.003 C 
ATOM      5  C   UNL     1      33.690 -16.415 -21.641  0.00  0.00    -0.003 C 
ATOM      6  C   UNL     1      33.388 -15.233 -23.728  0.00  0.00    +0.034 C 
ATOM      7  C   UNL     1      34.141 -16.205 -24.386  0.00  0.00    +0.138 C 
ATOM      8  C   UNL     1      34.668 -17.282 -23.673  0.00  0.00    +0.037 C 
BRANCH   4   9
ATOM      9  C   UNL     1      34.988 -18.504 -21.562  0.00  0.00    +0.000 C 
ATOM     10  C   UNL     1      36.365 -18.606 -21.366  0.00  0.00    +0.000 C 
ATOM     11  C   UNL     1      34.137 -19.480 -21.043  0.00  0.00    +0.000 C 
ATOM     12  C   UNL     1      36.892 -19.682 -20.653  0.00  0.00    +0.000 C 
ATOM     13  C   UNL     1      34.663 -20.558 -20.330  0.00  0.00    +0.000 C 
ATOM     14  C   UNL     1      36.040 -20.658 -20.135  0.00  0.00    +0.000 C 
ENDBRANCH   4   9
BRANCH   7  15
ATOM     15  O   UNL     1      34.361 -16.103 -25.726  0.00  0.00    -0.471 OA
ATOM     16  C   UNL     1      33.449 -15.300 -26.474  0.00  0.00    +0.252 C 
ENDBRANCH   7  15
ENDBRANCH   1   3
BRANCH   1  17
ATOM     17  C   UNL     1      32.635 -12.930 -22.156  0.00  0.00    -0.087 C 
ATOM     18  C   UNL     1      32.860 -11.815 -22.544  0.00  0.00    -0.076 C 
BRANCH  18  23
ATOM     19  N   UNL     1      32.790  -8.113 -22.789  0.00  0.00    -0.336 NA
ATOM     20  N   UNL     1      34.238  -8.977 -24.512  0.00  0.00    -0.317 NA
ATOM     21  N   UNL     1      34.584 -11.306 -24.734  0.00  0.00    -0.334 N 
ATOM     22  N   UNL     1      33.885  -6.669 -24.279  0.00  0.00    -0.283 N 
ATOM     23  C   UNL     1      33.130 -10.486 -22.999  0.00  0.00    +0.179 C 
ATOM     24  C   UNL     1      32.564  -9.383 -22.394  0.00  0.00    +0.120 C 
ATOM     25  C   UNL     1      33.967 -10.221 -24.063  0.00  0.00    +0.186 C 
ATOM     26  C   UNL     1      31.638  -9.533 -21.230  0.00  0.00    +0.064 C 
ATOM     27  C   UNL     1      33.625  -7.985 -23.838  0.00  0.00    +0.196 C 
ATOM     28  H   UNL     1      35.185 -11.137 -25.495  0.00  0.00    +0.144 HD
ATOM     29  H   UNL     1      34.413 -12.230 -24.437  0.00  0.00    +0.144 HD
ATOM     30  H   UNL     1      33.463  -5.905 -23.824  0.00  0.00    +0.156 HD
ATOM     31  H   UNL     1      34.488  -6.516 -25.043  0.00  0.00    +0.156 HD
ENDBRANCH  18  23
ENDBRANCH   1  17
TORSDOF 5
ENDMDL
MODEL 6
REMARK VINA RESULT:     -10.3      5.259      9.270
REMARK  Name = 25093369
REMARK  5 active torsions:
REMARK  status: ('A' for Active; 'I' for Inactive)
REMARK    1  A    between atoms: C_1  and  C_3
REMARK    2  A    between atoms: C_1  and  C_17
REMARK    3  A    between atoms: C_4  and  C_9
REMARK    4  A    between atoms: C_7  and  O_15
REMARK    5  A    between atoms: C_18  and  C_23
REMARK                            x       y       z     vdW  Elec       q    Type
REMARK                         _______ _______ _______ _____ _____    ______ ____
ROOT
ATOM      1  C   UNL     1      34.650  -9.585 -24.114  0.00  0.00    +0.086 C 
ATOM      2  C   UNL     1      35.330  -9.838 -25.473  0.00  0.00    +0.019 C 
ENDROOT
BRANCH   1   3
ATOM      3  C   UNL     1      33.824 -10.742 -23.663  0.00  0.00    -0.007 C 
ATOM      4  C   UNL     1      33.405 -13.121 -23.615  0.00  0.00    +0.003 C 
ATOM      5  C   UNL     1      34.178 -12.039 -24.036  0.00  0.00    -0.003 C 
ATOM      6  C   UNL     1      32.696 -10.527 -22.871  0.00  0.00    +0.034 C 
ATOM      7  C   UNL     1      31.923 -11.609 -22.451  0.00  0.00    +0.138 C 
ATOM      8  C   UNL     1      32.277 -12.906 -22.823  0.00  0.00    +0.037 C 
BRANCH   4   9
ATOM      9  C   UNL     1      33.772 -14.466 -24.000  0.00  0.00    +0.000 C 
ATOM     10  C   UNL     1      34.518 -15.262 -23.132  0.00  0.00    +0.000 C 
ATOM     11  C   UNL     1      33.378 -14.968 -25.241  0.00  0.00    +0.000 C 
ATOM     12  C   UNL     1      34.871 -16.559 -23.502  0.00  0.00    +0.000 C 
ATOM     13  C   UNL     1      33.731 -16.266 -25.612  0.00  0.00    +0.000 C 
ATOM     14  C   UNL     1      34.478 -17.061 -24.743  0.00  0.00    +0.000 C 
ENDBRANCH   4   9
BRANCH   7  15
ATOM     15  O   UNL     1      30.824 -11.399 -21.675  0.00  0.00    -0.471 OA
ATOM     16  C   UNL     1      31.048 -11.017 -20.320  0.00  0.00    +0.252 C 
ENDBRANCH   7  15
ENDBRANCH   1   3
BRANCH   1  17
ATOM     17  C   UNL     1      33.871  -8.322 -24.173  0.00  0.00    -0.087 C 
ATOM     18  C   UNL     1      33.233  -7.306 -24.239  0.00  0.00    -0.076 C 
BRANCH  18  23
ATOM     19  N   UNL     1      32.015  -4.005 -25.417  0.00  0.00    -0.336 NA
ATOM     20  N   UNL     1      30.711  -4.674 -23.504  0.00  0.00    -0.317 NA
ATOM     21  N   UNL     1      31.141  -6.730 -22.416  0.00  0.00    -0.334 N 
ATOM     22  N   UNL     1      30.295  -2.638 -24.593  0.00  0.00    -0.283 N 
ATOM     23  C   UNL     1      32.468  -6.100 -24.325  0.00  0.00    +0.179 C 
ATOM     24  C   UNL     1      32.711  -5.155 -25.299  0.00  0.00    +0.120 C 
ATOM     25  C   UNL     1      31.447  -5.805 -23.445  0.00  0.00    +0.186 C 
ATOM     26  C   UNL     1      33.791  -5.354 -26.314  0.00  0.00    +0.064 C 
ATOM     27  C   UNL     1      31.044  -3.831 -24.500  0.00  0.00    +0.196 C 
ATOM     28  H   UNL     1      30.415  -6.537 -21.780  0.00  0.00    +0.144 HD
ATOM     29  H   UNL     1      31.654  -7.567 -22.339  0.00  0.00    +0.144 HD
ATOM     30  H   UNL     1      30.496  -1.985 -25.302  0.00  0.00    +0.156 HD
ATOM     31  H   UNL     1      29.572  -2.459 -23.948  0.00  0.00    +0.156 HD
ENDBRANCH  18  23
ENDBRANCH   1  17
TORSDOF 5
ENDMDL
MODEL 7
REMARK VINA RESULT:     -10.2      4.147      9.448
REMARK  Name = 25093369
REMARK  5 active torsions:
REMARK  status: ('A' for Active; 'I' for Inactive)
REMARK    1  A    between atoms: C_1  and  C_3
REMARK    2  A    between atoms: C_1  and  C_17
REMARK    3  A    between atoms: C_4  and  C_9
REMARK    4  A    between atoms: C_7  and  O_15
REMARK    5  A    between atoms: C_18  and  C_23
REMARK                            x       y       z     vdW  Elec       q    Type
REMARK                         _______ _______ _______ _____ _____    ______ ____
ROOT
ATOM      1  C   UNL     1      32.303 -14.473 -21.397  0.00  0.00    +0.086 C 
ATOM      2  C   UNL     1      32.530 -14.501 -19.873  0.00  0.00    +0.019 C 
ENDROOT
BRANCH   1   3
ATOM      3  C   UNL     1      33.148 -15.467 -22.120  0.00  0.00    -0.007 C 
ATOM      4  C   UNL     1      34.471 -17.489 -22.110  0.00  0.00    +0.003 C 
ATOM      5  C   UNL     1      33.680 -16.560 -21.434  0.00  0.00    -0.003 C 
ATOM      6  C   UNL     1      33.407 -15.304 -23.480  0.00  0.00    +0.034 C 
ATOM      7  C   UNL     1      34.198 -16.233 -24.156  0.00  0.00    +0.138 C 
ATOM      8  C   UNL     1      34.730 -17.325 -23.471  0.00  0.00    +0.037 C 
BRANCH   4   9
ATOM      9  C   UNL     1      35.022 -18.622 -21.401  0.00  0.00    +0.000 C 
ATOM     10  C   UNL     1      36.400 -18.726 -21.212  0.00  0.00    +0.000 C 
ATOM     11  C   UNL     1      34.174 -19.613 -20.903  0.00  0.00    +0.000 C 
ATOM     12  C   UNL     1      36.931 -19.818 -20.528  0.00  0.00    +0.000 C 
ATOM     13  C   UNL     1      34.705 -20.706 -20.219  0.00  0.00    +0.000 C 
ATOM     14  C   UNL     1      36.084 -20.809 -20.031  0.00  0.00    +0.000 C 
ENDBRANCH   4   9
BRANCH   7  15
ATOM     15  O   UNL     1      34.449 -16.074 -25.485  0.00  0.00    -0.471 OA
ATOM     16  C   UNL     1      33.506 -15.314 -26.237  0.00  0.00    +0.252 C 
ENDBRANCH   7  15
ENDBRANCH   1   3
BRANCH   1  17
ATOM     17  C   UNL     1      32.495 -13.091 -21.906  0.00  0.00    -0.087 C 
ATOM     18  C   UNL     1      32.635 -11.966 -22.302  0.00  0.00    -0.076 C 
BRANCH  18  23
ATOM     19  N   UNL     1      33.664  -9.087 -24.406  0.00  0.00    -0.336 NA
ATOM     20  N   UNL     1      32.426  -8.259 -22.512  0.00  0.00    -0.317 NA
ATOM     21  N   UNL     1      31.568  -9.753 -20.891  0.00  0.00    -0.334 N 
ATOM     22  N   UNL     1      33.283  -6.789 -24.127  0.00  0.00    -0.283 N 
ATOM     23  C   UNL     1      32.799 -10.624 -22.768  0.00  0.00    +0.179 C 
ATOM     24  C   UNL     1      33.486 -10.337 -23.930  0.00  0.00    +0.120 C 
ATOM     25  C   UNL     1      32.286  -9.535 -22.093  0.00  0.00    +0.186 C 
ATOM     26  C   UNL     1      34.092 -11.427 -24.755  0.00  0.00    +0.064 C 
ATOM     27  C   UNL     1      33.116  -8.111 -23.658  0.00  0.00    +0.196 C 
ATOM     28  H   UNL     1      31.193  -8.989 -20.396  0.00  0.00    +0.144 HD
ATOM     29  H   UNL     1      31.442 -10.669 -20.552  0.00  0.00    +0.144 HD
ATOM     30  H   UNL     1      33.780  -6.622 -24.960  0.00  0.00    +0.156 HD
ATOM     31  H   UNL     1      32.904  -6.035 -23.620  0.00  0.00    +0.156 HD
ENDBRANCH  18  23
ENDBRANCH   1  17
TORSDOF 5
ENDMDL
MODEL 8
REMARK VINA RESULT:     -10.1      4.815      9.173
REMARK  Name = 25093369
REMARK  5 active torsions:
REMARK  status: ('A' for Active; 'I' for Inactive)
REMARK    1  A    between atoms: C_1  and  C_3
REMARK    2  A    between atoms: C_1  and  C_17
REMARK    3  A    between atoms: C_4  and  C_9
REMARK    4  A    between atoms: C_7  and  O_15
REMARK    5  A    between atoms: C_18  and  C_23
REMARK                            x       y       z     vdW  Elec       q    Type
REMARK                         _______ _______ _______ _____ _____    ______ ____
ROOT
ATOM      1  C   UNL     1      31.558 -11.879 -21.561  0.00  0.00    +0.086 C 
ATOM      2  C   UNL     1      31.933 -12.150 -20.092  0.00  0.00    +0.019 C 
ENDROOT
BRANCH   1   3
ATOM      3  C   UNL     1      32.428 -12.620 -22.520  0.00  0.00    -0.007 C 
ATOM      4  C   UNL     1      33.801 -14.537 -23.047  0.00  0.00    +0.003 C 
ATOM      5  C   UNL     1      32.987 -13.844 -22.151  0.00  0.00    -0.003 C 
ATOM      6  C   UNL     1      32.682 -12.089 -23.784  0.00  0.00    +0.034 C 
ATOM      7  C   UNL     1      33.497 -12.782 -24.680  0.00  0.00    +0.138 C 
ATOM      8  C   UNL     1      34.056 -14.006 -24.311  0.00  0.00    +0.037 C 
BRANCH   4   9
ATOM      9  C   UNL     1      34.381 -15.806 -22.666  0.00  0.00    +0.000 C 
ATOM     10  C   UNL     1      34.557 -16.117 -21.318  0.00  0.00    +0.000 C 
ATOM     11  C   UNL     1      34.763 -16.721 -23.647  0.00  0.00    +0.000 C 
ATOM     12  C   UNL     1      35.116 -17.340 -20.950  0.00  0.00    +0.000 C 
ATOM     13  C   UNL     1      35.322 -17.945 -23.280  0.00  0.00    +0.000 C 
ATOM     14  C   UNL     1      35.498 -18.255 -21.932  0.00  0.00    +0.000 C 
ENDBRANCH   4   9
BRANCH   7  15
ATOM     15  O   UNL     1      33.744 -12.265 -25.915  0.00  0.00    -0.471 OA
ATOM     16  C   UNL     1      33.381 -13.064 -27.038  0.00  0.00    +0.252 C 
ENDBRANCH   7  15
ENDBRANCH   1   3
BRANCH   1  17
ATOM     17  C   UNL     1      31.556 -10.415 -21.814  0.00  0.00    -0.087 C 
ATOM     18  C   UNL     1      31.556  -9.228 -21.997  0.00  0.00    -0.076 C 
BRANCH  18  23
ATOM     19  N   UNL     1      32.047  -5.598 -21.406  0.00  0.00    -0.336 NA
ATOM     20  N   UNL     1      31.086  -5.903 -23.595  0.00  0.00    -0.317 NA
ATOM     21  N   UNL     1      30.597  -8.072 -24.401  0.00  0.00    -0.334 N 
ATOM     22  N   UNL     1      31.576  -3.757 -22.783  0.00  0.00    -0.283 N 
ATOM     23  C   UNL     1      31.558  -7.813 -22.208  0.00  0.00    +0.179 C 
ATOM     24  C   UNL     1      32.026  -6.938 -21.250  0.00  0.00    +0.120 C 
ATOM     25  C   UNL     1      31.095  -7.235 -23.372  0.00  0.00    +0.186 C 
ATOM     26  C   UNL     1      32.555  -7.436 -19.944  0.00  0.00    +0.064 C 
ATOM     27  C   UNL     1      31.569  -5.155 -22.585  0.00  0.00    +0.196 C 
ATOM     28  H   UNL     1      30.264  -7.679 -25.239  0.00  0.00    +0.144 HD
ATOM     29  H   UNL     1      30.587  -9.050 -24.278  0.00  0.00    +0.144 HD
ATOM     30  H   UNL     1      31.917  -3.162 -22.077  0.00  0.00    +0.156 HD
ATOM     31  H   UNL     1      31.237  -3.378 -23.626  0.00  0.00    +0.156 HD
ENDBRANCH  18  23
ENDBRANCH   1  17
TORSDOF 5
ENDMDL
MODEL 9
REMARK VINA RESULT:     -10.0      4.355      6.549
REMARK  Name = 25093369
REMARK  5 active torsions:
REMARK  status: ('A' for Active; 'I' for Inactive)
REMARK    1  A    between atoms: C_1  and  C_3
REMARK    2  A    between atoms: C_1  and  C_17
REMARK    3  A    between atoms: C_4  and  C_9
REMARK    4  A    between atoms: C_7  and  O_15
REMARK    5  A    between atoms: C_18  and  C_23
REMARK                            x       y       z     vdW  Elec       q    Type
REMARK                         _______ _______ _______ _____ _____    ______ ____
ROOT
ATOM      1  C   UNL     1      35.722 -18.252 -22.663  0.00  0.00    +0.086 C 
ATOM      2  C   UNL     1      37.231 -17.979 -22.512  0.00  0.00    +0.019 C 
ENDROOT
BRANCH   1   3
ATOM      3  C   UNL     1      34.906 -17.006 -22.606  0.00  0.00    -0.007 C 
ATOM      4  C   UNL     1      33.913 -15.103 -23.714  0.00  0.00    +0.003 C 
ATOM      5  C   UNL     1      34.675 -16.269 -23.768  0.00  0.00    -0.003 C 
ATOM      6  C   UNL     1      34.374 -16.576 -21.390  0.00  0.00    +0.034 C 
ATOM      7  C   UNL     1      33.612 -15.409 -21.337  0.00  0.00    +0.138 C 
ATOM      8  C   UNL     1      33.381 -14.673 -22.499  0.00  0.00    +0.037 C 
BRANCH   4   9
ATOM      9  C   UNL     1      33.672 -14.339 -24.919  0.00  0.00    +0.000 C 
ATOM     10  C   UNL     1      33.850 -12.956 -24.916  0.00  0.00    +0.000 C 
ATOM     11  C   UNL     1      33.263 -14.987 -26.085  0.00  0.00    +0.000 C 
ATOM     12  C   UNL     1      33.619 -12.220 -26.077  0.00  0.00    +0.000 C 
ATOM     13  C   UNL     1      33.031 -14.251 -27.247  0.00  0.00    +0.000 C 
ATOM     14  C   UNL     1      33.209 -12.867 -27.243  0.00  0.00    +0.000 C 
ENDBRANCH   4   9
BRANCH   7  15
ATOM     15  O   UNL     1      33.092 -14.990 -20.150  0.00  0.00    -0.471 OA
ATOM     16  C   UNL     1      32.386 -13.751 -20.152  0.00  0.00    +0.252 C 
ENDBRANCH   7  15
ENDBRANCH   1   3
BRANCH   1  17
ATOM     17  C   UNL     1      35.294 -19.256 -21.655  0.00  0.00    -0.087 C 
ATOM     18  C   UNL     1      34.942 -20.052 -20.827  0.00  0.00    -0.076 C 
BRANCH  18  23
ATOM     19  N   UNL     1      35.069 -22.594 -18.126  0.00  0.00    -0.336 NA
ATOM     20  N   UNL     1      32.763 -22.143 -18.657  0.00  0.00    -0.317 NA
ATOM     21  N   UNL     1      32.200 -20.574 -20.336  0.00  0.00    -0.334 N 
ATOM     22  N   UNL     1      33.335 -23.696 -16.995  0.00  0.00    -0.283 N 
ATOM     23  C   UNL     1      34.518 -20.994 -19.837  0.00  0.00    +0.179 C 
ATOM     24  C   UNL     1      35.424 -21.698 -19.070  0.00  0.00    +0.120 C 
ATOM     25  C   UNL     1      33.188 -21.259 -19.586  0.00  0.00    +0.186 C 
ATOM     26  C   UNL     1      36.896 -21.502 -19.244  0.00  0.00    +0.064 C 
ATOM     27  C   UNL     1      33.742 -22.765 -17.975  0.00  0.00    +0.196 C 
ATOM     28  H   UNL     1      31.246 -20.749 -20.170  0.00  0.00    +0.144 HD
ATOM     29  H   UNL     1      32.469 -19.920 -21.022  0.00  0.00    +0.144 HD
ATOM     30  H   UNL     1      34.009 -24.181 -16.466  0.00  0.00    +0.156 HD
ATOM     31  H   UNL     1      32.376 -23.862 -16.842  0.00  0.00    +0.156 HD
ENDBRANCH  18  23
ENDBRANCH   1  17
TORSDOF 5
ENDMDL
