MODEL 1
REMARK VINA RESULT:     -10.7      0.000      0.000
REMARK  Name = 16220131
REMARK  12 active torsions:
REMARK  status: ('A' for Active; 'I' for Inactive)
REMARK    1  A    between atoms: C_1  and  C_4
REMARK    2  A    between atoms: C_1  and  N_15
REMARK    3  A    between atoms: C_1  and  C_26
REMARK    4  A    between atoms: N_3  and  C_6
REMARK    5  A    between atoms: C_6  and  C_9
REMARK    6  A    between atoms: C_9  and  C_10
REMARK    7  A    between atoms: C_10  and  C_11
REMARK    8  A    between atoms: C_11  and  O_12
REMARK    9  A    between atoms: C_16  and  O_18
REMARK   10  A    between atoms: O_18  and  C_19
REMARK   11  A    between atoms: C_19  and  C_20
REMARK   12  A    between atoms: C_26  and  C_27
REMARK                            x       y       z     vdW  Elec       q    Type
REMARK                         _______ _______ _______ _____ _____    ______ ____
ROOT
ATOM      1  C   UNL     1      33.456 -24.092 -13.827  0.00  0.00    +0.155 C 
ENDROOT
BRANCH   1   4
ATOM      2  O   UNL     1      34.628 -24.735 -11.804  0.00  0.00    -0.273 OA
ATOM      3  N   UNL     1      35.661 -25.097 -13.854  0.00  0.00    -0.298 N 
ATOM      4  C   UNL     1      34.630 -24.653 -13.031  0.00  0.00    +0.241 C 
ATOM      5  H   UNL     1      35.562 -24.982 -14.827  0.00  0.00    +0.150 HD
BRANCH   3   6
ATOM      6  C   UNL     1      36.862 -25.713 -13.360  0.00  0.00    +0.130 C 
ATOM      7  C   UNL     1      37.539 -24.863 -12.299  0.00  0.00    +0.029 C 
BRANCH   6   9
ATOM      8  O   UNL     1      37.676 -26.894 -15.296  0.00  0.00    -0.294 OA
ATOM      9  C   UNL     1      37.788 -25.922 -14.550  0.00  0.00    +0.171 C 
BRANCH   9  10
ATOM     10  C   UNL     1      38.825 -24.832 -14.786  0.00  0.00    +0.098 C 
BRANCH  10  11
ATOM     11  C   UNL     1      40.252 -25.358 -14.811  0.00  0.00    +0.145 C 
BRANCH  11  12
ATOM     12  O   UNL     1      40.519 -26.005 -16.049  0.00  0.00    -0.382 OA
ATOM     13  H   UNL     1      41.123 -25.459 -16.577  0.00  0.00    +0.210 HD
ENDBRANCH  11  12
ENDBRANCH  10  11
ENDBRANCH   9  10
ENDBRANCH   6   9
ENDBRANCH   3   6
ENDBRANCH   1   4
BRANCH   1  15
ATOM     14  O   UNL     1      35.249 -22.227 -15.147  0.00  0.00    -0.226 OA
ATOM     15  N   UNL     1      33.851 -24.078 -15.213  0.00  0.00    -0.264 N 
ATOM     16  C   UNL     1      34.713 -23.147 -15.757  0.00  0.00    +0.402 C 
ATOM     17  H   UNL     1      33.483 -24.772 -15.807  0.00  0.00    +0.153 HD
BRANCH  16  18
ATOM     18  O   UNL     1      34.888 -23.399 -17.089  0.00  0.00    -0.430 OA
BRANCH  18  19
ATOM     19  C   UNL     1      33.759 -23.133 -17.928  0.00  0.00    +0.237 C 
BRANCH  19  20
ATOM     20  C   UNL     1      34.122 -22.060 -18.912  0.00  0.00    +0.021 C 
ATOM     21  C   UNL     1      33.121 -21.297 -19.513  0.00  0.00    -0.001 C 
ATOM     22  C   UNL     1      35.461 -21.824 -19.225  0.00  0.00    -0.001 C 
ATOM     23  C   UNL     1      33.458 -20.299 -20.427  0.00  0.00    -0.000 C 
ATOM     24  C   UNL     1      35.798 -20.826 -20.140  0.00  0.00    -0.000 C 
ATOM     25  C   UNL     1      34.797 -20.064 -20.740  0.00  0.00    -0.000 C 
ENDBRANCH  19  20
ENDBRANCH  18  19
ENDBRANCH  16  18
ENDBRANCH   1  15
BRANCH   1  26
ATOM     26  C   UNL     1      32.199 -24.938 -13.592  0.00  0.00    +0.055 C 
BRANCH  26  27
ATOM     27  C   UNL     1      30.993 -24.405 -14.324  0.00  0.00    -0.020 C 
ATOM     28  C   UNL     1      30.758 -23.031 -14.375  0.00  0.00    -0.004 C 
ATOM     29  C   UNL     1      30.110 -25.286 -14.950  0.00  0.00    -0.004 C 
ATOM     30  C   UNL     1      29.643 -22.538 -15.052  0.00  0.00    -0.000 C 
ATOM     31  C   UNL     1      28.994 -24.793 -15.627  0.00  0.00    -0.000 C 
ATOM     32  C   UNL     1      28.761 -23.420 -15.678  0.00  0.00    -0.000 C 
ENDBRANCH  26  27
ENDBRANCH   1  26
TORSDOF 12
ENDMDL
MODEL 2
REMARK VINA RESULT:     -10.3      1.465      2.071
REMARK  Name = 16220131
REMARK  12 active torsions:
REMARK  status: ('A' for Active; 'I' for Inactive)
REMARK    1  A    between atoms: C_1  and  C_4
REMARK    2  A    between atoms: C_1  and  N_15
REMARK    3  A    between atoms: C_1  and  C_26
REMARK    4  A    between atoms: N_3  and  C_6
REMARK    5  A    between atoms: C_6  and  C_9
REMARK    6  A    between atoms: C_9  and  C_10
REMARK    7  A    between atoms: C_10  and  C_11
REMARK    8  A    between atoms: C_11  and  O_12
REMARK    9  A    between atoms: C_16  and  O_18
REMARK   10  A    between atoms: O_18  and  C_19
REMARK   11  A    between atoms: C_19  and  C_20
REMARK   12  A    between atoms: C_26  and  C_27
REMARK                            x       y       z     vdW  Elec       q    Type
REMARK                         _______ _______ _______ _____ _____    ______ ____
ROOT
ATOM      1  C   UNL     1      32.917 -23.640 -14.988  0.00  0.00    +0.155 C 
ENDROOT
BRANCH   1   4
ATOM      2  O   UNL     1      33.698 -24.333 -12.800  0.00  0.00    -0.273 OA
ATOM      3  N   UNL     1      35.267 -23.892 -14.456  0.00  0.00    -0.298 N 
ATOM      4  C   UNL     1      33.975 -23.980 -13.945  0.00  0.00    +0.241 C 
ATOM      5  H   UNL     1      35.379 -23.597 -15.389  0.00  0.00    +0.150 HD
BRANCH   3   6
ATOM      6  C   UNL     1      36.446 -24.207 -13.696  0.00  0.00    +0.130 C 
ATOM      7  C   UNL     1      36.766 -23.128 -12.677  0.00  0.00    +0.029 C 
BRANCH   6   9
ATOM      8  O   UNL     1      38.019 -23.422 -15.344  0.00  0.00    -0.294 OA
ATOM      9  C   UNL     1      37.593 -24.369 -14.683  0.00  0.00    +0.171 C 
BRANCH   9  10
ATOM     10  C   UNL     1      38.210 -25.759 -14.764  0.00  0.00    +0.098 C 
BRANCH  10  11
ATOM     11  C   UNL     1      37.173 -26.871 -14.833  0.00  0.00    +0.145 C 
BRANCH  11  12
ATOM     12  O   UNL     1      36.805 -27.122 -16.184  0.00  0.00    -0.382 OA
ATOM     13  H   UNL     1      37.532 -27.576 -16.638  0.00  0.00    +0.210 HD
ENDBRANCH  11  12
ENDBRANCH  10  11
ENDBRANCH   9  10
ENDBRANCH   6   9
ENDBRANCH   3   6
ENDBRANCH   1   4
BRANCH   1  15
ATOM     14  O   UNL     1      31.965 -22.468 -17.469  0.00  0.00    -0.226 OA
ATOM     15  N   UNL     1      33.569 -23.643 -16.273  0.00  0.00    -0.264 N 
ATOM     16  C   UNL     1      33.039 -23.057 -17.405  0.00  0.00    +0.402 C 
ATOM     17  H   UNL     1      34.444 -24.090 -16.347  0.00  0.00    +0.153 HD
BRANCH  16  18
ATOM     18  O   UNL     1      33.893 -23.229 -18.459  0.00  0.00    -0.430 OA
BRANCH  18  19
ATOM     19  C   UNL     1      34.992 -22.313 -18.528  0.00  0.00    +0.237 C 
BRANCH  19  20
ATOM     20  C   UNL     1      34.702 -21.279 -19.576  0.00  0.00    +0.021 C 
ATOM     21  C   UNL     1      35.752 -20.641 -20.236  0.00  0.00    -0.001 C 
ATOM     22  C   UNL     1      33.382 -20.956 -19.891  0.00  0.00    -0.001 C 
ATOM     23  C   UNL     1      35.483 -19.680 -21.210  0.00  0.00    -0.000 C 
ATOM     24  C   UNL     1      33.112 -19.994 -20.866  0.00  0.00    -0.000 C 
ATOM     25  C   UNL     1      34.163 -19.358 -21.525  0.00  0.00    -0.000 C 
ENDBRANCH  19  20
ENDBRANCH  18  19
ENDBRANCH  16  18
ENDBRANCH   1  15
BRANCH   1  26
ATOM     26  C   UNL     1      31.762 -24.647 -14.923  0.00  0.00    +0.055 C 
BRANCH  26  27
ATOM     27  C   UNL     1      30.432 -24.031 -15.281  0.00  0.00    -0.020 C 
ATOM     28  C   UNL     1      30.075 -22.787 -14.760  0.00  0.00    -0.004 C 
ATOM     29  C   UNL     1      29.556 -24.706 -16.133  0.00  0.00    -0.004 C 
ATOM     30  C   UNL     1      28.846 -22.218 -15.092  0.00  0.00    -0.000 C 
ATOM     31  C   UNL     1      28.327 -24.136 -16.465  0.00  0.00    -0.000 C 
ATOM     32  C   UNL     1      27.972 -22.893 -15.944  0.00  0.00    -0.000 C 
ENDBRANCH  26  27
ENDBRANCH   1  26
TORSDOF 12
ENDMDL
MODEL 3
REMARK VINA RESULT:     -10.1      1.996      3.519
REMARK  Name = 16220131
REMARK  12 active torsions:
REMARK  status: ('A' for Active; 'I' for Inactive)
REMARK    1  A    between atoms: C_1  and  C_4
REMARK    2  A    between atoms: C_1  and  N_15
REMARK    3  A    between atoms: C_1  and  C_26
REMARK    4  A    between atoms: N_3  and  C_6
REMARK    5  A    between atoms: C_6  and  C_9
REMARK    6  A    between atoms: C_9  and  C_10
REMARK    7  A    between atoms: C_10  and  C_11
REMARK    8  A    between atoms: C_11  and  O_12
REMARK    9  A    between atoms: C_16  and  O_18
REMARK   10  A    between atoms: O_18  and  C_19
REMARK   11  A    between atoms: C_19  and  C_20
REMARK   12  A    between atoms: C_26  and  C_27
REMARK                            x       y       z     vdW  Elec       q    Type
REMARK                         _______ _______ _______ _____ _____    ______ ____
ROOT
ATOM      1  C   UNL     1      35.749 -22.745 -15.808  0.00  0.00    +0.155 C 
ENDROOT
BRANCH   1   4
ATOM      2  O   UNL     1      38.100 -23.157 -15.383  0.00  0.00    -0.273 OA
ATOM      3  N   UNL     1      36.539 -24.691 -14.602  0.00  0.00    -0.298 N 
ATOM      4  C   UNL     1      36.935 -23.536 -15.269  0.00  0.00    +0.241 C 
ATOM      5  H   UNL     1      35.578 -24.904 -14.570  0.00  0.00    +0.150 HD
BRANCH   3   6
ATOM      6  C   UNL     1      37.456 -25.591 -13.957  0.00  0.00    +0.130 C 
ATOM      7  C   UNL     1      37.169 -27.039 -14.309  0.00  0.00    +0.029 C 
BRANCH   6   9
ATOM      8  O   UNL     1      36.735 -26.165 -11.730  0.00  0.00    -0.294 OA
ATOM      9  C   UNL     1      37.331 -25.369 -12.456  0.00  0.00    +0.171 C 
BRANCH   9  10
ATOM     10  C   UNL     1      38.029 -24.132 -11.906  0.00  0.00    +0.098 C 
BRANCH  10  11
ATOM     11  C   UNL     1      37.069 -22.996 -11.585  0.00  0.00    +0.145 C 
BRANCH  11  12
ATOM     12  O   UNL     1      35.748 -23.335 -11.990  0.00  0.00    -0.382 OA
ATOM     13  H   UNL     1      35.787 -23.989 -12.705  0.00  0.00    +0.210 HD
ENDBRANCH  11  12
ENDBRANCH  10  11
ENDBRANCH   9  10
ENDBRANCH   6   9
ENDBRANCH   3   6
ENDBRANCH   1   4
BRANCH   1  15
ATOM     14  O   UNL     1      35.200 -22.735 -18.660  0.00  0.00    -0.226 OA
ATOM     15  N   UNL     1      36.260 -21.835 -16.803  0.00  0.00    -0.264 N 
ATOM     16  C   UNL     1      35.943 -21.907 -18.145  0.00  0.00    +0.402 C 
ATOM     17  H   UNL     1      36.872 -21.123 -16.507  0.00  0.00    +0.153 HD
BRANCH  16  18
ATOM     18  O   UNL     1      36.584 -20.909 -18.825  0.00  0.00    -0.430 OA
BRANCH  18  19
ATOM     19  C   UNL     1      36.472 -20.956 -20.252  0.00  0.00    +0.237 C 
BRANCH  19  20
ATOM     20  C   UNL     1      35.606 -19.820 -20.713  0.00  0.00    +0.021 C 
ATOM     21  C   UNL     1      36.190 -18.640 -21.172  0.00  0.00    -0.001 C 
ATOM     22  C   UNL     1      34.217 -19.945 -20.683  0.00  0.00    -0.001 C 
ATOM     23  C   UNL     1      35.385 -17.584 -21.600  0.00  0.00    -0.000 C 
ATOM     24  C   UNL     1      33.412 -18.889 -21.111  0.00  0.00    -0.000 C 
ATOM     25  C   UNL     1      33.996 -17.709 -21.570  0.00  0.00    -0.000 C 
ENDBRANCH  19  20
ENDBRANCH  18  19
ENDBRANCH  16  18
ENDBRANCH   1  15
BRANCH   1  26
ATOM     26  C   UNL     1      34.691 -23.695 -16.382  0.00  0.00    +0.055 C 
BRANCH  26  27
ATOM     27  C   UNL     1      33.305 -23.407 -15.860  0.00  0.00    -0.020 C 
ATOM     28  C   UNL     1      32.260 -23.166 -16.751  0.00  0.00    -0.004 C 
ATOM     29  C   UNL     1      33.067 -23.381 -14.485  0.00  0.00    -0.004 C 
ATOM     30  C   UNL     1      30.978 -22.900 -16.269  0.00  0.00    -0.000 C 
ATOM     31  C   UNL     1      31.786 -23.116 -14.003  0.00  0.00    -0.000 C 
ATOM     32  C   UNL     1      30.742 -22.875 -14.895  0.00  0.00    -0.000 C 
ENDBRANCH  26  27
ENDBRANCH   1  26
TORSDOF 12
ENDMDL
MODEL 4
REMARK VINA RESULT:      -9.7      8.532     13.480
REMARK  Name = 16220131
REMARK  12 active torsions:
REMARK  status: ('A' for Active; 'I' for Inactive)
REMARK    1  A    between atoms: C_1  and  C_4
REMARK    2  A    between atoms: C_1  and  N_15
REMARK    3  A    between atoms: C_1  and  C_26
REMARK    4  A    between atoms: N_3  and  C_6
REMARK    5  A    between atoms: C_6  and  C_9
REMARK    6  A    between atoms: C_9  and  C_10
REMARK    7  A    between atoms: C_10  and  C_11
REMARK    8  A    between atoms: C_11  and  O_12
REMARK    9  A    between atoms: C_16  and  O_18
REMARK   10  A    between atoms: O_18  and  C_19
REMARK   11  A    between atoms: C_19  and  C_20
REMARK   12  A    between atoms: C_26  and  C_27
REMARK                            x       y       z     vdW  Elec       q    Type
REMARK                         _______ _______ _______ _____ _____    ______ ____
ROOT
ATOM      1  C   UNL     1      33.508 -14.226 -21.935  0.00  0.00    +0.155 C 
ENDROOT
BRANCH   1   4
ATOM      2  O   UNL     1      32.295 -14.223 -19.836  0.00  0.00    -0.273 OA
ATOM      3  N   UNL     1      32.187 -12.337 -21.189  0.00  0.00    -0.298 N 
ATOM      4  C   UNL     1      32.593 -13.630 -20.871  0.00  0.00    +0.241 C 
ATOM      5  H   UNL     1      32.482 -11.954 -22.047  0.00  0.00    +0.150 HD
BRANCH   3   6
ATOM      6  C   UNL     1      31.360 -11.531 -20.333  0.00  0.00    +0.130 C 
ATOM      7  C   UNL     1      30.023 -11.212 -20.976  0.00  0.00    +0.029 C 
BRANCH   6   9
ATOM      8  O   UNL     1      32.614 -10.032 -18.922  0.00  0.00    -0.294 OA
ATOM      9  C   UNL     1      32.129 -10.252 -20.032  0.00  0.00    +0.171 C 
BRANCH   9  10
ATOM     10  C   UNL     1      32.301  -9.289 -21.199  0.00  0.00    +0.098 C 
BRANCH  10  11
ATOM     11  C   UNL     1      32.208  -7.827 -20.789  0.00  0.00    +0.145 C 
BRANCH  11  12
ATOM     12  O   UNL     1      33.189  -7.526 -19.804  0.00  0.00    -0.382 OA
ATOM     13  H   UNL     1      32.816  -7.668 -18.921  0.00  0.00    +0.210 HD
ENDBRANCH  11  12
ENDBRANCH  10  11
ENDBRANCH   9  10
ENDBRANCH   6   9
ENDBRANCH   3   6
ENDBRANCH   1   4
BRANCH   1  15
ATOM     14  O   UNL     1      35.393 -16.042 -23.192  0.00  0.00    -0.226 OA
ATOM     15  N   UNL     1      34.128 -15.393 -21.360  0.00  0.00    -0.264 N 
ATOM     16  C   UNL     1      35.018 -16.203 -22.036  0.00  0.00    +0.402 C 
ATOM     17  H   UNL     1      33.902 -15.625 -20.430  0.00  0.00    +0.153 HD
BRANCH  16  18
ATOM     18  O   UNL     1      35.426 -17.223 -21.222  0.00  0.00    -0.430 OA
BRANCH  18  19
ATOM     19  C   UNL     1      35.628 -18.488 -21.861  0.00  0.00    +0.237 C 
BRANCH  19  20
ATOM     20  C   UNL     1      34.990 -19.563 -21.031  0.00  0.00    +0.021 C 
ATOM     21  C   UNL     1      35.785 -20.492 -20.360  0.00  0.00    -0.001 C 
ATOM     22  C   UNL     1      33.601 -19.633 -20.929  0.00  0.00    -0.001 C 
ATOM     23  C   UNL     1      35.192 -21.491 -19.588  0.00  0.00    -0.000 C 
ATOM     24  C   UNL     1      33.007 -20.633 -20.157  0.00  0.00    -0.000 C 
ATOM     25  C   UNL     1      33.803 -21.561 -19.487  0.00  0.00    -0.000 C 
ENDBRANCH  19  20
ENDBRANCH  18  19
ENDBRANCH  16  18
ENDBRANCH   1  15
BRANCH   1  26
ATOM     26  C   UNL     1      32.708 -14.559 -23.200  0.00  0.00    +0.055 C 
BRANCH  26  27
ATOM     27  C   UNL     1      33.104 -13.708 -24.381  0.00  0.00    -0.020 C 
ATOM     28  C   UNL     1      32.881 -14.168 -25.679  0.00  0.00    -0.004 C 
ATOM     29  C   UNL     1      33.694 -12.460 -24.177  0.00  0.00    -0.004 C 
ATOM     30  C   UNL     1      33.246 -13.381 -26.771  0.00  0.00    -0.000 C 
ATOM     31  C   UNL     1      34.059 -11.673 -25.269  0.00  0.00    -0.000 C 
ATOM     32  C   UNL     1      33.835 -12.134 -26.566  0.00  0.00    -0.000 C 
ENDBRANCH  26  27
ENDBRANCH   1  26
TORSDOF 12
ENDMDL
MODEL 5
REMARK VINA RESULT:      -9.6      8.552     13.440
REMARK  Name = 16220131
REMARK  12 active torsions:
REMARK  status: ('A' for Active; 'I' for Inactive)
REMARK    1  A    between atoms: C_1  and  C_4
REMARK    2  A    between atoms: C_1  and  N_15
REMARK    3  A    between atoms: C_1  and  C_26
REMARK    4  A    between atoms: N_3  and  C_6
REMARK    5  A    between atoms: C_6  and  C_9
REMARK    6  A    between atoms: C_9  and  C_10
REMARK    7  A    between atoms: C_10  and  C_11
REMARK    8  A    between atoms: C_11  and  O_12
REMARK    9  A    between atoms: C_16  and  O_18
REMARK   10  A    between atoms: O_18  and  C_19
REMARK   11  A    between atoms: C_19  and  C_20
REMARK   12  A    between atoms: C_26  and  C_27
REMARK                            x       y       z     vdW  Elec       q    Type
REMARK                         _______ _______ _______ _____ _____    ______ ____
ROOT
ATOM      1  C   UNL     1      33.472 -14.213 -21.986  0.00  0.00    +0.155 C 
ENDROOT
BRANCH   1   4
ATOM      2  O   UNL     1      32.345 -14.260 -19.840  0.00  0.00    -0.273 OA
ATOM      3  N   UNL     1      32.180 -12.344 -21.145  0.00  0.00    -0.298 N 
ATOM      4  C   UNL     1      32.600 -13.643 -20.872  0.00  0.00    +0.241 C 
ATOM      5  H   UNL     1      32.439 -11.942 -22.006  0.00  0.00    +0.150 HD
BRANCH   3   6
ATOM      6  C   UNL     1      31.387 -11.559 -20.238  0.00  0.00    +0.130 C 
ATOM      7  C   UNL     1      30.006 -11.271 -20.799  0.00  0.00    +0.029 C 
BRANCH   6   9
ATOM      8  O   UNL     1      32.633 -10.005 -18.882  0.00  0.00    -0.294 OA
ATOM      9  C   UNL     1      32.142 -10.263 -19.981  0.00  0.00    +0.171 C 
BRANCH   9  10
ATOM     10  C   UNL     1      32.293  -9.332 -21.177  0.00  0.00    +0.098 C 
BRANCH  10  11
ATOM     11  C   UNL     1      32.215  -7.859 -20.804  0.00  0.00    +0.145 C 
BRANCH  11  12
ATOM     12  O   UNL     1      33.210  -7.539 -19.839  0.00  0.00    -0.382 OA
ATOM     13  H   UNL     1      34.074  -7.471 -20.275  0.00  0.00    +0.210 HD
ENDBRANCH  11  12
ENDBRANCH  10  11
ENDBRANCH   9  10
ENDBRANCH   6   9
ENDBRANCH   3   6
ENDBRANCH   1   4
BRANCH   1  15
ATOM     14  O   UNL     1      35.408 -15.927 -23.310  0.00  0.00    -0.226 OA
ATOM     15  N   UNL     1      34.078 -15.418 -21.477  0.00  0.00    -0.264 N 
ATOM     16  C   UNL     1      34.994 -16.174 -22.181  0.00  0.00    +0.402 C 
ATOM     17  H   UNL     1      33.823 -15.719 -20.576  0.00  0.00    +0.153 HD
BRANCH  16  18
ATOM     18  O   UNL     1      35.381 -17.250 -21.432  0.00  0.00    -0.430 OA
BRANCH  18  19
ATOM     19  C   UNL     1      35.345 -18.518 -22.096  0.00  0.00    +0.237 C 
BRANCH  19  20
ATOM     20  C   UNL     1      34.813 -19.552 -21.148  0.00  0.00    +0.021 C 
ATOM     21  C   UNL     1      33.438 -19.670 -20.945  0.00  0.00    -0.001 C 
ATOM     22  C   UNL     1      35.692 -20.397 -20.471  0.00  0.00    -0.001 C 
ATOM     23  C   UNL     1      32.943 -20.631 -20.064  0.00  0.00    -0.000 C 
ATOM     24  C   UNL     1      35.197 -21.358 -19.590  0.00  0.00    -0.000 C 
ATOM     25  C   UNL     1      33.822 -21.475 -19.387  0.00  0.00    -0.000 C 
ENDBRANCH  19  20
ENDBRANCH  18  19
ENDBRANCH  16  18
ENDBRANCH   1  15
BRANCH   1  26
ATOM     26  C   UNL     1      32.632 -14.473 -23.241  0.00  0.00    +0.055 C 
BRANCH  26  27
ATOM     27  C   UNL     1      33.068 -13.637 -24.419  0.00  0.00    -0.020 C 
ATOM     28  C   UNL     1      33.679 -12.401 -24.209  0.00  0.00    -0.004 C 
ATOM     29  C   UNL     1      32.862 -14.099 -25.719  0.00  0.00    -0.004 C 
ATOM     30  C   UNL     1      34.083 -11.628 -25.297  0.00  0.00    -0.000 C 
ATOM     31  C   UNL     1      33.266 -13.326 -26.807  0.00  0.00    -0.000 C 
ATOM     32  C   UNL     1      33.876 -12.091 -26.596  0.00  0.00    -0.000 C 
ENDBRANCH  26  27
ENDBRANCH   1  26
TORSDOF 12
ENDMDL
MODEL 6
REMARK VINA RESULT:      -9.6      1.724      2.641
REMARK  Name = 16220131
REMARK  12 active torsions:
REMARK  status: ('A' for Active; 'I' for Inactive)
REMARK    1  A    between atoms: C_1  and  C_4
REMARK    2  A    between atoms: C_1  and  N_15
REMARK    3  A    between atoms: C_1  and  C_26
REMARK    4  A    between atoms: N_3  and  C_6
REMARK    5  A    between atoms: C_6  and  C_9
REMARK    6  A    between atoms: C_9  and  C_10
REMARK    7  A    between atoms: C_10  and  C_11
REMARK    8  A    between atoms: C_11  and  O_12
REMARK    9  A    between atoms: C_16  and  O_18
REMARK   10  A    between atoms: O_18  and  C_19
REMARK   11  A    between atoms: C_19  and  C_20
REMARK   12  A    between atoms: C_26  and  C_27
REMARK                            x       y       z     vdW  Elec       q    Type
REMARK                         _______ _______ _______ _____ _____    ______ ____
ROOT
ATOM      1  C   UNL     1      35.341 -22.989 -15.181  0.00  0.00    +0.155 C 
ENDROOT
BRANCH   1   4
ATOM      2  O   UNL     1      36.992 -22.763 -13.419  0.00  0.00    -0.273 OA
ATOM      3  N   UNL     1      37.450 -24.181 -15.202  0.00  0.00    -0.298 N 
ATOM      4  C   UNL     1      36.674 -23.266 -14.495  0.00  0.00    +0.241 C 
ATOM      5  H   UNL     1      37.102 -24.524 -16.057  0.00  0.00    +0.150 HD
BRANCH   3   6
ATOM      6  C   UNL     1      38.731 -24.653 -14.750  0.00  0.00    +0.130 C 
ATOM      7  C   UNL     1      39.827 -24.365 -15.760  0.00  0.00    +0.029 C 
BRANCH   6   9
ATOM      8  O   UNL     1      39.539 -26.923 -14.719  0.00  0.00    -0.294 OA
ATOM      9  C   UNL     1      38.604 -26.151 -14.510  0.00  0.00    +0.171 C 
BRANCH   9  10
ATOM     10  C   UNL     1      37.269 -26.624 -13.949  0.00  0.00    +0.098 C 
BRANCH  10  11
ATOM     11  C   UNL     1      36.452 -27.431 -14.948  0.00  0.00    +0.145 C 
BRANCH  11  12
ATOM     12  O   UNL     1      36.856 -27.128 -16.278  0.00  0.00    -0.382 OA
ATOM     13  H   UNL     1      37.439 -26.352 -16.270  0.00  0.00    +0.210 HD
ENDBRANCH  11  12
ENDBRANCH  10  11
ENDBRANCH   9  10
ENDBRANCH   6   9
ENDBRANCH   3   6
ENDBRANCH   1   4
BRANCH   1  15
ATOM     14  O   UNL     1      37.238 -21.173 -16.421  0.00  0.00    -0.226 OA
ATOM     15  N   UNL     1      35.612 -22.820 -16.586  0.00  0.00    -0.264 N 
ATOM     16  C   UNL     1      36.536 -21.926 -17.088  0.00  0.00    +0.402 C 
ATOM     17  H   UNL     1      35.107 -23.373 -17.224  0.00  0.00    +0.153 HD
BRANCH  16  18
ATOM     18  O   UNL     1      36.560 -22.002 -18.453  0.00  0.00    -0.430 OA
BRANCH  18  19
ATOM     19  C   UNL     1      35.325 -22.367 -19.080  0.00  0.00    +0.237 C 
BRANCH  19  20
ATOM     20  C   UNL     1      34.783 -21.179 -19.820  0.00  0.00    +0.021 C 
ATOM     21  C   UNL     1      35.656 -20.291 -20.448  0.00  0.00    -0.001 C 
ATOM     22  C   UNL     1      33.407 -20.964 -19.882  0.00  0.00    -0.001 C 
ATOM     23  C   UNL     1      35.153 -19.187 -21.136  0.00  0.00    -0.000 C 
ATOM     24  C   UNL     1      32.903 -19.860 -20.570  0.00  0.00    -0.000 C 
ATOM     25  C   UNL     1      33.776 -18.972 -21.198  0.00  0.00    -0.000 C 
ENDBRANCH  19  20
ENDBRANCH  18  19
ENDBRANCH  16  18
ENDBRANCH   1  15
BRANCH   1  26
ATOM     26  C   UNL     1      34.356 -24.133 -14.914  0.00  0.00    +0.055 C 
BRANCH  26  27
ATOM     27  C   UNL     1      32.915 -23.692 -14.993  0.00  0.00    -0.020 C 
ATOM     28  C   UNL     1      32.160 -23.563 -13.827  0.00  0.00    -0.004 C 
ATOM     29  C   UNL     1      32.336 -23.414 -16.231  0.00  0.00    -0.004 C 
ATOM     30  C   UNL     1      30.828 -23.156 -13.899  0.00  0.00    -0.000 C 
ATOM     31  C   UNL     1      31.004 -23.007 -16.303  0.00  0.00    -0.000 C 
ATOM     32  C   UNL     1      30.251 -22.878 -15.138  0.00  0.00    -0.000 C 
ENDBRANCH  26  27
ENDBRANCH   1  26
TORSDOF 12
ENDMDL
MODEL 7
REMARK VINA RESULT:      -9.5      2.314      6.727
REMARK  Name = 16220131
REMARK  12 active torsions:
REMARK  status: ('A' for Active; 'I' for Inactive)
REMARK    1  A    between atoms: C_1  and  C_4
REMARK    2  A    between atoms: C_1  and  N_15
REMARK    3  A    between atoms: C_1  and  C_26
REMARK    4  A    between atoms: N_3  and  C_6
REMARK    5  A    between atoms: C_6  and  C_9
REMARK    6  A    between atoms: C_9  and  C_10
REMARK    7  A    between atoms: C_10  and  C_11
REMARK    8  A    between atoms: C_11  and  O_12
REMARK    9  A    between atoms: C_16  and  O_18
REMARK   10  A    between atoms: O_18  and  C_19
REMARK   11  A    between atoms: C_19  and  C_20
REMARK   12  A    between atoms: C_26  and  C_27
REMARK                            x       y       z     vdW  Elec       q    Type
REMARK                         _______ _______ _______ _____ _____    ______ ____
ROOT
ATOM      1  C   UNL     1      33.259 -23.430 -17.117  0.00  0.00    +0.155 C 
ENDROOT
BRANCH   1   4
ATOM      2  O   UNL     1      33.813 -24.063 -19.391  0.00  0.00    -0.273 OA
ATOM      3  N   UNL     1      34.294 -21.902 -18.686  0.00  0.00    -0.298 N 
ATOM      4  C   UNL     1      33.823 -23.200 -18.515  0.00  0.00    +0.241 C 
ATOM      5  H   UNL     1      34.257 -21.288 -17.917  0.00  0.00    +0.150 HD
BRANCH   3   6
ATOM      6  C   UNL     1      34.832 -21.409 -19.925  0.00  0.00    +0.130 C 
ATOM      7  C   UNL     1      36.250 -20.894 -19.759  0.00  0.00    +0.029 C 
BRANCH   6   9
ATOM      8  O   UNL     1      32.698 -20.327 -20.209  0.00  0.00    -0.294 OA
ATOM      9  C   UNL     1      33.912 -20.297 -20.409  0.00  0.00    +0.171 C 
BRANCH   9  10
ATOM     10  C   UNL     1      34.591 -19.129 -21.111  0.00  0.00    +0.098 C 
BRANCH  10  11
ATOM     11  C   UNL     1      34.629 -19.279 -22.625  0.00  0.00    +0.145 C 
BRANCH  11  12
ATOM     12  O   UNL     1      35.506 -18.317 -23.196  0.00  0.00    -0.382 OA
ATOM     13  H   UNL     1      36.192 -18.770 -23.712  0.00  0.00    +0.210 HD
ENDBRANCH  11  12
ENDBRANCH  10  11
ENDBRANCH   9  10
ENDBRANCH   6   9
ENDBRANCH   3   6
ENDBRANCH   1   4
BRANCH   1  15
ATOM     14  O   UNL     1      35.087 -25.124 -15.625  0.00  0.00    -0.226 OA
ATOM     15  N   UNL     1      34.272 -23.022 -16.177  0.00  0.00    -0.264 N 
ATOM     16  C   UNL     1      35.100 -23.902 -15.510  0.00  0.00    +0.402 C 
ATOM     17  H   UNL     1      34.378 -22.060 -16.000  0.00  0.00    +0.153 HD
BRANCH  16  18
ATOM     18  O   UNL     1      35.949 -23.210 -14.692  0.00  0.00    -0.430 OA
BRANCH  18  19
ATOM     19  C   UNL     1      37.251 -22.942 -15.226  0.00  0.00    +0.237 C 
BRANCH  19  20
ATOM     20  C   UNL     1      38.204 -23.997 -14.745  0.00  0.00    +0.021 C 
ATOM     21  C   UNL     1      38.022 -24.582 -13.493  0.00  0.00    -0.001 C 
ATOM     22  C   UNL     1      39.270 -24.394 -15.552  0.00  0.00    -0.001 C 
ATOM     23  C   UNL     1      38.907 -25.563 -13.045  0.00  0.00    -0.000 C 
ATOM     24  C   UNL     1      40.156 -25.375 -15.104  0.00  0.00    -0.000 C 
ATOM     25  C   UNL     1      39.974 -25.959 -13.852  0.00  0.00    -0.000 C 
ENDBRANCH  19  20
ENDBRANCH  18  19
ENDBRANCH  16  18
ENDBRANCH   1  15
BRANCH   1  26
ATOM     26  C   UNL     1      31.951 -22.650 -16.935  0.00  0.00    +0.055 C 
BRANCH  26  27
ATOM     27  C   UNL     1      30.902 -23.437 -16.189  0.00  0.00    -0.020 C 
ATOM     28  C   UNL     1      29.553 -23.278 -16.507  0.00  0.00    -0.004 C 
ATOM     29  C   UNL     1      31.279 -24.324 -15.180  0.00  0.00    -0.004 C 
ATOM     30  C   UNL     1      28.583 -24.006 -15.818  0.00  0.00    -0.000 C 
ATOM     31  C   UNL     1      30.309 -25.052 -14.491  0.00  0.00    -0.000 C 
ATOM     32  C   UNL     1      28.962 -24.893 -14.810  0.00  0.00    -0.000 C 
ENDBRANCH  26  27
ENDBRANCH   1  26
TORSDOF 12
ENDMDL
MODEL 8
REMARK VINA RESULT:      -9.4      8.334     12.324
REMARK  Name = 16220131
REMARK  12 active torsions:
REMARK  status: ('A' for Active; 'I' for Inactive)
REMARK    1  A    between atoms: C_1  and  C_4
REMARK    2  A    between atoms: C_1  and  N_15
REMARK    3  A    between atoms: C_1  and  C_26
REMARK    4  A    between atoms: N_3  and  C_6
REMARK    5  A    between atoms: C_6  and  C_9
REMARK    6  A    between atoms: C_9  and  C_10
REMARK    7  A    between atoms: C_10  and  C_11
REMARK    8  A    between atoms: C_11  and  O_12
REMARK    9  A    between atoms: C_16  and  O_18
REMARK   10  A    between atoms: O_18  and  C_19
REMARK   11  A    between atoms: C_19  and  C_20
REMARK   12  A    between atoms: C_26  and  C_27
REMARK                            x       y       z     vdW  Elec       q    Type
REMARK                         _______ _______ _______ _____ _____    ______ ____
ROOT
ATOM      1  C   UNL     1      33.742 -15.020 -21.822  0.00  0.00    +0.155 C 
ENDROOT
BRANCH   1   4
ATOM      2  O   UNL     1      34.925 -15.724 -19.826  0.00  0.00    -0.273 OA
ATOM      3  N   UNL     1      34.727 -17.221 -21.592  0.00  0.00    -0.298 N 
ATOM      4  C   UNL     1      34.539 -15.994 -20.962  0.00  0.00    +0.241 C 
ATOM      5  H   UNL     1      34.378 -17.333 -22.506  0.00  0.00    +0.150 HD
BRANCH   3   6
ATOM      6  C   UNL     1      35.404 -18.333 -20.981  0.00  0.00    +0.130 C 
ATOM      7  C   UNL     1      36.715 -18.649 -21.678  0.00  0.00    +0.029 C 
BRANCH   6   9
ATOM      8  O   UNL     1      33.495 -19.552 -21.803  0.00  0.00    -0.294 OA
ATOM      9  C   UNL     1      34.463 -19.528 -21.044  0.00  0.00    +0.171 C 
BRANCH   9  10
ATOM     10  C   UNL     1      34.821 -20.705 -20.146  0.00  0.00    +0.098 C 
BRANCH  10  11
ATOM     11  C   UNL     1      33.604 -21.458 -19.631  0.00  0.00    +0.145 C 
BRANCH  11  12
ATOM     12  O   UNL     1      32.492 -20.579 -19.512  0.00  0.00    -0.382 OA
ATOM     13  H   UNL     1      31.695 -21.016 -19.850  0.00  0.00    +0.210 HD
ENDBRANCH  11  12
ENDBRANCH  10  11
ENDBRANCH   9  10
ENDBRANCH   6   9
ENDBRANCH   3   6
ENDBRANCH   1   4
BRANCH   1  15
ATOM     14  O   UNL     1      31.656 -13.082 -22.395  0.00  0.00    -0.226 OA
ATOM     15  N   UNL     1      33.203 -14.016 -20.939  0.00  0.00    -0.264 N 
ATOM     16  C   UNL     1      32.207 -13.131 -21.300  0.00  0.00    +0.402 C 
ATOM     17  H   UNL     1      33.569 -13.958 -20.027  0.00  0.00    +0.153 HD
BRANCH  16  18
ATOM     18  O   UNL     1      31.916 -12.308 -20.248  0.00  0.00    -0.430 OA
BRANCH  18  19
ATOM     19  C   UNL     1      30.931 -11.299 -20.499  0.00  0.00    +0.237 C 
BRANCH  19  20
ATOM     20  C   UNL     1      31.624 -10.018 -20.861  0.00  0.00    +0.021 C 
ATOM     21  C   UNL     1      32.041  -9.143 -19.858  0.00  0.00    -0.001 C 
ATOM     22  C   UNL     1      31.853  -9.703 -22.200  0.00  0.00    -0.001 C 
ATOM     23  C   UNL     1      32.685  -7.952 -20.193  0.00  0.00    -0.000 C 
ATOM     24  C   UNL     1      32.497  -8.511 -22.536  0.00  0.00    -0.000 C 
ATOM     25  C   UNL     1      32.914  -7.637 -21.532  0.00  0.00    -0.000 C 
ENDBRANCH  19  20
ENDBRANCH  18  19
ENDBRANCH  16  18
ENDBRANCH   1  15
BRANCH   1  26
ATOM     26  C   UNL     1      34.636 -14.415 -22.910  0.00  0.00    +0.055 C 
BRANCH  26  27
ATOM     27  C   UNL     1      33.998 -14.451 -24.276  0.00  0.00    -0.020 C 
ATOM     28  C   UNL     1      33.704 -13.260 -24.941  0.00  0.00    -0.004 C 
ATOM     29  C   UNL     1      33.699 -15.675 -24.876  0.00  0.00    -0.004 C 
ATOM     30  C   UNL     1      33.113 -13.294 -26.205  0.00  0.00    -0.000 C 
ATOM     31  C   UNL     1      33.109 -15.708 -26.139  0.00  0.00    -0.000 C 
ATOM     32  C   UNL     1      32.816 -14.518 -26.803  0.00  0.00    -0.000 C 
ENDBRANCH  26  27
ENDBRANCH   1  26
TORSDOF 12
ENDMDL
MODEL 9
REMARK VINA RESULT:      -9.4      9.594     14.120
REMARK  Name = 16220131
REMARK  12 active torsions:
REMARK  status: ('A' for Active; 'I' for Inactive)
REMARK    1  A    between atoms: C_1  and  C_4
REMARK    2  A    between atoms: C_1  and  N_15
REMARK    3  A    between atoms: C_1  and  C_26
REMARK    4  A    between atoms: N_3  and  C_6
REMARK    5  A    between atoms: C_6  and  C_9
REMARK    6  A    between atoms: C_9  and  C_10
REMARK    7  A    between atoms: C_10  and  C_11
REMARK    8  A    between atoms: C_11  and  O_12
REMARK    9  A    between atoms: C_16  and  O_18
REMARK   10  A    between atoms: O_18  and  C_19
REMARK   11  A    between atoms: C_19  and  C_20
REMARK   12  A    between atoms: C_26  and  C_27
REMARK                            x       y       z     vdW  Elec       q    Type
REMARK                         _______ _______ _______ _____ _____    ______ ____
ROOT
ATOM      1  C   UNL     1      32.807 -13.821 -24.635  0.00  0.00    +0.155 C 
ENDROOT
BRANCH   1   4
ATOM      2  O   UNL     1      33.522 -12.660 -26.640  0.00  0.00    -0.273 OA
ATOM      3  N   UNL     1      33.691 -11.566 -24.597  0.00  0.00    -0.298 N 
ATOM      4  C   UNL     1      33.387 -12.648 -25.418  0.00  0.00    +0.241 C 
ATOM      5  H   UNL     1      33.546 -11.662 -23.628  0.00  0.00    +0.150 HD
BRANCH   3   6
ATOM      6  C   UNL     1      34.205 -10.316 -25.088  0.00  0.00    +0.130 C 
ATOM      7  C   UNL     1      35.639 -10.445 -25.568  0.00  0.00    +0.029 C 
BRANCH   6   9
ATOM      8  O   UNL     1      35.060  -8.594 -23.635  0.00  0.00    -0.294 OA
ATOM      9  C   UNL     1      34.109  -9.308 -23.951  0.00  0.00    +0.171 C 
BRANCH   9  10
ATOM     10  C   UNL     1      32.752  -9.205 -23.267  0.00  0.00    +0.098 C 
BRANCH  10  11
ATOM     11  C   UNL     1      32.806  -8.462 -21.940  0.00  0.00    +0.145 C 
BRANCH  11  12
ATOM     12  O   UNL     1      33.090  -7.085 -22.154  0.00  0.00    -0.382 OA
ATOM     13  H   UNL     1      32.444  -6.543 -21.674  0.00  0.00    +0.210 HD
ENDBRANCH  11  12
ENDBRANCH  10  11
ENDBRANCH   9  10
ENDBRANCH   6   9
ENDBRANCH   3   6
ENDBRANCH   1   4
BRANCH   1  15
ATOM     14  O   UNL     1      32.987 -16.113 -26.410  0.00  0.00    -0.226 OA
ATOM     15  N   UNL     1      33.802 -14.864 -24.633  0.00  0.00    -0.264 N 
ATOM     16  C   UNL     1      33.808 -15.922 -25.520  0.00  0.00    +0.402 C 
ATOM     17  H   UNL     1      34.518 -14.820 -23.958  0.00  0.00    +0.153 HD
BRANCH  16  18
ATOM     18  O   UNL     1      34.874 -16.738 -25.261  0.00  0.00    -0.430 OA
BRANCH  18  19
ATOM     19  C   UNL     1      34.566 -18.118 -25.039  0.00  0.00    +0.237 C 
BRANCH  19  20
ATOM     20  C   UNL     1      34.888 -18.469 -23.616  0.00  0.00    +0.021 C 
ATOM     21  C   UNL     1      36.091 -18.049 -23.049  0.00  0.00    -0.001 C 
ATOM     22  C   UNL     1      33.984 -19.215 -22.860  0.00  0.00    -0.001 C 
ATOM     23  C   UNL     1      36.390 -18.375 -21.727  0.00  0.00    -0.000 C 
ATOM     24  C   UNL     1      34.283 -19.541 -21.536  0.00  0.00    -0.000 C 
ATOM     25  C   UNL     1      35.486 -19.121 -20.970  0.00  0.00    -0.000 C 
ENDBRANCH  19  20
ENDBRANCH  18  19
ENDBRANCH  16  18
ENDBRANCH   1  15
BRANCH   1  26
ATOM     26  C   UNL     1      32.427 -13.380 -23.217  0.00  0.00    +0.055 C 
BRANCH  26  27
ATOM     27  C   UNL     1      33.035 -14.258 -22.151  0.00  0.00    -0.020 C 
ATOM     28  C   UNL     1      32.258 -15.232 -21.523  0.00  0.00    -0.004 C 
ATOM     29  C   UNL     1      34.373 -14.097 -21.791  0.00  0.00    -0.004 C 
ATOM     30  C   UNL     1      32.819 -16.044 -20.538  0.00  0.00    -0.000 C 
ATOM     31  C   UNL     1      34.934 -14.909 -20.806  0.00  0.00    -0.000 C 
ATOM     32  C   UNL     1      34.157 -15.882 -20.180  0.00  0.00    -0.000 C 
ENDBRANCH  26  27
ENDBRANCH   1  26
TORSDOF 12
ENDMDL
