MODEL 1
REMARK VINA RESULT:      -7.1      0.000      0.000
REMARK  Name = 1855
REMARK  6 active torsions:
REMARK  status: ('A' for Active; 'I' for Inactive)
REMARK    1  A    between atoms: C_5  and  C_12
REMARK    2  A    between atoms: C_12  and  C_13
REMARK    3  A    between atoms: C_13  and  C_14
REMARK    4  A    between atoms: C_13  and  C_17
REMARK    5  A    between atoms: C_14  and  O_15
REMARK    6  A    between atoms: C_17  and  O_18
REMARK                            x       y       z     vdW  Elec       q    Type
REMARK                         _______ _______ _______ _____ _____    ______ ____
ROOT
ATOM      1  O   UNL     1      34.252 -16.703 -24.520  0.00  0.00    -0.267 OA
ATOM      2  O   UNL     1      34.841 -15.516 -20.115  0.00  0.00    -0.247 OA
ATOM      3  N   UNL     1      35.237 -17.685 -20.760  0.00  0.00    -0.311 N 
ATOM      4  N   UNL     1      34.535 -16.101 -22.320  0.00  0.00    -0.275 N 
ATOM      5  C   UNL     1      35.274 -18.671 -21.722  0.00  0.00    +0.038 A 
ATOM      6  C   UNL     1      34.943 -18.409 -23.002  0.00  0.00    +0.046 A 
ATOM      7  C   UNL     1      34.545 -17.009 -23.366  0.00  0.00    +0.258 A 
ATOM      8  C   UNL     1      34.906 -19.398 -24.131  0.00  0.00    +0.037 C 
ATOM      9  C   UNL     1      34.868 -16.374 -20.999  0.00  0.00    +0.327 A 
ATOM     10  H   UNL     1      35.489 -17.931 -19.841  0.00  0.00    +0.170 HD
ATOM     11  H   UNL     1      34.268 -15.177 -22.532  0.00  0.00    +0.173 HD
ENDROOT
BRANCH   5  12
ATOM     12  C   UNL     1      35.723 -20.008 -21.201  0.00  0.00    +0.049 C 
BRANCH  12  13
ATOM     13  C   UNL     1      34.868 -20.522 -20.031  0.00  0.00    +0.064 C 
BRANCH  13  14
ATOM     14  C   UNL     1      35.434 -21.805 -19.397  0.00  0.00    +0.140 C 
BRANCH  14  15
ATOM     15  O   UNL     1      34.440 -22.820 -19.341  0.00  0.00    -0.382 OA
ATOM     16  H   UNL     1      34.014 -22.808 -18.469  0.00  0.00    +0.210 HD
ENDBRANCH  14  15
ENDBRANCH  13  14
BRANCH  13  17
ATOM     17  C   UNL     1      33.428 -20.731 -20.525  0.00  0.00    +0.140 C 
BRANCH  17  18
ATOM     18  O   UNL     1      32.524 -20.675 -19.429  0.00  0.00    -0.382 OA
ATOM     19  H   UNL     1      32.744 -19.916 -18.866  0.00  0.00    +0.210 HD
ENDBRANCH  17  18
ENDBRANCH  13  17
ENDBRANCH  12  13
ENDBRANCH   5  12
TORSDOF 6
ENDMDL
MODEL 2
REMARK VINA RESULT:      -7.0      8.189     10.460
REMARK  Name = 1855
REMARK  6 active torsions:
REMARK  status: ('A' for Active; 'I' for Inactive)
REMARK    1  A    between atoms: C_5  and  C_12
REMARK    2  A    between atoms: C_12  and  C_13
REMARK    3  A    between atoms: C_13  and  C_14
REMARK    4  A    between atoms: C_13  and  C_17
REMARK    5  A    between atoms: C_14  and  O_15
REMARK    6  A    between atoms: C_17  and  O_18
REMARK                            x       y       z     vdW  Elec       q    Type
REMARK                         _______ _______ _______ _____ _____    ______ ____
ROOT
ATOM      1  O   UNL     1      38.325 -22.401 -12.026  0.00  0.00    -0.267 OA
ATOM      2  O   UNL     1      35.213 -24.932  -9.776  0.00  0.00    -0.247 OA
ATOM      3  N   UNL     1      35.051 -24.714 -12.057  0.00  0.00    -0.311 N 
ATOM      4  N   UNL     1      36.771 -23.656 -10.891  0.00  0.00    -0.275 N 
ATOM      5  C   UNL     1      35.504 -24.208 -13.257  0.00  0.00    +0.038 A 
ATOM      6  C   UNL     1      36.591 -23.414 -13.314  0.00  0.00    +0.046 A 
ATOM      7  C   UNL     1      37.316 -23.102 -12.037  0.00  0.00    +0.258 A 
ATOM      8  C   UNL     1      37.160 -22.772 -14.545  0.00  0.00    +0.037 C 
ATOM      9  C   UNL     1      35.644 -24.468 -10.833  0.00  0.00    +0.327 A 
ATOM     10  H   UNL     1      34.253 -25.289 -12.073  0.00  0.00    +0.170 HD
ATOM     11  H   UNL     1      37.223 -23.457 -10.039  0.00  0.00    +0.173 HD
ENDROOT
BRANCH   5  12
ATOM     12  C   UNL     1      34.686 -24.641 -14.442  0.00  0.00    +0.049 C 
BRANCH  12  13
ATOM     13  C   UNL     1      33.460 -23.748 -14.693  0.00  0.00    +0.064 C 
BRANCH  13  14
ATOM     14  C   UNL     1      32.132 -24.446 -14.346  0.00  0.00    +0.140 C 
BRANCH  14  15
ATOM     15  O   UNL     1      32.274 -25.246 -13.180  0.00  0.00    -0.382 OA
ATOM     16  H   UNL     1      32.954 -24.860 -12.604  0.00  0.00    +0.210 HD
ENDBRANCH  14  15
ENDBRANCH  13  14
BRANCH  13  17
ATOM     17  C   UNL     1      33.480 -23.280 -16.156  0.00  0.00    +0.140 C 
BRANCH  17  18
ATOM     18  O   UNL     1      34.599 -23.840 -16.832  0.00  0.00    -0.382 OA
ATOM     19  H   UNL     1      35.152 -23.128 -17.189  0.00  0.00    +0.210 HD
ENDBRANCH  17  18
ENDBRANCH  13  17
ENDBRANCH  12  13
ENDBRANCH   5  12
TORSDOF 6
ENDMDL
MODEL 3
REMARK VINA RESULT:      -7.0      1.807      3.236
REMARK  Name = 1855
REMARK  6 active torsions:
REMARK  status: ('A' for Active; 'I' for Inactive)
REMARK    1  A    between atoms: C_5  and  C_12
REMARK    2  A    between atoms: C_12  and  C_13
REMARK    3  A    between atoms: C_13  and  C_14
REMARK    4  A    between atoms: C_13  and  C_17
REMARK    5  A    between atoms: C_14  and  O_15
REMARK    6  A    between atoms: C_17  and  O_18
REMARK                            x       y       z     vdW  Elec       q    Type
REMARK                         _______ _______ _______ _____ _____    ______ ____
ROOT
ATOM      1  O   UNL     1      33.715 -14.067 -22.883  0.00  0.00    -0.267 OA
ATOM      2  O   UNL     1      34.656 -17.575 -25.705  0.00  0.00    -0.247 OA
ATOM      3  N   UNL     1      34.992 -17.825 -23.447  0.00  0.00    -0.311 N 
ATOM      4  N   UNL     1      34.190 -15.810 -24.303  0.00  0.00    -0.275 N 
ATOM      5  C   UNL     1      34.966 -17.332 -22.160  0.00  0.00    +0.038 A 
ATOM      6  C   UNL     1      34.560 -16.072 -21.904  0.00  0.00    +0.046 A 
ATOM      7  C   UNL     1      34.116 -15.216 -23.054  0.00  0.00    +0.258 A 
ATOM      8  C   UNL     1      34.521 -15.406 -20.560  0.00  0.00    +0.037 C 
ATOM      9  C   UNL     1      34.618 -17.106 -24.567  0.00  0.00    +0.327 A 
ATOM     10  H   UNL     1      35.297 -18.752 -23.578  0.00  0.00    +0.170 HD
ATOM     11  H   UNL     1      33.914 -15.265 -25.075  0.00  0.00    +0.173 HD
ENDROOT
BRANCH   5  12
ATOM     12  C   UNL     1      35.410 -18.325 -21.123  0.00  0.00    +0.049 C 
BRANCH  12  13
ATOM     13  C   UNL     1      34.651 -19.660 -21.195  0.00  0.00    +0.064 C 
BRANCH  13  14
ATOM     14  C   UNL     1      33.168 -19.525 -20.808  0.00  0.00    +0.140 C 
BRANCH  14  15
ATOM     15  O   UNL     1      32.746 -20.641 -20.035  0.00  0.00    -0.382 OA
ATOM     16  H   UNL     1      31.925 -20.419 -19.567  0.00  0.00    +0.210 HD
ENDBRANCH  14  15
ENDBRANCH  13  14
BRANCH  13  17
ATOM     17  C   UNL     1      35.370 -20.687 -20.306  0.00  0.00    +0.140 C 
BRANCH  17  18
ATOM     18  O   UNL     1      36.516 -20.094 -19.706  0.00  0.00    -0.382 OA
ATOM     19  H   UNL     1      36.283 -19.760 -18.825  0.00  0.00    +0.210 HD
ENDBRANCH  17  18
ENDBRANCH  13  17
ENDBRANCH  12  13
ENDBRANCH   5  12
TORSDOF 6
ENDMDL
MODEL 4
REMARK VINA RESULT:      -6.8      5.983      8.573
REMARK  Name = 1855
REMARK  6 active torsions:
REMARK  status: ('A' for Active; 'I' for Inactive)
REMARK    1  A    between atoms: C_5  and  C_12
REMARK    2  A    between atoms: C_12  and  C_13
REMARK    3  A    between atoms: C_13  and  C_14
REMARK    4  A    between atoms: C_13  and  C_17
REMARK    5  A    between atoms: C_14  and  O_15
REMARK    6  A    between atoms: C_17  and  O_18
REMARK                            x       y       z     vdW  Elec       q    Type
REMARK                         _______ _______ _______ _____ _____    ______ ____
ROOT
ATOM      1  O   UNL     1      35.282 -23.820 -15.530  0.00  0.00    -0.267 OA
ATOM      2  O   UNL     1      32.937 -22.262 -19.167  0.00  0.00    -0.247 OA
ATOM      3  N   UNL     1      31.816 -22.717 -17.214  0.00  0.00    -0.311 N 
ATOM      4  N   UNL     1      34.119 -23.049 -17.356  0.00  0.00    -0.275 N 
ATOM      5  C   UNL     1      31.796 -23.148 -15.905  0.00  0.00    +0.038 A 
ATOM      6  C   UNL     1      32.925 -23.545 -15.285  0.00  0.00    +0.046 A 
ATOM      7  C   UNL     1      34.217 -23.492 -16.047  0.00  0.00    +0.258 A 
ATOM      8  C   UNL     1      33.032 -24.070 -13.883  0.00  0.00    +0.037 C 
ATOM      9  C   UNL     1      32.953 -22.649 -17.997  0.00  0.00    +0.327 A 
ATOM     10  H   UNL     1      30.963 -22.438 -17.619  0.00  0.00    +0.170 HD
ATOM     11  H   UNL     1      34.952 -23.014 -17.880  0.00  0.00    +0.173 HD
ENDROOT
BRANCH   5  12
ATOM     12  C   UNL     1      30.431 -23.111 -15.277  0.00  0.00    +0.049 C 
BRANCH  12  13
ATOM     13  C   UNL     1      29.436 -24.087 -15.927  0.00  0.00    +0.064 C 
BRANCH  13  14
ATOM     14  C   UNL     1      28.260 -23.371 -16.614  0.00  0.00    +0.140 C 
BRANCH  14  15
ATOM     15  O   UNL     1      28.633 -22.057 -17.009  0.00  0.00    -0.382 OA
ATOM     16  H   UNL     1      29.557 -22.058 -17.305  0.00  0.00    +0.210 HD
ENDBRANCH  14  15
ENDBRANCH  13  14
BRANCH  13  17
ATOM     17  C   UNL     1      28.942 -25.074 -14.858  0.00  0.00    +0.140 C 
BRANCH  17  18
ATOM     18  O   UNL     1      29.948 -26.043 -14.587  0.00  0.00    -0.382 OA
ATOM     19  H   UNL     1      30.551 -25.702 -13.907  0.00  0.00    +0.210 HD
ENDBRANCH  17  18
ENDBRANCH  13  17
ENDBRANCH  12  13
ENDBRANCH   5  12
TORSDOF 6
ENDMDL
MODEL 5
REMARK VINA RESULT:      -6.8      8.171     10.331
REMARK  Name = 1855
REMARK  6 active torsions:
REMARK  status: ('A' for Active; 'I' for Inactive)
REMARK    1  A    between atoms: C_5  and  C_12
REMARK    2  A    between atoms: C_12  and  C_13
REMARK    3  A    between atoms: C_13  and  C_14
REMARK    4  A    between atoms: C_13  and  C_17
REMARK    5  A    between atoms: C_14  and  O_15
REMARK    6  A    between atoms: C_17  and  O_18
REMARK                            x       y       z     vdW  Elec       q    Type
REMARK                         _______ _______ _______ _____ _____    ______ ____
ROOT
ATOM      1  O   UNL     1      39.494 -24.719 -13.605  0.00  0.00    -0.267 OA
ATOM      2  O   UNL     1      36.728 -27.359 -16.161  0.00  0.00    -0.247 OA
ATOM      3  N   UNL     1      35.807 -25.799 -14.749  0.00  0.00    -0.311 N 
ATOM      4  N   UNL     1      38.122 -26.049 -14.880  0.00  0.00    -0.275 N 
ATOM      5  C   UNL     1      35.931 -24.800 -13.807  0.00  0.00    +0.038 A 
ATOM      6  C   UNL     1      37.142 -24.400 -13.370  0.00  0.00    +0.046 A 
ATOM      7  C   UNL     1      38.363 -25.055 -13.947  0.00  0.00    +0.258 A 
ATOM      8  C   UNL     1      37.410 -23.356 -12.326  0.00  0.00    +0.037 C 
ATOM      9  C   UNL     1      36.872 -26.468 -15.323  0.00  0.00    +0.327 A 
ATOM     10  H   UNL     1      34.899 -26.053 -15.033  0.00  0.00    +0.170 HD
ATOM     11  H   UNL     1      38.907 -26.501 -15.266  0.00  0.00    +0.173 HD
ENDROOT
BRANCH   5  12
ATOM     12  C   UNL     1      34.616 -24.228 -13.356  0.00  0.00    +0.049 C 
BRANCH  12  13
ATOM     13  C   UNL     1      33.553 -24.200 -14.466  0.00  0.00    +0.064 C 
BRANCH  13  14
ATOM     14  C   UNL     1      33.853 -23.152 -15.553  0.00  0.00    +0.140 C 
BRANCH  14  15
ATOM     15  O   UNL     1      34.401 -23.770 -16.710  0.00  0.00    -0.382 OA
ATOM     16  H   UNL     1      33.686 -24.165 -17.234  0.00  0.00    +0.210 HD
ENDBRANCH  14  15
ENDBRANCH  13  14
BRANCH  13  17
ATOM     17  C   UNL     1      32.176 -23.963 -13.827  0.00  0.00    +0.140 C 
BRANCH  17  18
ATOM     18  O   UNL     1      32.271 -22.958 -12.824  0.00  0.00    -0.382 OA
ATOM     19  H   UNL     1      31.575 -23.095 -12.162  0.00  0.00    +0.210 HD
ENDBRANCH  17  18
ENDBRANCH  13  17
ENDBRANCH  12  13
ENDBRANCH   5  12
TORSDOF 6
ENDMDL
MODEL 6
REMARK VINA RESULT:      -6.7      1.444      2.065
REMARK  Name = 1855
REMARK  6 active torsions:
REMARK  status: ('A' for Active; 'I' for Inactive)
REMARK    1  A    between atoms: C_5  and  C_12
REMARK    2  A    between atoms: C_12  and  C_13
REMARK    3  A    between atoms: C_13  and  C_14
REMARK    4  A    between atoms: C_13  and  C_17
REMARK    5  A    between atoms: C_14  and  O_15
REMARK    6  A    between atoms: C_17  and  O_18
REMARK                            x       y       z     vdW  Elec       q    Type
REMARK                         _______ _______ _______ _____ _____    ______ ____
ROOT
ATOM      1  O   UNL     1      34.211 -17.108 -25.751  0.00  0.00    -0.267 OA
ATOM      2  O   UNL     1      34.383 -14.253 -22.149  0.00  0.00    -0.247 OA
ATOM      3  N   UNL     1      34.951 -16.460 -21.864  0.00  0.00    -0.311 N 
ATOM      4  N   UNL     1      34.285 -15.675 -23.956  0.00  0.00    -0.275 N 
ATOM      5  C   UNL     1      35.121 -17.736 -22.357  0.00  0.00    +0.038 A 
ATOM      6  C   UNL     1      34.877 -18.023 -23.651  0.00  0.00    +0.046 A 
ATOM      7  C   UNL     1      34.429 -16.914 -24.557  0.00  0.00    +0.258 A 
ATOM      8  C   UNL     1      34.986 -19.373 -24.299  0.00  0.00    +0.037 C 
ATOM      9  C   UNL     1      34.529 -15.382 -22.619  0.00  0.00    +0.327 A 
ATOM     10  H   UNL     1      35.144 -16.306 -20.912  0.00  0.00    +0.170 HD
ATOM     11  H   UNL     1      33.983 -14.932 -24.528  0.00  0.00    +0.173 HD
ENDROOT
BRANCH   5  12
ATOM     12  C   UNL     1      35.604 -18.722 -21.328  0.00  0.00    +0.049 C 
BRANCH  12  13
ATOM     13  C   UNL     1      34.640 -19.902 -21.119  0.00  0.00    +0.064 C 
BRANCH  13  14
ATOM     14  C   UNL     1      33.232 -19.454 -20.690  0.00  0.00    +0.140 C 
BRANCH  14  15
ATOM     15  O   UNL     1      32.631 -20.425 -19.844  0.00  0.00    -0.382 OA
ATOM     16  H   UNL     1      33.190 -21.218 -19.814  0.00  0.00    +0.210 HD
ENDBRANCH  14  15
ENDBRANCH  13  14
BRANCH  13  17
ATOM     17  C   UNL     1      35.257 -20.867 -20.094  0.00  0.00    +0.140 C 
BRANCH  17  18
ATOM     18  O   UNL     1      36.428 -20.292 -19.527  0.00  0.00    -0.382 OA
ATOM     19  H   UNL     1      37.207 -20.592 -20.021  0.00  0.00    +0.210 HD
ENDBRANCH  17  18
ENDBRANCH  13  17
ENDBRANCH  12  13
ENDBRANCH   5  12
TORSDOF 6
ENDMDL
MODEL 7
REMARK VINA RESULT:      -6.7      2.680      4.386
REMARK  Name = 1855
REMARK  6 active torsions:
REMARK  status: ('A' for Active; 'I' for Inactive)
REMARK    1  A    between atoms: C_5  and  C_12
REMARK    2  A    between atoms: C_12  and  C_13
REMARK    3  A    between atoms: C_13  and  C_14
REMARK    4  A    between atoms: C_13  and  C_17
REMARK    5  A    between atoms: C_14  and  O_15
REMARK    6  A    between atoms: C_17  and  O_18
REMARK                            x       y       z     vdW  Elec       q    Type
REMARK                         _______ _______ _______ _____ _____    ______ ____
ROOT
ATOM      1  O   UNL     1      32.463 -13.133 -22.710  0.00  0.00    -0.267 OA
ATOM      2  O   UNL     1      33.384 -15.318 -26.651  0.00  0.00    -0.247 OA
ATOM      3  N   UNL     1      34.294 -16.098 -24.692  0.00  0.00    -0.311 N 
ATOM      4  N   UNL     1      32.923 -14.211 -24.686  0.00  0.00    -0.275 N 
ATOM      5  C   UNL     1      34.479 -16.013 -23.329  0.00  0.00    +0.038 A 
ATOM      6  C   UNL     1      33.902 -15.033 -22.606  0.00  0.00    +0.046 A 
ATOM      7  C   UNL     1      33.034 -14.037 -23.317  0.00  0.00    +0.258 A 
ATOM      8  C   UNL     1      34.054 -14.809 -21.129  0.00  0.00    +0.037 C 
ATOM      9  C   UNL     1      33.526 -15.218 -25.432  0.00  0.00    +0.327 A 
ATOM     10  H   UNL     1      34.739 -16.834 -25.171  0.00  0.00    +0.170 HD
ATOM     11  H   UNL     1      32.367 -13.564 -25.177  0.00  0.00    +0.173 HD
ENDROOT
BRANCH   5  12
ATOM     12  C   UNL     1      35.349 -17.104 -22.768  0.00  0.00    +0.049 C 
BRANCH  12  13
ATOM     13  C   UNL     1      34.610 -18.441 -22.595  0.00  0.00    +0.064 C 
BRANCH  13  14
ATOM     14  C   UNL     1      34.824 -19.066 -21.205  0.00  0.00    +0.140 C 
BRANCH  14  15
ATOM     15  O   UNL     1      35.939 -18.472 -20.552  0.00  0.00    -0.382 OA
ATOM     16  H   UNL     1      35.626 -17.899 -19.834  0.00  0.00    +0.210 HD
ENDBRANCH  14  15
ENDBRANCH  13  14
BRANCH  13  17
ATOM     17  C   UNL     1      35.054 -19.399 -23.712  0.00  0.00    +0.140 C 
BRANCH  17  18
ATOM     18  O   UNL     1      34.349 -19.106 -24.913  0.00  0.00    -0.382 OA
ATOM     19  H   UNL     1      33.612 -19.728 -25.016  0.00  0.00    +0.210 HD
ENDBRANCH  17  18
ENDBRANCH  13  17
ENDBRANCH  12  13
ENDBRANCH   5  12
TORSDOF 6
ENDMDL
MODEL 8
REMARK VINA RESULT:      -6.7      2.542      6.019
REMARK  Name = 1855
REMARK  6 active torsions:
REMARK  status: ('A' for Active; 'I' for Inactive)
REMARK    1  A    between atoms: C_5  and  C_12
REMARK    2  A    between atoms: C_12  and  C_13
REMARK    3  A    between atoms: C_13  and  C_14
REMARK    4  A    between atoms: C_13  and  C_17
REMARK    5  A    between atoms: C_14  and  O_15
REMARK    6  A    between atoms: C_17  and  O_18
REMARK                            x       y       z     vdW  Elec       q    Type
REMARK                         _______ _______ _______ _____ _____    ______ ____
ROOT
ATOM      1  O   UNL     1      34.876 -18.992 -20.501  0.00  0.00    -0.267 OA
ATOM      2  O   UNL     1      34.792 -19.887 -25.012  0.00  0.00    -0.247 OA
ATOM      3  N   UNL     1      34.794 -17.704 -24.296  0.00  0.00    -0.311 N 
ATOM      4  N   UNL     1      34.826 -19.450 -22.751  0.00  0.00    -0.275 N 
ATOM      5  C   UNL     1      34.801 -16.763 -23.288  0.00  0.00    +0.038 A 
ATOM      6  C   UNL     1      34.815 -17.131 -21.992  0.00  0.00    +0.046 A 
ATOM      7  C   UNL     1      34.841 -18.595 -21.663  0.00  0.00    +0.258 A 
ATOM      8  C   UNL     1      34.785 -16.210 -20.806  0.00  0.00    +0.037 C 
ATOM      9  C   UNL     1      34.802 -19.070 -24.088  0.00  0.00    +0.327 A 
ATOM     10  H   UNL     1      34.784 -17.381 -25.226  0.00  0.00    +0.170 HD
ATOM     11  H   UNL     1      34.833 -20.417 -22.562  0.00  0.00    +0.173 HD
ENDROOT
BRANCH   5  12
ATOM     12  C   UNL     1      34.804 -15.344 -23.786  0.00  0.00    +0.049 C 
BRANCH  12  13
ATOM     13  C   UNL     1      33.396 -14.796 -24.067  0.00  0.00    +0.064 C 
BRANCH  13  14
ATOM     14  C   UNL     1      33.115 -14.616 -25.570  0.00  0.00    +0.140 C 
BRANCH  14  15
ATOM     15  O   UNL     1      33.645 -15.705 -26.315  0.00  0.00    -0.382 OA
ATOM     16  H   UNL     1      33.718 -16.484 -25.741  0.00  0.00    +0.210 HD
ENDBRANCH  14  15
ENDBRANCH  13  14
BRANCH  13  17
ATOM     17  C   UNL     1      33.218 -13.474 -23.303  0.00  0.00    +0.140 C 
BRANCH  17  18
ATOM     18  O   UNL     1      31.873 -13.345 -22.861  0.00  0.00    -0.382 OA
ATOM     19  H   UNL     1      31.567 -12.437 -23.016  0.00  0.00    +0.210 HD
ENDBRANCH  17  18
ENDBRANCH  13  17
ENDBRANCH  12  13
ENDBRANCH   5  12
TORSDOF 6
ENDMDL
MODEL 9
REMARK VINA RESULT:      -6.6      7.204      8.964
REMARK  Name = 1855
REMARK  6 active torsions:
REMARK  status: ('A' for Active; 'I' for Inactive)
REMARK    1  A    between atoms: C_5  and  C_12
REMARK    2  A    between atoms: C_12  and  C_13
REMARK    3  A    between atoms: C_13  and  C_14
REMARK    4  A    between atoms: C_13  and  C_17
REMARK    5  A    between atoms: C_14  and  O_15
REMARK    6  A    between atoms: C_17  and  O_18
REMARK                            x       y       z     vdW  Elec       q    Type
REMARK                         _______ _______ _______ _____ _____    ______ ____
ROOT
ATOM      1  O   UNL     1      30.489 -22.770 -17.068  0.00  0.00    -0.267 OA
ATOM      2  O   UNL     1      30.909 -23.536 -12.552  0.00  0.00    -0.247 OA
ATOM      3  N   UNL     1      32.789 -23.526 -13.872  0.00  0.00    -0.311 N 
ATOM      4  N   UNL     1      30.686 -23.160 -14.812  0.00  0.00    -0.275 N 
ATOM      5  C   UNL     1      33.400 -23.404 -15.101  0.00  0.00    +0.038 A 
ATOM      6  C   UNL     1      32.683 -23.163 -16.216  0.00  0.00    +0.046 A 
ATOM      7  C   UNL     1      31.195 -23.012 -16.091  0.00  0.00    +0.258 A 
ATOM      8  C   UNL     1      33.222 -23.047 -17.613  0.00  0.00    +0.037 C 
ATOM      9  C   UNL     1      31.426 -23.418 -13.664  0.00  0.00    +0.327 A 
ATOM     10  H   UNL     1      33.360 -23.702 -13.090  0.00  0.00    +0.170 HD
ATOM     11  H   UNL     1      29.711 -23.075 -14.705  0.00  0.00    +0.173 HD
ENDROOT
BRANCH   5  12
ATOM     12  C   UNL     1      34.896 -23.550 -15.049  0.00  0.00    +0.049 C 
BRANCH  12  13
ATOM     13  C   UNL     1      35.358 -24.790 -14.267  0.00  0.00    +0.064 C 
BRANCH  13  14
ATOM     14  C   UNL     1      35.731 -24.471 -12.808  0.00  0.00    +0.140 C 
BRANCH  14  15
ATOM     15  O   UNL     1      34.721 -24.931 -11.918  0.00  0.00    -0.382 OA
ATOM     16  H   UNL     1      35.070 -25.662 -11.384  0.00  0.00    +0.210 HD
ENDBRANCH  14  15
ENDBRANCH  13  14
BRANCH  13  17
ATOM     17  C   UNL     1      36.534 -25.438 -15.015  0.00  0.00    +0.140 C 
BRANCH  17  18
ATOM     18  O   UNL     1      36.075 -26.552 -15.772  0.00  0.00    -0.382 OA
ATOM     19  H   UNL     1      36.819 -27.147 -15.954  0.00  0.00    +0.210 HD
ENDBRANCH  17  18
ENDBRANCH  13  17
ENDBRANCH  12  13
ENDBRANCH   5  12
TORSDOF 6
ENDMDL
