MODEL 1
REMARK VINA RESULT:      -6.5      0.000      0.000
REMARK  Name = 295941
REMARK  8 active torsions:
REMARK  status: ('A' for Active; 'I' for Inactive)
REMARK    1  A    between atoms: C_1  and  C_2
REMARK    2  A    between atoms: C_1  and  C_10
REMARK    3  A    between atoms: C_2  and  N_4
REMARK    4  A    between atoms: C_5  and  O_7
REMARK    5  A    between atoms: O_7  and  C_8
REMARK    6  A    between atoms: C_10  and  N_12
REMARK    7  A    between atoms: C_13  and  O_15
REMARK    8  A    between atoms: O_15  and  C_16
REMARK                            x       y       z     vdW  Elec       q    Type
REMARK                         _______ _______ _______ _____ _____    ______ ____
ROOT
ATOM      1  C   UNL     1      34.340 -15.154 -21.990  0.00  0.00    +0.043 C 
ENDROOT
BRANCH   1   2
ATOM      2  C   UNL     1      34.541 -16.174 -20.872  0.00  0.00    +0.094 C 
BRANCH   2   4
ATOM      3  O   UNL     1      35.969 -18.696 -20.686  0.00  0.00    -0.226 OA
ATOM      4  N   UNL     1      34.066 -17.484 -21.228  0.00  0.00    -0.271 N 
ATOM      5  C   UNL     1      34.818 -18.638 -21.107  0.00  0.00    +0.402 C 
ATOM      6  H   UNL     1      33.150 -17.564 -21.580  0.00  0.00    +0.153 HD
BRANCH   5   7
ATOM      7  O   UNL     1      34.090 -19.715 -21.526  0.00  0.00    -0.435 OA
BRANCH   7   8
ATOM      8  C   UNL     1      32.943 -20.041 -20.733  0.00  0.00    +0.210 C 
ATOM      9  C   UNL     1      33.341 -21.062 -19.688  0.00  0.00    +0.051 C 
ENDBRANCH   7   8
ENDBRANCH   5   7
ENDBRANCH   2   4
ENDBRANCH   1   2
BRANCH   1  10
ATOM     10  C   UNL     1      34.906 -15.596 -23.338  0.00  0.00    +0.094 C 
BRANCH  10  12
ATOM     11  O   UNL     1      34.677 -17.051 -25.841  0.00  0.00    -0.226 OA
ATOM     12  N   UNL     1      34.004 -15.338 -24.427  0.00  0.00    -0.271 N 
ATOM     13  C   UNL     1      33.963 -16.087 -25.590  0.00  0.00    +0.402 C 
ATOM     14  H   UNL     1      33.378 -14.583 -24.340  0.00  0.00    +0.153 HD
BRANCH  13  15
ATOM     15  O   UNL     1      33.002 -15.593 -26.428  0.00  0.00    -0.435 OA
BRANCH  15  16
ATOM     16  C   UNL     1      32.679 -14.208 -26.258  0.00  0.00    +0.210 C 
ATOM     17  C   UNL     1      33.417 -13.397 -27.301  0.00  0.00    +0.051 C 
ENDBRANCH  15  16
ENDBRANCH  13  15
ENDBRANCH  10  12
ENDBRANCH   1  10
TORSDOF 8
ENDMDL
MODEL 2
REMARK VINA RESULT:      -6.2      7.080     11.847
REMARK  Name = 295941
REMARK  8 active torsions:
REMARK  status: ('A' for Active; 'I' for Inactive)
REMARK    1  A    between atoms: C_1  and  C_2
REMARK    2  A    between atoms: C_1  and  C_10
REMARK    3  A    between atoms: C_2  and  N_4
REMARK    4  A    between atoms: C_5  and  O_7
REMARK    5  A    between atoms: O_7  and  C_8
REMARK    6  A    between atoms: C_10  and  N_12
REMARK    7  A    between atoms: C_13  and  O_15
REMARK    8  A    between atoms: O_15  and  C_16
REMARK                            x       y       z     vdW  Elec       q    Type
REMARK                         _______ _______ _______ _____ _____    ______ ____
ROOT
ATOM      1  C   UNL     1      34.676 -23.850 -14.736  0.00  0.00    +0.043 C 
ENDROOT
BRANCH   1   2
ATOM      2  C   UNL     1      33.793 -23.118 -15.744  0.00  0.00    +0.094 C 
BRANCH   2   4
ATOM      3  O   UNL     1      32.479 -22.436 -18.243  0.00  0.00    -0.226 OA
ATOM      4  N   UNL     1      34.367 -23.091 -17.062  0.00  0.00    -0.271 N 
ATOM      5  C   UNL     1      33.664 -22.752 -18.204  0.00  0.00    +0.402 C 
ATOM      6  H   UNL     1      35.317 -23.327 -17.158  0.00  0.00    +0.153 HD
BRANCH   5   7
ATOM      7  O   UNL     1      34.484 -22.821 -19.294  0.00  0.00    -0.435 OA
BRANCH   7   8
ATOM      8  C   UNL     1      35.435 -21.759 -19.428  0.00  0.00    +0.210 C 
ATOM      9  C   UNL     1      34.808 -20.633 -20.224  0.00  0.00    +0.051 C 
ENDBRANCH   7   8
ENDBRANCH   5   7
ENDBRANCH   2   4
ENDBRANCH   1   2
BRANCH   1  10
ATOM     10  C   UNL     1      35.008 -25.286 -15.135  0.00  0.00    +0.094 C 
BRANCH  10  12
ATOM     11  O   UNL     1      36.770 -27.329 -16.211  0.00  0.00    -0.226 OA
ATOM     12  N   UNL     1      36.270 -25.728 -14.606  0.00  0.00    -0.271 N 
ATOM     13  C   UNL     1      37.048 -26.713 -15.188  0.00  0.00    +0.402 C 
ATOM     14  H   UNL     1      36.600 -25.305 -13.782  0.00  0.00    +0.153 HD
BRANCH  13  15
ATOM     15  O   UNL     1      38.183 -26.905 -14.451  0.00  0.00    -0.435 OA
BRANCH  15  16
ATOM     16  C   UNL     1      38.916 -25.722 -14.115  0.00  0.00    +0.210 C 
ATOM     17  C   UNL     1      40.117 -25.610 -15.029  0.00  0.00    +0.051 C 
ENDBRANCH  15  16
ENDBRANCH  13  15
ENDBRANCH  10  12
ENDBRANCH   1  10
TORSDOF 8
ENDMDL
MODEL 3
REMARK VINA RESULT:      -6.2      2.014      6.024
REMARK  Name = 295941
REMARK  8 active torsions:
REMARK  status: ('A' for Active; 'I' for Inactive)
REMARK    1  A    between atoms: C_1  and  C_2
REMARK    2  A    between atoms: C_1  and  C_10
REMARK    3  A    between atoms: C_2  and  N_4
REMARK    4  A    between atoms: C_5  and  O_7
REMARK    5  A    between atoms: O_7  and  C_8
REMARK    6  A    between atoms: C_10  and  N_12
REMARK    7  A    between atoms: C_13  and  O_15
REMARK    8  A    between atoms: O_15  and  C_16
REMARK                            x       y       z     vdW  Elec       q    Type
REMARK                         _______ _______ _______ _____ _____    ______ ____
ROOT
ATOM      1  C   UNL     1      34.539 -18.383 -24.328  0.00  0.00    +0.043 C 
ENDROOT
BRANCH   1   2
ATOM      2  C   UNL     1      34.647 -17.191 -25.276  0.00  0.00    +0.094 C 
BRANCH   2   4
ATOM      3  O   UNL     1      33.525 -15.044 -26.880  0.00  0.00    -0.226 OA
ATOM      4  N   UNL     1      33.889 -16.056 -24.823  0.00  0.00    -0.271 N 
ATOM      5  C   UNL     1      33.390 -15.075 -25.661  0.00  0.00    +0.402 C 
ATOM      6  H   UNL     1      33.715 -15.971 -23.858  0.00  0.00    +0.153 HD
BRANCH   5   7
ATOM      7  O   UNL     1      32.719 -14.135 -24.931  0.00  0.00    -0.435 OA
BRANCH   7   8
ATOM      8  C   UNL     1      33.507 -13.393 -23.993  0.00  0.00    +0.210 C 
ATOM      9  C   UNL     1      33.844 -12.043 -24.592  0.00  0.00    +0.051 C 
ENDBRANCH   7   8
ENDBRANCH   5   7
ENDBRANCH   2   4
ENDBRANCH   1   2
BRANCH   1  10
ATOM     10  C   UNL     1      35.707 -18.501 -23.351  0.00  0.00    +0.094 C 
BRANCH  10  12
ATOM     11  O   UNL     1      34.171 -18.561 -20.886  0.00  0.00    -0.226 OA
ATOM     12  N   UNL     1      35.663 -17.504 -22.316  0.00  0.00    -0.271 N 
ATOM     13  C   UNL     1      34.899 -17.616 -21.167  0.00  0.00    +0.402 C 
ATOM     14  H   UNL     1      36.210 -16.694 -22.431  0.00  0.00    +0.153 HD
BRANCH  13  15
ATOM     15  O   UNL     1      35.073 -16.509 -20.384  0.00  0.00    -0.435 OA
BRANCH  15  16
ATOM     16  C   UNL     1      34.521 -15.290 -20.894  0.00  0.00    +0.210 C 
ATOM     17  C   UNL     1      33.037 -15.258 -20.597  0.00  0.00    +0.051 C 
ENDBRANCH  15  16
ENDBRANCH  13  15
ENDBRANCH  10  12
ENDBRANCH   1  10
TORSDOF 8
ENDMDL
MODEL 4
REMARK VINA RESULT:      -6.2      2.632      7.336
REMARK  Name = 295941
REMARK  8 active torsions:
REMARK  status: ('A' for Active; 'I' for Inactive)
REMARK    1  A    between atoms: C_1  and  C_2
REMARK    2  A    between atoms: C_1  and  C_10
REMARK    3  A    between atoms: C_2  and  N_4
REMARK    4  A    between atoms: C_5  and  O_7
REMARK    5  A    between atoms: O_7  and  C_8
REMARK    6  A    between atoms: C_10  and  N_12
REMARK    7  A    between atoms: C_13  and  O_15
REMARK    8  A    between atoms: O_15  and  C_16
REMARK                            x       y       z     vdW  Elec       q    Type
REMARK                         _______ _______ _______ _____ _____    ______ ____
ROOT
ATOM      1  C   UNL     1      34.717 -19.420 -22.178  0.00  0.00    +0.043 C 
ENDROOT
BRANCH   1   2
ATOM      2  C   UNL     1      35.862 -18.418 -22.045  0.00  0.00    +0.094 C 
BRANCH   2   4
ATOM      3  O   UNL     1      34.454 -15.964 -21.382  0.00  0.00    -0.226 OA
ATOM      4  N   UNL     1      35.677 -17.257 -22.873  0.00  0.00    -0.271 N 
ATOM      5  C   UNL     1      34.989 -16.125 -22.475  0.00  0.00    +0.402 C 
ATOM      6  H   UNL     1      36.065 -17.268 -23.777  0.00  0.00    +0.153 HD
BRANCH   5   7
ATOM      7  O   UNL     1      34.988 -15.201 -23.482  0.00  0.00    -0.435 OA
BRANCH   7   8
ATOM      8  C   UNL     1      33.748 -15.038 -24.179  0.00  0.00    +0.210 C 
ATOM      9  C   UNL     1      33.774 -15.882 -25.435  0.00  0.00    +0.051 C 
ENDBRANCH   7   8
ENDBRANCH   5   7
ENDBRANCH   2   4
ENDBRANCH   1   2
BRANCH   1  10
ATOM     10  C   UNL     1      33.989 -19.703 -20.866  0.00  0.00    +0.094 C 
BRANCH  10  12
ATOM     11  O   UNL     1      33.078 -22.170 -19.633  0.00  0.00    -0.226 OA
ATOM     12  N   UNL     1      34.730 -20.581 -20.002  0.00  0.00    -0.271 N 
ATOM     13  C   UNL     1      34.213 -21.743 -19.456  0.00  0.00    +0.402 C 
ATOM     14  H   UNL     1      35.660 -20.342 -19.786  0.00  0.00    +0.153 HD
BRANCH  13  15
ATOM     15  O   UNL     1      35.160 -22.354 -18.683  0.00  0.00    -0.435 OA
BRANCH  15  16
ATOM     16  C   UNL     1      36.410 -21.664 -18.564  0.00  0.00    +0.210 C 
ATOM     17  C   UNL     1      36.945 -21.851 -17.161  0.00  0.00    +0.051 C 
ENDBRANCH  15  16
ENDBRANCH  13  15
ENDBRANCH  10  12
ENDBRANCH   1  10
TORSDOF 8
ENDMDL
MODEL 5
REMARK VINA RESULT:      -6.2      2.142      7.268
REMARK  Name = 295941
REMARK  8 active torsions:
REMARK  status: ('A' for Active; 'I' for Inactive)
REMARK    1  A    between atoms: C_1  and  C_2
REMARK    2  A    between atoms: C_1  and  C_10
REMARK    3  A    between atoms: C_2  and  N_4
REMARK    4  A    between atoms: C_5  and  O_7
REMARK    5  A    between atoms: O_7  and  C_8
REMARK    6  A    between atoms: C_10  and  N_12
REMARK    7  A    between atoms: C_13  and  O_15
REMARK    8  A    between atoms: O_15  and  C_16
REMARK                            x       y       z     vdW  Elec       q    Type
REMARK                         _______ _______ _______ _____ _____    ______ ____
ROOT
ATOM      1  C   UNL     1      34.696 -18.926 -22.403  0.00  0.00    +0.043 C 
ENDROOT
BRANCH   1   2
ATOM      2  C   UNL     1      35.840 -18.225 -23.131  0.00  0.00    +0.094 C 
BRANCH   2   4
ATOM      3  O   UNL     1      34.320 -18.564 -25.583  0.00  0.00    -0.226 OA
ATOM      4  N   UNL     1      35.378 -17.202 -24.029  0.00  0.00    -0.271 N 
ATOM      5  C   UNL     1      34.656 -17.455 -25.182  0.00  0.00    +0.402 C 
ATOM      6  H   UNL     1      35.587 -16.266 -23.811  0.00  0.00    +0.153 HD
BRANCH   5   7
ATOM      7  O   UNL     1      34.367 -16.280 -25.817  0.00  0.00    -0.435 OA
BRANCH   7   8
ATOM      8  C   UNL     1      33.522 -15.373 -25.100  0.00  0.00    +0.210 C 
ATOM      9  C   UNL     1      32.907 -14.395 -26.078  0.00  0.00    +0.051 C 
ENDBRANCH   7   8
ENDBRANCH   5   7
ENDBRANCH   2   4
ENDBRANCH   1   2
BRANCH   1  10
ATOM     10  C   UNL     1      34.952 -19.140 -20.912  0.00  0.00    +0.094 C 
BRANCH  10  12
ATOM     11  O   UNL     1      32.227 -19.864 -20.214  0.00  0.00    -0.226 OA
ATOM     12  N   UNL     1      34.470 -20.413 -20.447  0.00  0.00    -0.271 N 
ATOM     13  C   UNL     1      33.147 -20.671 -20.136  0.00  0.00    +0.402 C 
ATOM     14  H   UNL     1      35.121 -21.144 -20.344  0.00  0.00    +0.153 HD
BRANCH  13  15
ATOM     15  O   UNL     1      33.011 -21.967 -19.724  0.00  0.00    -0.435 OA
BRANCH  15  16
ATOM     16  C   UNL     1      34.003 -22.438 -18.805  0.00  0.00    +0.210 C 
ATOM     17  C   UNL     1      33.313 -23.098 -17.631  0.00  0.00    +0.051 C 
ENDBRANCH  15  16
ENDBRANCH  13  15
ENDBRANCH  10  12
ENDBRANCH   1  10
TORSDOF 8
ENDMDL
MODEL 6
REMARK VINA RESULT:      -6.2      2.275      3.042
REMARK  Name = 295941
REMARK  8 active torsions:
REMARK  status: ('A' for Active; 'I' for Inactive)
REMARK    1  A    between atoms: C_1  and  C_2
REMARK    2  A    between atoms: C_1  and  C_10
REMARK    3  A    between atoms: C_2  and  N_4
REMARK    4  A    between atoms: C_5  and  O_7
REMARK    5  A    between atoms: O_7  and  C_8
REMARK    6  A    between atoms: C_10  and  N_12
REMARK    7  A    between atoms: C_13  and  O_15
REMARK    8  A    between atoms: O_15  and  C_16
REMARK                            x       y       z     vdW  Elec       q    Type
REMARK                         _______ _______ _______ _____ _____    ______ ____
ROOT
ATOM      1  C   UNL     1      34.800 -19.384 -22.601  0.00  0.00    +0.043 C 
ENDROOT
BRANCH   1   2
ATOM      2  C   UNL     1      35.000 -19.358 -21.088  0.00  0.00    +0.094 C 
BRANCH   2   4
ATOM      3  O   UNL     1      32.243 -19.856 -20.318  0.00  0.00    -0.226 OA
ATOM      4  N   UNL     1      34.463 -20.524 -20.440  0.00  0.00    -0.271 N 
ATOM      5  C   UNL     1      33.129 -20.678 -20.108  0.00  0.00    +0.402 C 
ATOM      6  H   UNL     1      35.082 -21.257 -20.221  0.00  0.00    +0.153 HD
BRANCH   5   7
ATOM      7  O   UNL     1      32.936 -21.889 -19.506  0.00  0.00    -0.435 OA
BRANCH   7   8
ATOM      8  C   UNL     1      34.061 -22.421 -18.798  0.00  0.00    +0.210 C 
ATOM      9  C   UNL     1      33.568 -23.151 -17.566  0.00  0.00    +0.051 C 
ENDBRANCH   7   8
ENDBRANCH   5   7
ENDBRANCH   2   4
ENDBRANCH   1   2
BRANCH   1  10
ATOM     10  C   UNL     1      35.573 -18.296 -23.345  0.00  0.00    +0.094 C 
BRANCH  10  12
ATOM     11  O   UNL     1      34.759 -17.061 -25.844  0.00  0.00    -0.226 OA
ATOM     12  N   UNL     1      34.802 -17.096 -23.524  0.00  0.00    -0.271 N 
ATOM     13  C   UNL     1      34.458 -16.577 -24.759  0.00  0.00    +0.402 C 
ATOM     14  H   UNL     1      34.501 -16.615 -22.720  0.00  0.00    +0.153 HD
BRANCH  13  15
ATOM     15  O   UNL     1      33.727 -15.434 -24.596  0.00  0.00    -0.435 OA
BRANCH  15  16
ATOM     16  C   UNL     1      34.099 -14.608 -23.486  0.00  0.00    +0.210 C 
ATOM     17  C   UNL     1      32.863 -13.922 -22.946  0.00  0.00    +0.051 C 
ENDBRANCH  15  16
ENDBRANCH  13  15
ENDBRANCH  10  12
ENDBRANCH   1  10
TORSDOF 8
ENDMDL
MODEL 7
REMARK VINA RESULT:      -6.2      2.704      4.066
REMARK  Name = 295941
REMARK  8 active torsions:
REMARK  status: ('A' for Active; 'I' for Inactive)
REMARK    1  A    between atoms: C_1  and  C_2
REMARK    2  A    between atoms: C_1  and  C_10
REMARK    3  A    between atoms: C_2  and  N_4
REMARK    4  A    between atoms: C_5  and  O_7
REMARK    5  A    between atoms: O_7  and  C_8
REMARK    6  A    between atoms: C_10  and  N_12
REMARK    7  A    between atoms: C_13  and  O_15
REMARK    8  A    between atoms: O_15  and  C_16
REMARK                            x       y       z     vdW  Elec       q    Type
REMARK                         _______ _______ _______ _____ _____    ______ ____
ROOT
ATOM      1  C   UNL     1      34.583 -19.358 -22.246  0.00  0.00    +0.043 C 
ENDROOT
BRANCH   1   2
ATOM      2  C   UNL     1      33.919 -19.714 -20.918  0.00  0.00    +0.094 C 
BRANCH   2   4
ATOM      3  O   UNL     1      33.010 -22.058 -19.463  0.00  0.00    -0.226 OA
ATOM      4  N   UNL     1      34.708 -20.625 -20.134  0.00  0.00    -0.271 N 
ATOM      5  C   UNL     1      34.189 -21.722 -19.470  0.00  0.00    +0.402 C 
ATOM      6  H   UNL     1      35.675 -20.458 -20.065  0.00  0.00    +0.153 HD
BRANCH   5   7
ATOM      7  O   UNL     1      35.189 -22.386 -18.816  0.00  0.00    -0.435 OA
BRANCH   7   8
ATOM      8  C   UNL     1      36.391 -21.641 -18.592  0.00  0.00    +0.210 C 
ATOM      9  C   UNL     1      36.876 -21.902 -17.181  0.00  0.00    +0.051 C 
ENDBRANCH   7   8
ENDBRANCH   5   7
ENDBRANCH   2   4
ENDBRANCH   1   2
BRANCH   1  10
ATOM     10  C   UNL     1      35.677 -18.299 -22.125  0.00  0.00    +0.094 C 
BRANCH  10  12
ATOM     11  O   UNL     1      35.008 -16.266 -20.161  0.00  0.00    -0.226 OA
ATOM     12  N   UNL     1      35.188 -16.969 -22.366  0.00  0.00    -0.271 N 
ATOM     13  C   UNL     1      34.894 -16.061 -21.365  0.00  0.00    +0.402 C 
ATOM     14  H   UNL     1      35.054 -16.688 -23.300  0.00  0.00    +0.153 HD
BRANCH  13  15
ATOM     15  O   UNL     1      34.451 -14.890 -21.914  0.00  0.00    -0.435 OA
BRANCH  15  16
ATOM     16  C   UNL     1      34.249 -14.903 -23.332  0.00  0.00    +0.210 C 
ATOM     17  C   UNL     1      33.086 -13.996 -23.672  0.00  0.00    +0.051 C 
ENDBRANCH  15  16
ENDBRANCH  13  15
ENDBRANCH  10  12
ENDBRANCH   1  10
TORSDOF 8
ENDMDL
MODEL 8
REMARK VINA RESULT:      -6.2      8.794     12.067
REMARK  Name = 295941
REMARK  8 active torsions:
REMARK  status: ('A' for Active; 'I' for Inactive)
REMARK    1  A    between atoms: C_1  and  C_2
REMARK    2  A    between atoms: C_1  and  C_10
REMARK    3  A    between atoms: C_2  and  N_4
REMARK    4  A    between atoms: C_5  and  O_7
REMARK    5  A    between atoms: O_7  and  C_8
REMARK    6  A    between atoms: C_10  and  N_12
REMARK    7  A    between atoms: C_13  and  O_15
REMARK    8  A    between atoms: O_15  and  C_16
REMARK                            x       y       z     vdW  Elec       q    Type
REMARK                         _______ _______ _______ _____ _____    ______ ____
ROOT
ATOM      1  C   UNL     1      35.368 -23.516 -15.254  0.00  0.00    +0.043 C 
ENDROOT
BRANCH   1   2
ATOM      2  C   UNL     1      34.673 -23.132 -16.558  0.00  0.00    +0.094 C 
BRANCH   2   4
ATOM      3  O   UNL     1      32.725 -22.319 -18.555  0.00  0.00    -0.226 OA
ATOM      4  N   UNL     1      33.241 -23.104 -16.432  0.00  0.00    -0.271 N 
ATOM      5  C   UNL     1      32.384 -22.700 -17.440  0.00  0.00    +0.402 C 
ATOM      6  H   UNL     1      32.846 -23.391 -15.577  0.00  0.00    +0.153 HD
BRANCH   5   7
ATOM      7  O   UNL     1      31.089 -22.786 -17.013  0.00  0.00    -0.435 OA
BRANCH   7   8
ATOM      8  C   UNL     1      30.867 -23.588 -15.848  0.00  0.00    +0.210 C 
ATOM      9  C   UNL     1      29.956 -22.838 -14.899  0.00  0.00    +0.051 C 
ENDBRANCH   7   8
ENDBRANCH   5   7
ENDBRANCH   2   4
ENDBRANCH   1   2
BRANCH   1  10
ATOM     10  C   UNL     1      35.295 -25.007 -14.932  0.00  0.00    +0.094 C 
BRANCH  10  12
ATOM     11  O   UNL     1      36.682 -27.265 -16.121  0.00  0.00    -0.226 OA
ATOM     12  N   UNL     1      36.571 -25.553 -14.557  0.00  0.00    -0.271 N 
ATOM     13  C   UNL     1      37.160 -26.638 -15.183  0.00  0.00    +0.402 C 
ATOM     14  H   UNL     1      37.054 -25.131 -13.811  0.00  0.00    +0.153 HD
BRANCH  13  15
ATOM     15  O   UNL     1      38.365 -26.913 -14.598  0.00  0.00    -0.435 OA
BRANCH  15  16
ATOM     16  C   UNL     1      39.056 -25.793 -14.034  0.00  0.00    +0.210 C 
ATOM     17  C   UNL     1      40.201 -25.409 -14.947  0.00  0.00    +0.051 C 
ENDBRANCH  15  16
ENDBRANCH  13  15
ENDBRANCH  10  12
ENDBRANCH   1  10
TORSDOF 8
ENDMDL
MODEL 9
REMARK VINA RESULT:      -6.2      2.378      6.459
REMARK  Name = 295941
REMARK  8 active torsions:
REMARK  status: ('A' for Active; 'I' for Inactive)
REMARK    1  A    between atoms: C_1  and  C_2
REMARK    2  A    between atoms: C_1  and  C_10
REMARK    3  A    between atoms: C_2  and  N_4
REMARK    4  A    between atoms: C_5  and  O_7
REMARK    5  A    between atoms: O_7  and  C_8
REMARK    6  A    between atoms: C_10  and  N_12
REMARK    7  A    between atoms: C_13  and  O_15
REMARK    8  A    between atoms: O_15  and  C_16
REMARK                            x       y       z     vdW  Elec       q    Type
REMARK                         _______ _______ _______ _____ _____    ______ ____
ROOT
ATOM      1  C   UNL     1      34.944 -18.998 -24.135  0.00  0.00    +0.043 C 
ENDROOT
BRANCH   1   2
ATOM      2  C   UNL     1      34.911 -17.559 -24.644  0.00  0.00    +0.094 C 
BRANCH   2   4
ATOM      3  O   UNL     1      33.587 -14.995 -24.311  0.00  0.00    -0.226 OA
ATOM      4  N   UNL     1      35.105 -16.597 -23.593  0.00  0.00    -0.271 N 
ATOM      5  C   UNL     1      34.427 -15.394 -23.511  0.00  0.00    +0.402 C 
ATOM      6  H   UNL     1      35.758 -16.808 -22.887  0.00  0.00    +0.153 HD
BRANCH   5   7
ATOM      7  O   UNL     1      34.832 -14.705 -22.403  0.00  0.00    -0.435 OA
BRANCH   7   8
ATOM      8  C   UNL     1      34.183 -15.060 -21.176  0.00  0.00    +0.210 C 
ATOM      9  C   UNL     1      32.969 -14.174 -20.987  0.00  0.00    +0.051 C 
ENDBRANCH   7   8
ENDBRANCH   5   7
ENDBRANCH   2   4
ENDBRANCH   1   2
BRANCH   1  10
ATOM     10  C   UNL     1      34.290 -19.183 -22.767  0.00  0.00    +0.094 C 
BRANCH  10  12
ATOM     11  O   UNL     1      35.748 -17.775 -20.687  0.00  0.00    -0.226 OA
ATOM     12  N   UNL     1      35.193 -19.738 -21.795  0.00  0.00    -0.271 N 
ATOM     13  C   UNL     1      35.847 -18.988 -20.834  0.00  0.00    +0.402 C 
ATOM     14  H   UNL     1      35.354 -20.708 -21.814  0.00  0.00    +0.153 HD
BRANCH  13  15
ATOM     15  O   UNL     1      36.630 -19.802 -20.064  0.00  0.00    -0.435 OA
BRANCH  15  16
ATOM     16  C   UNL     1      36.140 -21.133 -19.864  0.00  0.00    +0.210 C 
ATOM     17  C   UNL     1      36.514 -21.592 -18.471  0.00  0.00    +0.051 C 
ENDBRANCH  15  16
ENDBRANCH  13  15
ENDBRANCH  10  12
ENDBRANCH   1  10
TORSDOF 8
ENDMDL
