MODEL 1
REMARK VINA RESULT:      -7.6      0.000      0.000
REMARK  Name = 94532
REMARK  5 active torsions:
REMARK  status: ('A' for Active; 'I' for Inactive)
REMARK    1  A    between atoms: C_1  and  C_2
REMARK    2  A    between atoms: C_1  and  O_8
REMARK    3  A    between atoms: C_1  and  C_10
REMARK    4  A    between atoms: C_10  and  N_12
REMARK    5  A    between atoms: N_12  and  C_15
REMARK                            x       y       z     vdW  Elec       q    Type
REMARK                         _______ _______ _______ _____ _____    ______ ____
ROOT
ATOM      1  C   UNL     1      35.446 -18.132 -21.953  0.00  0.00    +0.114 C 
ENDROOT
BRANCH   1   2
ATOM      2  C   UNL     1      34.940 -19.287 -21.115  0.00  0.00    +0.002 C 
ATOM      3  C   UNL     1      35.852 -20.172 -20.565  0.00  0.00    -0.002 C 
ATOM      4  C   UNL     1      33.579 -19.432 -20.916  0.00  0.00    -0.002 C 
ATOM      5  C   UNL     1      35.386 -21.236 -19.793  0.00  0.00    -0.000 C 
ATOM      6  C   UNL     1      33.114 -20.496 -20.145  0.00  0.00    -0.000 C 
ATOM      7  C   UNL     1      34.017 -21.398 -19.583  0.00  0.00    -0.000 C 
ENDBRANCH   1   2
BRANCH   1   8
ATOM      8  O   UNL     1      36.840 -18.365 -22.178  0.00  0.00    -0.382 OA
ATOM      9  H   UNL     1      37.276 -17.527 -22.397  0.00  0.00    +0.211 HD
ENDBRANCH   1   8
BRANCH   1  10
ATOM     10  C   UNL     1      34.711 -17.975 -23.303  0.00  0.00    -0.026 C 
ATOM     11  C   UNL     1      34.938 -19.165 -24.237  0.00  0.00    -0.020 C 
BRANCH  10  12
ATOM     12  N   UNL     1      35.188 -16.767 -23.985  0.00  0.00    +0.389 N 
ATOM     13  C   UNL     1      34.757 -15.574 -23.260  0.00  0.00    -0.100 C 
ATOM     14  H   UNL     1      36.207 -16.780 -24.006  0.00  0.00    -0.080 HD
BRANCH  12  15
ATOM     15  C   UNL     1      34.699 -16.737 -25.362  0.00  0.00    -0.077 C 
ATOM     16  C   UNL     1      33.653 -15.650 -25.522  0.00  0.00    -0.025 C 
ENDBRANCH  12  15
ENDBRANCH  10  12
ENDBRANCH   1  10
TORSDOF 5
ENDMDL
MODEL 2
REMARK VINA RESULT:      -7.3      0.985      1.230
REMARK  Name = 94532
REMARK  5 active torsions:
REMARK  status: ('A' for Active; 'I' for Inactive)
REMARK    1  A    between atoms: C_1  and  C_2
REMARK    2  A    between atoms: C_1  and  O_8
REMARK    3  A    between atoms: C_1  and  C_10
REMARK    4  A    between atoms: C_10  and  N_12
REMARK    5  A    between atoms: N_12  and  C_15
REMARK                            x       y       z     vdW  Elec       q    Type
REMARK                         _______ _______ _______ _____ _____    ______ ____
ROOT
ATOM      1  C   UNL     1      35.589 -17.887 -21.852  0.00  0.00    +0.114 C 
ENDROOT
BRANCH   1   2
ATOM      2  C   UNL     1      34.995 -19.071 -21.122  0.00  0.00    +0.002 C 
ATOM      3  C   UNL     1      35.840 -20.013 -20.561  0.00  0.00    -0.002 C 
ATOM      4  C   UNL     1      33.619 -19.188 -21.029  0.00  0.00    -0.002 C 
ATOM      5  C   UNL     1      35.293 -21.105 -19.887  0.00  0.00    -0.000 C 
ATOM      6  C   UNL     1      33.072 -20.279 -20.356  0.00  0.00    -0.000 C 
ATOM      7  C   UNL     1      33.909 -21.238 -19.785  0.00  0.00    -0.000 C 
ENDBRANCH   1   2
BRANCH   1   8
ATOM      8  O   UNL     1      36.786 -18.351 -22.484  0.00  0.00    -0.382 OA
ATOM      9  H   UNL     1      36.555 -18.933 -23.225  0.00  0.00    +0.211 HD
ENDBRANCH   1   8
BRANCH   1  10
ATOM     10  C   UNL     1      34.642 -17.265 -22.903  0.00  0.00    -0.026 C 
ATOM     11  C   UNL     1      34.942 -17.750 -24.323  0.00  0.00    -0.020 C 
BRANCH  10  12
ATOM     12  N   UNL     1      34.778 -15.804 -22.885  0.00  0.00    +0.389 N 
ATOM     13  C   UNL     1      34.510 -15.289 -21.545  0.00  0.00    -0.100 C 
ATOM     14  H   UNL     1      35.734 -15.559 -23.138  0.00  0.00    -0.080 HD
BRANCH  12  15
ATOM     15  C   UNL     1      33.873 -15.200 -23.859  0.00  0.00    -0.077 C 
ATOM     16  C   UNL     1      33.839 -13.695 -23.678  0.00  0.00    -0.025 C 
ENDBRANCH  12  15
ENDBRANCH  10  12
ENDBRANCH   1  10
TORSDOF 5
ENDMDL
MODEL 3
REMARK VINA RESULT:      -7.3      1.480      2.119
REMARK  Name = 94532
REMARK  5 active torsions:
REMARK  status: ('A' for Active; 'I' for Inactive)
REMARK    1  A    between atoms: C_1  and  C_2
REMARK    2  A    between atoms: C_1  and  O_8
REMARK    3  A    between atoms: C_1  and  C_10
REMARK    4  A    between atoms: C_10  and  N_12
REMARK    5  A    between atoms: N_12  and  C_15
REMARK                            x       y       z     vdW  Elec       q    Type
REMARK                         _______ _______ _______ _____ _____    ______ ____
ROOT
ATOM      1  C   UNL     1      34.090 -18.631 -21.514  0.00  0.00    +0.114 C 
ENDROOT
BRANCH   1   2
ATOM      2  C   UNL     1      34.377 -19.863 -20.681  0.00  0.00    +0.002 C 
ATOM      3  C   UNL     1      35.689 -20.265 -20.501  0.00  0.00    -0.002 C 
ATOM      4  C   UNL     1      33.321 -20.559 -20.119  0.00  0.00    -0.002 C 
ATOM      5  C   UNL     1      35.953 -21.400 -19.734  0.00  0.00    -0.000 C 
ATOM      6  C   UNL     1      33.586 -21.693 -19.353  0.00  0.00    -0.000 C 
ATOM      7  C   UNL     1      34.902 -22.114 -19.160  0.00  0.00    -0.000 C 
ENDBRANCH   1   2
BRANCH   1   8
ATOM      8  O   UNL     1      32.900 -18.042 -20.982  0.00  0.00    -0.382 OA
ATOM      9  H   UNL     1      33.112 -17.573 -20.159  0.00  0.00    +0.211 HD
ENDBRANCH   1   8
BRANCH   1  10
ATOM     10  C   UNL     1      35.240 -17.598 -21.510  0.00  0.00    -0.026 C 
ATOM     11  C   UNL     1      34.851 -16.290 -20.819  0.00  0.00    -0.020 C 
BRANCH  10  12
ATOM     12  N   UNL     1      35.622 -17.284 -22.892  0.00  0.00    +0.389 N 
ATOM     13  C   UNL     1      35.027 -16.016 -23.305  0.00  0.00    -0.100 C 
ATOM     14  H   UNL     1      36.636 -17.194 -22.941  0.00  0.00    -0.080 HD
BRANCH  12  15
ATOM     15  C   UNL     1      35.211 -18.362 -23.787  0.00  0.00    -0.077 C 
ATOM     16  C   UNL     1      34.584 -17.788 -25.044  0.00  0.00    -0.025 C 
ENDBRANCH  12  15
ENDBRANCH  10  12
ENDBRANCH   1  10
TORSDOF 5
ENDMDL
MODEL 4
REMARK VINA RESULT:      -7.0      1.850      5.505
REMARK  Name = 94532
REMARK  5 active torsions:
REMARK  status: ('A' for Active; 'I' for Inactive)
REMARK    1  A    between atoms: C_1  and  C_2
REMARK    2  A    between atoms: C_1  and  O_8
REMARK    3  A    between atoms: C_1  and  C_10
REMARK    4  A    between atoms: C_10  and  N_12
REMARK    5  A    between atoms: N_12  and  C_15
REMARK                            x       y       z     vdW  Elec       q    Type
REMARK                         _______ _______ _______ _____ _____    ______ ____
ROOT
ATOM      1  C   UNL     1      35.559 -18.837 -21.487  0.00  0.00    +0.114 C 
ENDROOT
BRANCH   1   2
ATOM      2  C   UNL     1      35.188 -18.171 -22.795  0.00  0.00    +0.002 C 
ATOM      3  C   UNL     1      35.177 -16.789 -22.869  0.00  0.00    -0.002 C 
ATOM      4  C   UNL     1      34.871 -18.958 -23.888  0.00  0.00    -0.002 C 
ATOM      5  C   UNL     1      34.835 -16.175 -24.074  0.00  0.00    -0.000 C 
ATOM      6  C   UNL     1      34.530 -18.344 -25.092  0.00  0.00    -0.000 C 
ATOM      7  C   UNL     1      34.512 -16.952 -25.185  0.00  0.00    -0.000 C 
ENDBRANCH   1   2
BRANCH   1   8
ATOM      8  O   UNL     1      35.551 -17.814 -20.487  0.00  0.00    -0.382 OA
ATOM      9  H   UNL     1      34.848 -17.997 -19.843  0.00  0.00    +0.211 HD
ENDBRANCH   1   8
BRANCH   1  10
ATOM     10  C   UNL     1      34.603 -19.982 -21.080  0.00  0.00    -0.026 C 
ATOM     11  C   UNL     1      33.168 -19.500 -20.862  0.00  0.00    -0.020 C 
BRANCH  10  12
ATOM     12  N   UNL     1      35.071 -20.592 -19.830  0.00  0.00    +0.389 N 
ATOM     13  C   UNL     1      36.393 -21.183 -20.020  0.00  0.00    -0.100 C 
ATOM     14  H   UNL     1      35.142 -19.869 -19.116  0.00  0.00    -0.080 HD
BRANCH  12  15
ATOM     15  C   UNL     1      34.118 -21.600 -19.372  0.00  0.00    -0.077 C 
ATOM     16  C   UNL     1      34.734 -22.440 -18.269  0.00  0.00    -0.025 C 
ENDBRANCH  12  15
ENDBRANCH  10  12
ENDBRANCH   1  10
TORSDOF 5
ENDMDL
MODEL 5
REMARK VINA RESULT:      -6.8      2.318      3.735
REMARK  Name = 94532
REMARK  5 active torsions:
REMARK  status: ('A' for Active; 'I' for Inactive)
REMARK    1  A    between atoms: C_1  and  C_2
REMARK    2  A    between atoms: C_1  and  O_8
REMARK    3  A    between atoms: C_1  and  C_10
REMARK    4  A    between atoms: C_10  and  N_12
REMARK    5  A    between atoms: N_12  and  C_15
REMARK                            x       y       z     vdW  Elec       q    Type
REMARK                         _______ _______ _______ _____ _____    ______ ____
ROOT
ATOM      1  C   UNL     1      34.769 -16.047 -24.599  0.00  0.00    +0.114 C 
ENDROOT
BRANCH   1   2
ATOM      2  C   UNL     1      34.834 -17.064 -23.480  0.00  0.00    +0.002 C 
ATOM      3  C   UNL     1      34.972 -16.624 -22.175  0.00  0.00    -0.002 C 
ATOM      4  C   UNL     1      34.755 -18.411 -23.785  0.00  0.00    -0.002 C 
ATOM      5  C   UNL     1      35.032 -17.560 -21.143  0.00  0.00    -0.000 C 
ATOM      6  C   UNL     1      34.815 -19.348 -22.753  0.00  0.00    -0.000 C 
ATOM      7  C   UNL     1      34.954 -18.922 -21.432  0.00  0.00    -0.000 C 
ENDBRANCH   1   2
BRANCH   1   8
ATOM      8  O   UNL     1      34.870 -16.777 -25.826  0.00  0.00    -0.382 OA
ATOM      9  H   UNL     1      34.384 -16.307 -26.522  0.00  0.00    +0.211 HD
ENDBRANCH   1   8
BRANCH   1  10
ATOM     10  C   UNL     1      33.477 -15.199 -24.593  0.00  0.00    -0.026 C 
ATOM     11  C   UNL     1      32.967 -14.896 -26.003  0.00  0.00    -0.020 C 
BRANCH  10  12
ATOM     12  N   UNL     1      33.733 -13.920 -23.920  0.00  0.00    +0.389 N 
ATOM     13  C   UNL     1      32.742 -13.695 -22.870  0.00  0.00    -0.100 C 
ATOM     14  H   UNL     1      34.656 -13.952 -23.489  0.00  0.00    -0.080 HD
BRANCH  12  15
ATOM     15  C   UNL     1      33.714 -12.827 -24.888  0.00  0.00    -0.077 C 
ATOM     16  C   UNL     1      33.728 -11.491 -24.169  0.00  0.00    -0.025 C 
ENDBRANCH  12  15
ENDBRANCH  10  12
ENDBRANCH   1  10
TORSDOF 5
ENDMDL
MODEL 6
REMARK VINA RESULT:      -6.8      1.765      5.270
REMARK  Name = 94532
REMARK  5 active torsions:
REMARK  status: ('A' for Active; 'I' for Inactive)
REMARK    1  A    between atoms: C_1  and  C_2
REMARK    2  A    between atoms: C_1  and  O_8
REMARK    3  A    between atoms: C_1  and  C_10
REMARK    4  A    between atoms: C_10  and  N_12
REMARK    5  A    between atoms: N_12  and  C_15
REMARK                            x       y       z     vdW  Elec       q    Type
REMARK                         _______ _______ _______ _____ _____    ______ ____
ROOT
ATOM      1  C   UNL     1      35.251 -18.291 -22.314  0.00  0.00    +0.114 C 
ENDROOT
BRANCH   1   2
ATOM      2  C   UNL     1      34.881 -16.827 -22.203  0.00  0.00    +0.002 C 
ATOM      3  C   UNL     1      34.727 -16.080 -23.358  0.00  0.00    -0.002 C 
ATOM      4  C   UNL     1      34.704 -16.268 -20.950  0.00  0.00    -0.002 C 
ATOM      5  C   UNL     1      34.386 -14.731 -23.256  0.00  0.00    -0.000 C 
ATOM      6  C   UNL     1      34.363 -14.920 -20.848  0.00  0.00    -0.000 C 
ATOM      7  C   UNL     1      34.204 -14.151 -22.002  0.00  0.00    -0.000 C 
ENDBRANCH   1   2
BRANCH   1   8
ATOM      8  O   UNL     1      36.506 -18.348 -23.000  0.00  0.00    -0.382 OA
ATOM      9  H   UNL     1      36.899 -17.461 -23.028  0.00  0.00    +0.211 HD
ENDBRANCH   1   8
BRANCH   1  10
ATOM     10  C   UNL     1      35.360 -19.009 -20.950  0.00  0.00    -0.026 C 
ATOM     11  C   UNL     1      36.781 -19.489 -20.651  0.00  0.00    -0.020 C 
BRANCH  10  12
ATOM     12  N   UNL     1      34.474 -20.179 -20.940  0.00  0.00    +0.389 N 
ATOM     13  C   UNL     1      33.083 -19.759 -20.791  0.00  0.00    -0.100 C 
ATOM     14  H   UNL     1      34.568 -20.673 -21.827  0.00  0.00    -0.080 HD
BRANCH  12  15
ATOM     15  C   UNL     1      34.855 -21.091 -19.863  0.00  0.00    -0.077 C 
ATOM     16  C   UNL     1      33.624 -21.772 -19.296  0.00  0.00    -0.025 C 
ENDBRANCH  12  15
ENDBRANCH  10  12
ENDBRANCH   1  10
TORSDOF 5
ENDMDL
MODEL 7
REMARK VINA RESULT:      -6.6      2.819      4.375
REMARK  Name = 94532
REMARK  5 active torsions:
REMARK  status: ('A' for Active; 'I' for Inactive)
REMARK    1  A    between atoms: C_1  and  C_2
REMARK    2  A    between atoms: C_1  and  O_8
REMARK    3  A    between atoms: C_1  and  C_10
REMARK    4  A    between atoms: C_10  and  N_12
REMARK    5  A    between atoms: N_12  and  C_15
REMARK                            x       y       z     vdW  Elec       q    Type
REMARK                         _______ _______ _______ _____ _____    ______ ____
ROOT
ATOM      1  C   UNL     1      34.326 -21.791 -19.887  0.00  0.00    +0.114 C 
ENDROOT
BRANCH   1   2
ATOM      2  C   UNL     1      34.988 -22.094 -18.560  0.00  0.00    +0.002 C 
ATOM      3  C   UNL     1      34.276 -22.784 -17.593  0.00  0.00    -0.002 C 
ATOM      4  C   UNL     1      36.289 -21.677 -18.341  0.00  0.00    -0.002 C 
ATOM      5  C   UNL     1      34.885 -23.063 -16.369  0.00  0.00    -0.000 C 
ATOM      6  C   UNL     1      36.897 -21.956 -17.119  0.00  0.00    -0.000 C 
ATOM      7  C   UNL     1      36.195 -22.650 -16.132  0.00  0.00    -0.000 C 
ENDBRANCH   1   2
BRANCH   1   8
ATOM      8  O   UNL     1      32.999 -22.321 -19.817  0.00  0.00    -0.382 OA
ATOM      9  H   UNL     1      32.431 -21.851 -20.448  0.00  0.00    +0.211 HD
ENDBRANCH   1   8
BRANCH   1  10
ATOM     10  C   UNL     1      34.278 -20.284 -20.227  0.00  0.00    -0.026 C 
ATOM     11  C   UNL     1      32.879 -19.819 -20.636  0.00  0.00    -0.020 C 
BRANCH  10  12
ATOM     12  N   UNL     1      35.192 -20.001 -21.339  0.00  0.00    +0.389 N 
ATOM     13  C   UNL     1      36.286 -19.144 -20.889  0.00  0.00    -0.100 C 
ATOM     14  H   UNL     1      35.589 -20.879 -21.672  0.00  0.00    -0.080 HD
BRANCH  12  15
ATOM     15  C   UNL     1      34.468 -19.376 -22.442  0.00  0.00    -0.077 C 
ATOM     16  C   UNL     1      35.377 -18.417 -23.188  0.00  0.00    -0.025 C 
ENDBRANCH  12  15
ENDBRANCH  10  12
ENDBRANCH   1  10
TORSDOF 5
ENDMDL
MODEL 8
REMARK VINA RESULT:      -6.5      4.524      7.798
REMARK  Name = 94532
REMARK  5 active torsions:
REMARK  status: ('A' for Active; 'I' for Inactive)
REMARK    1  A    between atoms: C_1  and  C_2
REMARK    2  A    between atoms: C_1  and  O_8
REMARK    3  A    between atoms: C_1  and  C_10
REMARK    4  A    between atoms: C_10  and  N_12
REMARK    5  A    between atoms: N_12  and  C_15
REMARK                            x       y       z     vdW  Elec       q    Type
REMARK                         _______ _______ _______ _____ _____    ______ ____
ROOT
ATOM      1  C   UNL     1      33.260 -22.870 -18.542  0.00  0.00    +0.114 C 
ENDROOT
BRANCH   1   2
ATOM      2  C   UNL     1      33.933 -21.771 -19.337  0.00  0.00    +0.002 C 
ATOM      3  C   UNL     1      33.153 -20.806 -19.950  0.00  0.00    -0.002 C 
ATOM      4  C   UNL     1      35.313 -21.755 -19.434  0.00  0.00    -0.002 C 
ATOM      5  C   UNL     1      33.773 -19.794 -20.683  0.00  0.00    -0.000 C 
ATOM      6  C   UNL     1      35.933 -20.743 -20.166  0.00  0.00    -0.000 C 
ATOM      7  C   UNL     1      35.162 -19.762 -20.791  0.00  0.00    -0.000 C 
ENDBRANCH   1   2
BRANCH   1   8
ATOM      8  O   UNL     1      33.821 -24.107 -18.992  0.00  0.00    -0.382 OA
ATOM      9  H   UNL     1      33.113 -24.764 -19.093  0.00  0.00    +0.211 HD
ENDBRANCH   1   8
BRANCH   1  10
ATOM     10  C   UNL     1      33.442 -22.731 -17.014  0.00  0.00    -0.026 C 
ATOM     11  C   UNL     1      34.801 -23.247 -16.535  0.00  0.00    -0.020 C 
BRANCH  10  12
ATOM     12  N   UNL     1      32.398 -23.496 -16.323  0.00  0.00    +0.389 N 
ATOM     13  C   UNL     1      31.093 -22.876 -16.535  0.00  0.00    -0.100 C 
ATOM     14  H   UNL     1      32.372 -24.440 -16.707  0.00  0.00    -0.080 HD
BRANCH  12  15
ATOM     15  C   UNL     1      32.699 -23.588 -14.897  0.00  0.00    -0.077 C 
ATOM     16  C   UNL     1      31.589 -22.945 -14.086  0.00  0.00    -0.025 C 
ENDBRANCH  12  15
ENDBRANCH  10  12
ENDBRANCH   1  10
TORSDOF 5
ENDMDL
MODEL 9
REMARK VINA RESULT:      -6.5      1.723      2.782
REMARK  Name = 94532
REMARK  5 active torsions:
REMARK  status: ('A' for Active; 'I' for Inactive)
REMARK    1  A    between atoms: C_1  and  C_2
REMARK    2  A    between atoms: C_1  and  O_8
REMARK    3  A    between atoms: C_1  and  C_10
REMARK    4  A    between atoms: C_10  and  N_12
REMARK    5  A    between atoms: N_12  and  C_15
REMARK                            x       y       z     vdW  Elec       q    Type
REMARK                         _______ _______ _______ _____ _____    ______ ____
ROOT
ATOM      1  C   UNL     1      33.752 -16.479 -21.668  0.00  0.00    +0.114 C 
ENDROOT
BRANCH   1   2
ATOM      2  C   UNL     1      34.364 -17.817 -21.313  0.00  0.00    +0.002 C 
ATOM      3  C   UNL     1      33.532 -18.881 -21.008  0.00  0.00    -0.002 C 
ATOM      4  C   UNL     1      35.741 -17.949 -21.301  0.00  0.00    -0.002 C 
ATOM      5  C   UNL     1      34.096 -20.114 -20.681  0.00  0.00    -0.000 C 
ATOM      6  C   UNL     1      36.305 -19.181 -20.974  0.00  0.00    -0.000 C 
ATOM      7  C   UNL     1      35.482 -20.264 -20.664  0.00  0.00    -0.000 C 
ENDBRANCH   1   2
BRANCH   1   8
ATOM      8  O   UNL     1      33.774 -15.687 -20.477  0.00  0.00    -0.382 OA
ATOM      9  H   UNL     1      32.888 -15.673 -20.082  0.00  0.00    +0.211 HD
ENDBRANCH   1   8
BRANCH   1  10
ATOM     10  C   UNL     1      34.489 -15.742 -22.809  0.00  0.00    -0.026 C 
ATOM     11  C   UNL     1      34.438 -14.221 -22.653  0.00  0.00    -0.020 C 
BRANCH  10  12
ATOM     12  N   UNL     1      33.873 -16.087 -24.095  0.00  0.00    +0.389 N 
ATOM     13  C   UNL     1      34.818 -16.831 -24.924  0.00  0.00    -0.100 C 
ATOM     14  H   UNL     1      33.061 -16.678 -23.925  0.00  0.00    -0.080 HD
BRANCH  12  15
ATOM     15  C   UNL     1      33.427 -14.877 -24.782  0.00  0.00    -0.077 C 
ATOM     16  C   UNL     1      33.058 -15.198 -26.218  0.00  0.00    -0.025 C 
ENDBRANCH  12  15
ENDBRANCH  10  12
ENDBRANCH   1  10
TORSDOF 5
ENDMDL
