MODEL 1
REMARK VINA RESULT:      -5.1      0.000      0.000
REMARK  Name = 447030
REMARK  5 active torsions:
REMARK  status: ('A' for Active; 'I' for Inactive)
REMARK    1  A    between atoms: N_1  and  C_4
REMARK    2  A    between atoms: N_1  and  C_10
REMARK    3  A    between atoms: N_2  and  O_8
REMARK    4  A    between atoms: C_10  and  C_11
REMARK    5  A    between atoms: C_11  and  C_12
REMARK                            x       y       z     vdW  Elec       q    Type
REMARK                         _______ _______ _______ _____ _____    ______ ____
ROOT
ATOM      1  N   UNL     1      36.029 -26.805 -15.231  0.00  0.00    -0.237 N 
ATOM      2  N   UNL     1      35.092 -25.094 -14.069  0.00  0.00    -0.368 N 
ATOM      3  C   UNL     1      36.102 -25.459 -14.936  0.00  0.00    +0.215 C 
ATOM      4  H   UNL     1      35.448 -27.415 -14.723  0.00  0.00    +0.197 HD
ATOM      5  H   UNL     1      35.016 -24.159 -13.769  0.00  0.00    +0.159 HD
ATOM      6  H   UNL     1      34.448 -25.767 -13.751  0.00  0.00    +0.159 HD
ENDROOT
BRANCH   1   7
ATOM      7  O   UNL     1      36.813 -27.254 -16.273  0.00  0.00    -0.287 OA
ATOM      8  H   UNL     1      36.347 -27.958 -16.748  0.00  0.00    +0.244 HD
ENDBRANCH   1   7
BRANCH   3   9
ATOM      9  N   UNL     1      37.023 -24.691 -15.431  0.00  0.00    -0.238 NA
BRANCH   9  10
ATOM     10  C   UNL     1      37.128 -23.339 -14.880  0.00  0.00    +0.129 C 
BRANCH  10  11
ATOM     11  C   UNL     1      37.379 -22.340 -16.005  0.00  0.00    +0.026 C 
BRANCH  11  12
ATOM     12  C   UNL     1      36.212 -22.266 -16.992  0.00  0.00    +0.002 C 
ATOM     13  C   UNL     1      36.629 -21.601 -18.294  0.00  0.00    +0.000 C 
ENDBRANCH  11  12
ENDBRANCH  10  11
ENDBRANCH   9  10
ENDBRANCH   3   9
TORSDOF 5
ENDMDL
MODEL 2
REMARK VINA RESULT:      -5.1      3.068      4.327
REMARK  Name = 447030
REMARK  5 active torsions:
REMARK  status: ('A' for Active; 'I' for Inactive)
REMARK    1  A    between atoms: N_1  and  C_4
REMARK    2  A    between atoms: N_1  and  C_10
REMARK    3  A    between atoms: N_2  and  O_8
REMARK    4  A    between atoms: C_10  and  C_11
REMARK    5  A    between atoms: C_11  and  C_12
REMARK                            x       y       z     vdW  Elec       q    Type
REMARK                         _______ _______ _______ _____ _____    ______ ____
ROOT
ATOM      1  N   UNL     1      37.569 -22.792 -16.315  0.00  0.00    -0.237 N 
ATOM      2  N   UNL     1      37.224 -20.729 -17.199  0.00  0.00    -0.368 N 
ATOM      3  C   UNL     1      36.725 -22.009 -17.074  0.00  0.00    +0.215 C 
ATOM      4  H   UNL     1      38.478 -22.495 -16.081  0.00  0.00    +0.197 HD
ATOM      5  H   UNL     1      36.727 -20.055 -17.717  0.00  0.00    +0.159 HD
ATOM      6  H   UNL     1      38.078 -20.490 -16.771  0.00  0.00    +0.159 HD
ENDROOT
BRANCH   1   7
ATOM      7  O   UNL     1      37.077 -24.011 -15.899  0.00  0.00    -0.287 OA
ATOM      8  H   UNL     1      37.575 -24.724 -16.328  0.00  0.00    +0.244 HD
ENDBRANCH   1   7
BRANCH   3   9
ATOM      9  N   UNL     1      35.625 -22.472 -17.585  0.00  0.00    -0.238 NA
BRANCH   9  10
ATOM     10  C   UNL     1      35.257 -21.993 -18.918  0.00  0.00    +0.129 C 
BRANCH  10  11
ATOM     11  C   UNL     1      33.739 -21.939 -19.048  0.00  0.00    +0.026 C 
BRANCH  11  12
ATOM     12  C   UNL     1      33.272 -20.829 -19.992  0.00  0.00    +0.002 C 
ATOM     13  C   UNL     1      34.451 -20.084 -20.598  0.00  0.00    +0.000 C 
ENDBRANCH  11  12
ENDBRANCH  10  11
ENDBRANCH   9  10
ENDBRANCH   3   9
TORSDOF 5
ENDMDL
MODEL 3
REMARK VINA RESULT:      -5.0      8.569      9.671
REMARK  Name = 447030
REMARK  5 active torsions:
REMARK  status: ('A' for Active; 'I' for Inactive)
REMARK    1  A    between atoms: N_1  and  C_4
REMARK    2  A    between atoms: N_1  and  C_10
REMARK    3  A    between atoms: N_2  and  O_8
REMARK    4  A    between atoms: C_10  and  C_11
REMARK    5  A    between atoms: C_11  and  C_12
REMARK                            x       y       z     vdW  Elec       q    Type
REMARK                         _______ _______ _______ _____ _____    ______ ____
ROOT
ATOM      1  N   UNL     1      35.304 -17.157 -24.217  0.00  0.00    -0.237 N 
ATOM      2  N   UNL     1      34.806 -19.373 -24.225  0.00  0.00    -0.368 N 
ATOM      3  C   UNL     1      35.377 -18.340 -23.510  0.00  0.00    +0.215 C 
ATOM      4  H   UNL     1      35.050 -17.138 -25.167  0.00  0.00    +0.197 HD
ATOM      5  H   UNL     1      34.785 -20.281 -23.845  0.00  0.00    +0.159 HD
ATOM      6  H   UNL     1      34.421 -19.202 -25.114  0.00  0.00    +0.159 HD
ENDROOT
BRANCH   1   7
ATOM      7  O   UNL     1      35.604 -16.003 -23.525  0.00  0.00    -0.287 OA
ATOM      8  H   UNL     1      34.805 -15.671 -23.087  0.00  0.00    +0.244 HD
ENDBRANCH   1   7
BRANCH   3   9
ATOM      9  N   UNL     1      35.929 -18.412 -22.338  0.00  0.00    -0.238 NA
BRANCH   9  10
ATOM     10  C   UNL     1      35.040 -18.637 -21.197  0.00  0.00    +0.129 C 
BRANCH  10  11
ATOM     11  C   UNL     1      35.285 -20.025 -20.615  0.00  0.00    +0.026 C 
BRANCH  11  12
ATOM     12  C   UNL     1      33.990 -20.707 -20.166  0.00  0.00    +0.002 C 
ATOM     13  C   UNL     1      32.767 -19.910 -20.591  0.00  0.00    +0.000 C 
ENDBRANCH  11  12
ENDBRANCH  10  11
ENDBRANCH   9  10
ENDBRANCH   3   9
TORSDOF 5
ENDMDL
MODEL 4
REMARK VINA RESULT:      -5.0      2.006      3.160
REMARK  Name = 447030
REMARK  5 active torsions:
REMARK  status: ('A' for Active; 'I' for Inactive)
REMARK    1  A    between atoms: N_1  and  C_4
REMARK    2  A    between atoms: N_1  and  C_10
REMARK    3  A    between atoms: N_2  and  O_8
REMARK    4  A    between atoms: C_10  and  C_11
REMARK    5  A    between atoms: C_11  and  C_12
REMARK                            x       y       z     vdW  Elec       q    Type
REMARK                         _______ _______ _______ _____ _____    ______ ____
ROOT
ATOM      1  N   UNL     1      35.944 -26.782 -15.224  0.00  0.00    -0.237 N 
ATOM      2  N   UNL     1      34.780 -25.123 -14.201  0.00  0.00    -0.368 N 
ATOM      3  C   UNL     1      35.881 -25.427 -14.975  0.00  0.00    +0.215 C 
ATOM      4  H   UNL     1      35.377 -27.424 -14.740  0.00  0.00    +0.197 HD
ATOM      5  H   UNL     1      34.603 -24.190 -13.942  0.00  0.00    +0.159 HD
ATOM      6  H   UNL     1      34.171 -25.838 -13.908  0.00  0.00    +0.159 HD
ENDROOT
BRANCH   1   7
ATOM      7  O   UNL     1      36.842 -27.194 -16.186  0.00  0.00    -0.287 OA
ATOM      8  H   UNL     1      37.703 -27.364 -15.773  0.00  0.00    +0.244 HD
ENDBRANCH   1   7
BRANCH   3   9
ATOM      9  N   UNL     1      36.772 -24.598 -15.426  0.00  0.00    -0.238 NA
BRANCH   9  10
ATOM     10  C   UNL     1      37.488 -23.789 -14.439  0.00  0.00    +0.129 C 
BRANCH  10  11
ATOM     11  C   UNL     1      38.292 -24.694 -13.512  0.00  0.00    +0.026 C 
BRANCH  11  12
ATOM     12  C   UNL     1      38.035 -24.394 -12.034  0.00  0.00    +0.002 C 
ATOM     13  C   UNL     1      37.331 -23.058 -11.854  0.00  0.00    +0.000 C 
ENDBRANCH  11  12
ENDBRANCH  10  11
ENDBRANCH   9  10
ENDBRANCH   3   9
TORSDOF 5
ENDMDL
MODEL 5
REMARK VINA RESULT:      -4.9      1.962      3.141
REMARK  Name = 447030
REMARK  5 active torsions:
REMARK  status: ('A' for Active; 'I' for Inactive)
REMARK    1  A    between atoms: N_1  and  C_4
REMARK    2  A    between atoms: N_1  and  C_10
REMARK    3  A    between atoms: N_2  and  O_8
REMARK    4  A    between atoms: C_10  and  C_11
REMARK    5  A    between atoms: C_11  and  C_12
REMARK                            x       y       z     vdW  Elec       q    Type
REMARK                         _______ _______ _______ _____ _____    ______ ____
ROOT
ATOM      1  N   UNL     1      35.913 -26.736 -15.159  0.00  0.00    -0.237 N 
ATOM      2  N   UNL     1      34.634 -25.156 -14.148  0.00  0.00    -0.368 N 
ATOM      3  C   UNL     1      35.694 -25.383 -15.002  0.00  0.00    +0.215 C 
ATOM      4  H   UNL     1      35.480 -27.401 -14.578  0.00  0.00    +0.197 HD
ATOM      5  H   UNL     1      34.359 -24.234 -13.939  0.00  0.00    +0.159 HD
ATOM      6  H   UNL     1      34.153 -25.915 -13.747  0.00  0.00    +0.159 HD
ENDROOT
BRANCH   1   7
ATOM      7  O   UNL     1      36.770 -27.110 -16.173  0.00  0.00    -0.287 OA
ATOM      8  H   UNL     1      37.308 -26.349 -16.438  0.00  0.00    +0.244 HD
ENDBRANCH   1   7
BRANCH   3   9
ATOM      9  N   UNL     1      36.424 -24.490 -15.595  0.00  0.00    -0.238 NA
BRANCH   9  10
ATOM     10  C   UNL     1      37.448 -23.824 -14.788  0.00  0.00    +0.129 C 
BRANCH  10  11
ATOM     11  C   UNL     1      38.810 -24.453 -15.059  0.00  0.00    +0.026 C 
BRANCH  11  12
ATOM     12  C   UNL     1      39.268 -25.368 -13.920  0.00  0.00    +0.002 C 
ATOM     13  C   UNL     1      40.577 -26.063 -14.260  0.00  0.00    +0.000 C 
ENDBRANCH  11  12
ENDBRANCH  10  11
ENDBRANCH   9  10
ENDBRANCH   3   9
TORSDOF 5
ENDMDL
MODEL 6
REMARK VINA RESULT:      -4.9      3.666      4.240
REMARK  Name = 447030
REMARK  5 active torsions:
REMARK  status: ('A' for Active; 'I' for Inactive)
REMARK    1  A    between atoms: N_1  and  C_4
REMARK    2  A    between atoms: N_1  and  C_10
REMARK    3  A    between atoms: N_2  and  O_8
REMARK    4  A    between atoms: C_10  and  C_11
REMARK    5  A    between atoms: C_11  and  C_12
REMARK                            x       y       z     vdW  Elec       q    Type
REMARK                         _______ _______ _______ _____ _____    ______ ____
ROOT
ATOM      1  N   UNL     1      39.834 -25.226 -15.344  0.00  0.00    -0.237 N 
ATOM      2  N   UNL     1      37.617 -25.719 -15.340  0.00  0.00    -0.368 N 
ATOM      3  C   UNL     1      38.774 -25.683 -14.589  0.00  0.00    +0.215 C 
ATOM      4  H   UNL     1      39.772 -25.137 -16.322  0.00  0.00    +0.197 HD
ATOM      5  H   UNL     1      36.775 -26.024 -14.932  0.00  0.00    +0.159 HD
ATOM      6  H   UNL     1      37.634 -25.438 -16.283  0.00  0.00    +0.159 HD
ENDROOT
BRANCH   1   7
ATOM      7  O   UNL     1      40.987 -24.901 -14.661  0.00  0.00    -0.287 OA
ATOM      8  H   UNL     1      41.755 -25.247 -15.141  0.00  0.00    +0.244 HD
ENDBRANCH   1   7
BRANCH   3   9
ATOM      9  N   UNL     1      38.909 -26.027 -13.345  0.00  0.00    -0.238 NA
BRANCH   9  10
ATOM     10  C   UNL     1      37.929 -25.493 -12.397  0.00  0.00    +0.129 C 
BRANCH  10  11
ATOM     11  C   UNL     1      38.289 -24.056 -12.034  0.00  0.00    +0.026 C 
BRANCH  11  12
ATOM     12  C   UNL     1      37.053 -23.173 -11.850  0.00  0.00    +0.002 C 
ATOM     13  C   UNL     1      35.926 -23.597 -12.778  0.00  0.00    +0.000 C 
ENDBRANCH  11  12
ENDBRANCH  10  11
ENDBRANCH   9  10
ENDBRANCH   3   9
TORSDOF 5
ENDMDL
MODEL 7
REMARK VINA RESULT:      -4.9      2.334      2.667
REMARK  Name = 447030
REMARK  5 active torsions:
REMARK  status: ('A' for Active; 'I' for Inactive)
REMARK    1  A    between atoms: N_1  and  C_4
REMARK    2  A    between atoms: N_1  and  C_10
REMARK    3  A    between atoms: N_2  and  O_8
REMARK    4  A    between atoms: C_10  and  C_11
REMARK    5  A    between atoms: C_11  and  C_12
REMARK                            x       y       z     vdW  Elec       q    Type
REMARK                         _______ _______ _______ _____ _____    ______ ____
ROOT
ATOM      1  N   UNL     1      36.264 -26.722 -15.001  0.00  0.00    -0.237 N 
ATOM      2  N   UNL     1      35.327 -25.230 -13.568  0.00  0.00    -0.368 N 
ATOM      3  C   UNL     1      35.910 -25.403 -14.807  0.00  0.00    +0.215 C 
ATOM      4  H   UNL     1      36.261 -27.372 -14.263  0.00  0.00    +0.197 HD
ATOM      5  H   UNL     1      35.021 -24.337 -13.289  0.00  0.00    +0.159 HD
ATOM      6  H   UNL     1      35.216 -26.000 -12.965  0.00  0.00    +0.159 HD
ENDROOT
BRANCH   1   7
ATOM      7  O   UNL     1      36.623 -27.084 -16.282  0.00  0.00    -0.287 OA
ATOM      8  H   UNL     1      36.691 -26.291 -16.836  0.00  0.00    +0.244 HD
ENDBRANCH   1   7
BRANCH   3   9
ATOM      9  N   UNL     1      36.130 -24.488 -15.701  0.00  0.00    -0.238 NA
BRANCH   9  10
ATOM     10  C   UNL     1      35.309 -23.278 -15.631  0.00  0.00    +0.129 C 
BRANCH  10  11
ATOM     11  C   UNL     1      34.050 -23.457 -16.473  0.00  0.00    +0.026 C 
BRANCH  11  12
ATOM     12  C   UNL     1      32.774 -23.420 -15.629  0.00  0.00    +0.002 C 
ATOM     13  C   UNL     1      31.563 -23.053 -16.472  0.00  0.00    +0.000 C 
ENDBRANCH  11  12
ENDBRANCH  10  11
ENDBRANCH   9  10
ENDBRANCH   3   9
TORSDOF 5
ENDMDL
MODEL 8
REMARK VINA RESULT:      -4.9      7.908      9.317
REMARK  Name = 447030
REMARK  5 active torsions:
REMARK  status: ('A' for Active; 'I' for Inactive)
REMARK    1  A    between atoms: N_1  and  C_4
REMARK    2  A    between atoms: N_1  and  C_10
REMARK    3  A    between atoms: N_2  and  O_8
REMARK    4  A    between atoms: C_10  and  C_11
REMARK    5  A    between atoms: C_11  and  C_12
REMARK                            x       y       z     vdW  Elec       q    Type
REMARK                         _______ _______ _______ _____ _____    ______ ____
ROOT
ATOM      1  N   UNL     1      34.795 -16.146 -21.849  0.00  0.00    -0.237 N 
ATOM      2  N   UNL     1      35.871 -17.670 -23.143  0.00  0.00    -0.368 N 
ATOM      3  C   UNL     1      35.413 -17.379 -21.874  0.00  0.00    +0.215 C 
ATOM      4  H   UNL     1      34.865 -15.517 -22.602  0.00  0.00    +0.197 HD
ATOM      5  H   UNL     1      36.336 -18.521 -23.315  0.00  0.00    +0.159 HD
ATOM      6  H   UNL     1      35.733 -17.028 -23.876  0.00  0.00    +0.159 HD
ENDROOT
BRANCH   1   7
ATOM      7  O   UNL     1      34.073 -15.839 -20.715  0.00  0.00    -0.287 OA
ATOM      8  H   UNL     1      34.651 -15.895 -19.938  0.00  0.00    +0.244 HD
ENDBRANCH   1   7
BRANCH   3   9
ATOM      9  N   UNL     1      35.528 -18.118 -20.814  0.00  0.00    -0.238 NA
BRANCH   9  10
ATOM     10  C   UNL     1      35.107 -19.515 -20.927  0.00  0.00    +0.129 C 
BRANCH  10  11
ATOM     11  C   UNL     1      33.605 -19.584 -21.184  0.00  0.00    +0.026 C 
BRANCH  11  12
ATOM     12  C   UNL     1      32.869 -20.407 -20.125  0.00  0.00    +0.002 C 
ATOM     13  C   UNL     1      33.743 -21.530 -19.589  0.00  0.00    +0.000 C 
ENDBRANCH  11  12
ENDBRANCH  10  11
ENDBRANCH   9  10
ENDBRANCH   3   9
TORSDOF 5
ENDMDL
MODEL 9
REMARK VINA RESULT:      -4.9      5.906      6.746
REMARK  Name = 447030
REMARK  5 active torsions:
REMARK  status: ('A' for Active; 'I' for Inactive)
REMARK    1  A    between atoms: N_1  and  C_4
REMARK    2  A    between atoms: N_1  and  C_10
REMARK    3  A    between atoms: N_2  and  O_8
REMARK    4  A    between atoms: C_10  and  C_11
REMARK    5  A    between atoms: C_11  and  C_12
REMARK                            x       y       z     vdW  Elec       q    Type
REMARK                         _______ _______ _______ _____ _____    ______ ____
ROOT
ATOM      1  N   UNL     1      33.062 -22.243 -19.537  0.00  0.00    -0.237 N 
ATOM      2  N   UNL     1      32.551 -20.151 -20.257  0.00  0.00    -0.368 N 
ATOM      3  C   UNL     1      33.563 -20.997 -19.852  0.00  0.00    +0.215 C 
ATOM      4  H   UNL     1      32.096 -22.403 -19.442  0.00  0.00    +0.197 HD
ATOM      5  H   UNL     1      32.759 -19.224 -20.515  0.00  0.00    +0.159 HD
ATOM      6  H   UNL     1      31.622 -20.475 -20.288  0.00  0.00    +0.159 HD
ENDROOT
BRANCH   1   7
ATOM      7  O   UNL     1      33.983 -23.254 -19.361  0.00  0.00    -0.287 OA
ATOM      8  H   UNL     1      34.266 -23.588 -20.226  0.00  0.00    +0.244 HD
ENDBRANCH   1   7
BRANCH   3   9
ATOM      9  N   UNL     1      34.826 -20.713 -19.753  0.00  0.00    -0.238 NA
BRANCH   9  10
ATOM     10  C   UNL     1      35.517 -20.314 -20.980  0.00  0.00    +0.129 C 
BRANCH  10  11
ATOM     11  C   UNL     1      35.742 -18.806 -20.980  0.00  0.00    +0.026 C 
BRANCH  11  12
ATOM     12  C   UNL     1      35.203 -18.135 -22.246  0.00  0.00    +0.002 C 
ATOM     13  C   UNL     1      34.808 -19.164 -23.294  0.00  0.00    +0.000 C 
ENDBRANCH  11  12
ENDBRANCH  10  11
ENDBRANCH   9  10
ENDBRANCH   3   9
TORSDOF 5
ENDMDL
