MODEL 1
REMARK VINA RESULT:      -9.5      0.000      0.000
REMARK  Name = 5274428
REMARK  9 active torsions:
REMARK  status: ('A' for Active; 'I' for Inactive)
REMARK    1  A    between atoms: C_1  and  N_2
REMARK    2  A    between atoms: C_1  and  C_15
REMARK    3  A    between atoms: N_2  and  C_9
REMARK    4  A    between atoms: C_15  and  N_16
REMARK    5  A    between atoms: N_16  and  C_19
REMARK    6  A    between atoms: C_19  and  C_20
REMARK    7  A    between atoms: C_21  and  C_23
REMARK    8  A    between atoms: C_23  and  C_24
REMARK    9  A    between atoms: C_24  and  C_25
REMARK                            x       y       z     vdW  Elec       q    Type
REMARK                         _______ _______ _______ _____ _____    ______ ____
ROOT
ATOM      1  C   UNL     1      34.202 -10.934 -24.771  0.00  0.00    -0.106 C 
ENDROOT
BRANCH   1   2
ATOM      2  N   UNL     1      33.598 -10.290 -23.610  0.00  0.00    +0.384 N 
ATOM      3  H   UNL     1      32.928 -10.930 -23.184  0.00  0.00    -0.085 HD
ATOM      4  H   UNL     1      34.337 -10.054 -22.947  0.00  0.00    -0.085 HD
BRANCH   2   9
ATOM      5  C   UNL     1      33.807  -7.812 -23.850  0.00  0.00    -0.019 C 
ATOM      6  C   UNL     1      31.609  -8.856 -23.185  0.00  0.00    -0.019 C 
ATOM      7  C   UNL     1      31.773  -6.354 -23.497  0.00  0.00    -0.000 C 
ATOM      8  C   UNL     1      32.891  -7.451 -21.523  0.00  0.00    -0.000 C 
ATOM      9  C   UNL     1      32.911  -9.066 -23.996  0.00  0.00    -0.062 C 
ATOM     10  C   UNL     1      33.058  -6.549 -24.323  0.00  0.00    -0.002 C 
ATOM     11  C   UNL     1      34.168  -7.640 -22.360  0.00  0.00    -0.002 C 
ATOM     12  C   UNL     1      30.869  -7.588 -23.660  0.00  0.00    -0.002 C 
ATOM     13  C   UNL     1      31.981  -8.679 -21.699  0.00  0.00    -0.002 C 
ATOM     14  C   UNL     1      32.148  -6.197 -22.013  0.00  0.00    -0.000 C 
ENDBRANCH   2   9
ENDBRANCH   1   2
BRANCH   1  15
ATOM     15  C   UNL     1      33.781 -12.399 -24.839  0.00  0.00    -0.105 C 
BRANCH  15  16
ATOM     16  N   UNL     1      34.129 -13.079 -23.601  0.00  0.00    +0.385 N 
ATOM     17  H   UNL     1      33.989 -12.441 -22.818  0.00  0.00    -0.084 HD
ATOM     18  H   UNL     1      35.106 -13.370 -23.651  0.00  0.00    -0.084 HD
BRANCH  16  19
ATOM     19  C   UNL     1      33.298 -14.265 -23.409  0.00  0.00    -0.055 C 
BRANCH  19  20
ATOM     20  C   UNL     1      34.094 -15.407 -22.848  0.00  0.00    -0.058 C 
ATOM     21  C   UNL     1      34.087 -15.883 -21.587  0.00  0.00    -0.050 C 
ATOM     22  C   UNL     1      33.198 -15.250 -20.548  0.00  0.00    +0.026 C 
BRANCH  21  23
ATOM     23  C   UNL     1      34.899 -17.066 -21.103  0.00  0.00    +0.026 C 
BRANCH  23  24
ATOM     24  C   UNL     1      34.635 -18.360 -21.884  0.00  0.00    +0.030 C 
BRANCH  24  25
ATOM     25  C   UNL     1      33.835 -19.360 -21.096  0.00  0.00    -0.034 C 
ATOM     26  C   UNL     1      34.289 -20.387 -20.353  0.00  0.00    -0.048 C 
ATOM     27  C   UNL     1      35.768 -20.634 -20.220  0.00  0.00    +0.026 C 
ATOM     28  C   UNL     1      33.430 -21.353 -19.588  0.00  0.00    +0.026 C 
ENDBRANCH  24  25
ENDBRANCH  23  24
ENDBRANCH  21  23
ENDBRANCH  19  20
ENDBRANCH  16  19
ENDBRANCH  15  16
ENDBRANCH   1  15
TORSDOF 9
ENDMDL
MODEL 2
REMARK VINA RESULT:      -9.2      1.355      2.320
REMARK  Name = 5274428
REMARK  9 active torsions:
REMARK  status: ('A' for Active; 'I' for Inactive)
REMARK    1  A    between atoms: C_1  and  N_2
REMARK    2  A    between atoms: C_1  and  C_15
REMARK    3  A    between atoms: N_2  and  C_9
REMARK    4  A    between atoms: C_15  and  N_16
REMARK    5  A    between atoms: N_16  and  C_19
REMARK    6  A    between atoms: C_19  and  C_20
REMARK    7  A    between atoms: C_21  and  C_23
REMARK    8  A    between atoms: C_23  and  C_24
REMARK    9  A    between atoms: C_24  and  C_25
REMARK                            x       y       z     vdW  Elec       q    Type
REMARK                         _______ _______ _______ _____ _____    ______ ____
ROOT
ATOM      1  C   UNL     1      31.173 -11.056 -21.443  0.00  0.00    -0.106 C 
ENDROOT
BRANCH   1   2
ATOM      2  N   UNL     1      31.987  -9.902 -21.077  0.00  0.00    +0.384 N 
ATOM      3  H   UNL     1      31.865  -9.709 -20.082  0.00  0.00    -0.085 HD
ATOM      4  H   UNL     1      32.964 -10.115 -21.280  0.00  0.00    -0.085 HD
BRANCH   2   9
ATOM      5  C   UNL     1      31.699  -8.957 -23.370  0.00  0.00    -0.019 C 
ATOM      6  C   UNL     1      32.435  -7.484 -21.459  0.00  0.00    -0.019 C 
ATOM      7  C   UNL     1      32.074  -6.487 -23.752  0.00  0.00    -0.000 C 
ATOM      8  C   UNL     1      34.040  -8.008 -23.337  0.00  0.00    -0.000 C 
ATOM      9  C   UNL     1      31.597  -8.728 -21.843  0.00  0.00    -0.062 C 
ATOM     10  C   UNL     1      31.222  -7.709 -24.142  0.00  0.00    -0.002 C 
ATOM     11  C   UNL     1      33.176  -9.220 -23.728  0.00  0.00    -0.002 C 
ATOM     12  C   UNL     1      31.955  -6.242 -22.238  0.00  0.00    -0.002 C 
ATOM     13  C   UNL     1      33.908  -7.754 -21.826  0.00  0.00    -0.002 C 
ATOM     14  C   UNL     1      33.545  -6.768 -24.102  0.00  0.00    -0.000 C 
ENDBRANCH   2   9
ENDBRANCH   1   2
BRANCH   1  15
ATOM     15  C   UNL     1      31.978 -12.342 -21.279  0.00  0.00    -0.105 C 
BRANCH  15  16
ATOM     16  N   UNL     1      31.954 -13.109 -22.516  0.00  0.00    +0.385 N 
ATOM     17  H   UNL     1      31.657 -12.503 -23.280  0.00  0.00    -0.084 HD
ATOM     18  H   UNL     1      31.302 -13.886 -22.405  0.00  0.00    -0.084 HD
BRANCH  16  19
ATOM     19  C   UNL     1      33.278 -13.648 -22.817  0.00  0.00    -0.055 C 
BRANCH  19  20
ATOM     20  C   UNL     1      33.595 -14.835 -21.955  0.00  0.00    -0.058 C 
ATOM     21  C   UNL     1      34.350 -15.908 -22.266  0.00  0.00    -0.050 C 
ATOM     22  C   UNL     1      34.994 -16.008 -23.624  0.00  0.00    +0.026 C 
BRANCH  21  23
ATOM     23  C   UNL     1      34.652 -17.057 -21.326  0.00  0.00    +0.026 C 
BRANCH  23  24
ATOM     24  C   UNL     1      34.832 -18.405 -22.035  0.00  0.00    +0.030 C 
BRANCH  24  25
ATOM     25  C   UNL     1      35.200 -19.514 -21.088  0.00  0.00    -0.034 C 
ATOM     26  C   UNL     1      34.377 -20.327 -20.401  0.00  0.00    -0.048 C 
ATOM     27  C   UNL     1      32.884 -20.196 -20.545  0.00  0.00    +0.026 C 
ATOM     28  C   UNL     1      34.814 -21.419 -19.467  0.00  0.00    +0.026 C 
ENDBRANCH  24  25
ENDBRANCH  23  24
ENDBRANCH  21  23
ENDBRANCH  19  20
ENDBRANCH  16  19
ENDBRANCH  15  16
ENDBRANCH   1  15
TORSDOF 9
ENDMDL
MODEL 3
REMARK VINA RESULT:      -9.1      1.561      2.977
REMARK  Name = 5274428
REMARK  9 active torsions:
REMARK  status: ('A' for Active; 'I' for Inactive)
REMARK    1  A    between atoms: C_1  and  N_2
REMARK    2  A    between atoms: C_1  and  C_15
REMARK    3  A    between atoms: N_2  and  C_9
REMARK    4  A    between atoms: C_15  and  N_16
REMARK    5  A    between atoms: N_16  and  C_19
REMARK    6  A    between atoms: C_19  and  C_20
REMARK    7  A    between atoms: C_21  and  C_23
REMARK    8  A    between atoms: C_23  and  C_24
REMARK    9  A    between atoms: C_24  and  C_25
REMARK                            x       y       z     vdW  Elec       q    Type
REMARK                         _______ _______ _______ _____ _____    ______ ____
ROOT
ATOM      1  C   UNL     1      31.158 -11.151 -21.268  0.00  0.00    -0.106 C 
ENDROOT
BRANCH   1   2
ATOM      2  N   UNL     1      32.060 -10.026 -21.049  0.00  0.00    +0.384 N 
ATOM      3  H   UNL     1      32.087  -9.809 -20.053  0.00  0.00    -0.085 HD
ATOM      4  H   UNL     1      32.990 -10.284 -21.383  0.00  0.00    -0.085 HD
BRANCH   2   9
ATOM      5  C   UNL     1      31.703  -9.039 -23.315  0.00  0.00    -0.019 C 
ATOM      6  C   UNL     1      32.401  -7.583 -21.378  0.00  0.00    -0.019 C 
ATOM      7  C   UNL     1      31.970  -6.547 -23.641  0.00  0.00    -0.000 C 
ATOM      8  C   UNL     1      34.003  -7.993 -23.287  0.00  0.00    -0.000 C 
ATOM      9  C   UNL     1      31.611  -8.851 -21.782  0.00  0.00    -0.062 C 
ATOM     10  C   UNL     1      31.165  -7.794 -24.050  0.00  0.00    -0.002 C 
ATOM     11  C   UNL     1      33.186  -9.231 -23.697  0.00  0.00    -0.002 C 
ATOM     12  C   UNL     1      31.860  -6.343 -22.120  0.00  0.00    -0.002 C 
ATOM     13  C   UNL     1      33.880  -7.782 -21.768  0.00  0.00    -0.002 C 
ATOM     14  C   UNL     1      33.447  -6.758 -24.015  0.00  0.00    -0.000 C 
ENDBRANCH   2   9
ENDBRANCH   1   2
BRANCH   1  15
ATOM     15  C   UNL     1      31.954 -12.447 -21.400  0.00  0.00    -0.105 C 
BRANCH  15  16
ATOM     16  N   UNL     1      31.843 -12.969 -22.753  0.00  0.00    +0.385 N 
ATOM     17  H   UNL     1      31.204 -12.381 -23.287  0.00  0.00    -0.084 HD
ATOM     18  H   UNL     1      31.490 -13.925 -22.706  0.00  0.00    -0.084 HD
BRANCH  16  19
ATOM     19  C   UNL     1      33.147 -12.983 -23.412  0.00  0.00    -0.055 C 
BRANCH  19  20
ATOM     20  C   UNL     1      33.588 -14.384 -23.722  0.00  0.00    -0.058 C 
ATOM     21  C   UNL     1      33.488 -15.046 -24.892  0.00  0.00    -0.050 C 
ATOM     22  C   UNL     1      32.870 -14.370 -26.089  0.00  0.00    +0.026 C 
BRANCH  21  23
ATOM     23  C   UNL     1      33.989 -16.454 -25.137  0.00  0.00    +0.026 C 
BRANCH  23  24
ATOM     24  C   UNL     1      35.138 -16.872 -24.210  0.00  0.00    +0.030 C 
BRANCH  24  25
ATOM     25  C   UNL     1      34.786 -18.049 -23.344  0.00  0.00    -0.034 C 
ATOM     26  C   UNL     1      34.672 -18.091 -22.004  0.00  0.00    -0.048 C 
ATOM     27  C   UNL     1      34.891 -16.848 -21.183  0.00  0.00    +0.026 C 
ATOM     28  C   UNL     1      34.316 -19.308 -21.199  0.00  0.00    +0.026 C 
ENDBRANCH  24  25
ENDBRANCH  23  24
ENDBRANCH  21  23
ENDBRANCH  19  20
ENDBRANCH  16  19
ENDBRANCH  15  16
ENDBRANCH   1  15
TORSDOF 9
ENDMDL
MODEL 4
REMARK VINA RESULT:      -9.1      7.383     14.525
REMARK  Name = 5274428
REMARK  9 active torsions:
REMARK  status: ('A' for Active; 'I' for Inactive)
REMARK    1  A    between atoms: C_1  and  N_2
REMARK    2  A    between atoms: C_1  and  C_15
REMARK    3  A    between atoms: N_2  and  C_9
REMARK    4  A    between atoms: C_15  and  N_16
REMARK    5  A    between atoms: N_16  and  C_19
REMARK    6  A    between atoms: C_19  and  C_20
REMARK    7  A    between atoms: C_21  and  C_23
REMARK    8  A    between atoms: C_23  and  C_24
REMARK    9  A    between atoms: C_24  and  C_25
REMARK                            x       y       z     vdW  Elec       q    Type
REMARK                         _______ _______ _______ _____ _____    ______ ____
ROOT
ATOM      1  C   UNL     1      37.032 -21.785 -16.433  0.00  0.00    -0.106 C 
ENDROOT
BRANCH   1   2
ATOM      2  N   UNL     1      37.211 -23.177 -16.036  0.00  0.00    +0.384 N 
ATOM      3  H   UNL     1      36.619 -23.769 -16.620  0.00  0.00    -0.085 HD
ATOM      4  H   UNL     1      38.193 -23.427 -16.156  0.00  0.00    -0.085 HD
BRANCH   2   9
ATOM      5  C   UNL     1      38.072 -23.700 -13.751  0.00  0.00    -0.019 C 
ATOM      6  C   UNL     1      35.782 -24.477 -14.467  0.00  0.00    -0.019 C 
ATOM      7  C   UNL     1      36.597 -24.951 -12.124  0.00  0.00    -0.000 C 
ATOM      8  C   UNL     1      37.622 -26.164 -14.081  0.00  0.00    -0.000 C 
ATOM      9  C   UNL     1      36.848 -23.369 -14.640  0.00  0.00    -0.062 C 
ATOM     10  C   UNL     1      37.650 -23.838 -12.273  0.00  0.00    -0.002 C 
ATOM     11  C   UNL     1      38.667 -25.044 -14.219  0.00  0.00    -0.002 C 
ATOM     12  C   UNL     1      35.369 -24.613 -12.987  0.00  0.00    -0.002 C 
ATOM     13  C   UNL     1      36.388 -25.817 -14.933  0.00  0.00    -0.002 C 
ATOM     14  C   UNL     1      37.200 -26.282 -12.607  0.00  0.00    -0.000 C 
ENDBRANCH   2   9
ENDBRANCH   1   2
BRANCH   1  15
ATOM     15  C   UNL     1      36.787 -21.692 -17.936  0.00  0.00    -0.105 C 
BRANCH  15  16
ATOM     16  N   UNL     1      35.433 -22.122 -18.252  0.00  0.00    +0.385 N 
ATOM     17  H   UNL     1      34.769 -21.504 -17.787  0.00  0.00    -0.084 HD
ATOM     18  H   UNL     1      35.312 -23.082 -17.927  0.00  0.00    -0.084 HD
BRANCH  16  19
ATOM     19  C   UNL     1      35.199 -22.082 -19.693  0.00  0.00    -0.055 C 
BRANCH  19  20
ATOM     20  C   UNL     1      35.273 -20.678 -20.219  0.00  0.00    -0.058 C 
ATOM     21  C   UNL     1      34.253 -19.869 -20.570  0.00  0.00    -0.050 C 
ATOM     22  C   UNL     1      32.831 -20.354 -20.449  0.00  0.00    +0.026 C 
BRANCH  21  23
ATOM     23  C   UNL     1      34.406 -18.446 -21.064  0.00  0.00    +0.026 C 
BRANCH  23  24
ATOM     24  C   UNL     1      35.622 -18.235 -21.976  0.00  0.00    +0.030 C 
BRANCH  24  25
ATOM     25  C   UNL     1      35.338 -17.292 -23.113  0.00  0.00    -0.034 C 
ATOM     26  C   UNL     1      34.837 -17.582 -24.328  0.00  0.00    -0.048 C 
ATOM     27  C   UNL     1      34.470 -18.998 -24.681  0.00  0.00    +0.026 C 
ATOM     28  C   UNL     1      34.579 -16.585 -25.421  0.00  0.00    +0.026 C 
ENDBRANCH  24  25
ENDBRANCH  23  24
ENDBRANCH  21  23
ENDBRANCH  19  20
ENDBRANCH  16  19
ENDBRANCH  15  16
ENDBRANCH   1  15
TORSDOF 9
ENDMDL
MODEL 5
REMARK VINA RESULT:      -9.0      6.162     14.673
REMARK  Name = 5274428
REMARK  9 active torsions:
REMARK  status: ('A' for Active; 'I' for Inactive)
REMARK    1  A    between atoms: C_1  and  N_2
REMARK    2  A    between atoms: C_1  and  C_15
REMARK    3  A    between atoms: N_2  and  C_9
REMARK    4  A    between atoms: C_15  and  N_16
REMARK    5  A    between atoms: N_16  and  C_19
REMARK    6  A    between atoms: C_19  and  C_20
REMARK    7  A    between atoms: C_21  and  C_23
REMARK    8  A    between atoms: C_23  and  C_24
REMARK    9  A    between atoms: C_24  and  C_25
REMARK                            x       y       z     vdW  Elec       q    Type
REMARK                         _______ _______ _______ _____ _____    ______ ____
ROOT
ATOM      1  C   UNL     1      37.301 -21.879 -16.432  0.00  0.00    -0.106 C 
ENDROOT
BRANCH   1   2
ATOM      2  N   UNL     1      36.819 -22.585 -15.250  0.00  0.00    +0.384 N 
ATOM      3  H   UNL     1      37.242 -22.172 -14.418  0.00  0.00    -0.085 HD
ATOM      4  H   UNL     1      35.803 -22.502 -15.212  0.00  0.00    -0.085 HD
BRANCH   2   9
ATOM      5  C   UNL     1      35.981 -24.918 -14.941  0.00  0.00    -0.019 C 
ATOM      6  C   UNL     1      38.374 -24.334 -14.401  0.00  0.00    -0.019 C 
ATOM      7  C   UNL     1      37.572 -26.716 -14.155  0.00  0.00    -0.000 C 
ATOM      8  C   UNL     1      36.778 -24.949 -12.543  0.00  0.00    -0.000 C 
ATOM      9  C   UNL     1      37.169 -23.997 -15.312  0.00  0.00    -0.062 C 
ATOM     10  C   UNL     1      36.379 -26.402 -15.075  0.00  0.00    -0.002 C 
ATOM     11  C   UNL     1      35.590 -24.645 -13.473  0.00  0.00    -0.002 C 
ATOM     12  C   UNL     1      38.763 -25.820 -14.537  0.00  0.00    -0.002 C 
ATOM     13  C   UNL     1      37.973 -24.063 -12.937  0.00  0.00    -0.002 C 
ATOM     14  C   UNL     1      37.173 -26.427 -12.698  0.00  0.00    -0.000 C 
ENDBRANCH   2   9
ENDBRANCH   1   2
BRANCH   1  15
ATOM     15  C   UNL     1      36.299 -22.019 -17.574  0.00  0.00    -0.105 C 
BRANCH  15  16
ATOM     16  N   UNL     1      36.581 -21.039 -18.612  0.00  0.00    +0.385 N 
ATOM     17  H   UNL     1      37.573 -21.077 -18.847  0.00  0.00    -0.084 HD
ATOM     18  H   UNL     1      36.335 -20.113 -18.263  0.00  0.00    -0.084 HD
BRANCH  16  19
ATOM     19  C   UNL     1      35.793 -21.313 -19.812  0.00  0.00    -0.055 C 
BRANCH  19  20
ATOM     20  C   UNL     1      35.625 -20.079 -20.649  0.00  0.00    -0.058 C 
ATOM     21  C   UNL     1      34.477 -19.467 -21.003  0.00  0.00    -0.050 C 
ATOM     22  C   UNL     1      33.154 -20.024 -20.545  0.00  0.00    +0.026 C 
BRANCH  21  23
ATOM     23  C   UNL     1      34.389 -18.199 -21.827  0.00  0.00    +0.026 C 
BRANCH  23  24
ATOM     24  C   UNL     1      35.034 -16.979 -21.155  0.00  0.00    +0.030 C 
BRANCH  24  25
ATOM     25  C   UNL     1      34.025 -15.944 -20.741  0.00  0.00    -0.034 C 
ATOM     26  C   UNL     1      33.663 -14.826 -21.397  0.00  0.00    -0.048 C 
ATOM     27  C   UNL     1      34.279 -14.493 -22.729  0.00  0.00    +0.026 C 
ATOM     28  C   UNL     1      32.643 -13.831 -20.921  0.00  0.00    +0.026 C 
ENDBRANCH  24  25
ENDBRANCH  23  24
ENDBRANCH  21  23
ENDBRANCH  19  20
ENDBRANCH  16  19
ENDBRANCH  15  16
ENDBRANCH   1  15
TORSDOF 9
ENDMDL
MODEL 6
REMARK VINA RESULT:      -8.9      7.518     14.637
REMARK  Name = 5274428
REMARK  9 active torsions:
REMARK  status: ('A' for Active; 'I' for Inactive)
REMARK    1  A    between atoms: C_1  and  N_2
REMARK    2  A    between atoms: C_1  and  C_15
REMARK    3  A    between atoms: N_2  and  C_9
REMARK    4  A    between atoms: C_15  and  N_16
REMARK    5  A    between atoms: N_16  and  C_19
REMARK    6  A    between atoms: C_19  and  C_20
REMARK    7  A    between atoms: C_21  and  C_23
REMARK    8  A    between atoms: C_23  and  C_24
REMARK    9  A    between atoms: C_24  and  C_25
REMARK                            x       y       z     vdW  Elec       q    Type
REMARK                         _______ _______ _______ _____ _____    ______ ____
ROOT
ATOM      1  C   UNL     1      34.581 -23.133 -16.720  0.00  0.00    -0.106 C 
ENDROOT
BRANCH   1   2
ATOM      2  N   UNL     1      35.067 -23.329 -15.359  0.00  0.00    +0.384 N 
ATOM      3  H   UNL     1      35.379 -22.434 -14.983  0.00  0.00    -0.085 HD
ATOM      4  H   UNL     1      34.307 -23.708 -14.793  0.00  0.00    -0.085 HD
BRANCH   2   9
ATOM      5  C   UNL     1      35.873 -25.525 -14.483  0.00  0.00    -0.019 C 
ATOM      6  C   UNL     1      37.481 -23.611 -14.819  0.00  0.00    -0.019 C 
ATOM      7  C   UNL     1      38.334 -25.845 -14.008  0.00  0.00    -0.000 C 
ATOM      8  C   UNL     1      36.936 -24.405 -12.484  0.00  0.00    -0.000 C 
ATOM      9  C   UNL     1      36.178 -24.269 -15.335  0.00  0.00    -0.062 C 
ATOM     10  C   UNL     1      37.053 -26.518 -14.534  0.00  0.00    -0.002 C 
ATOM     11  C   UNL     1      35.665 -25.085 -13.020  0.00  0.00    -0.002 C 
ATOM     12  C   UNL     1      38.654 -24.611 -14.868  0.00  0.00    -0.002 C 
ATOM     13  C   UNL     1      37.264 -23.179 -13.355  0.00  0.00    -0.002 C 
ATOM     14  C   UNL     1      38.107 -25.400 -12.553  0.00  0.00    -0.000 C 
ENDBRANCH   2   9
ENDBRANCH   1   2
BRANCH   1  15
ATOM     15  C   UNL     1      33.056 -23.112 -16.737  0.00  0.00    -0.105 C 
BRANCH  15  16
ATOM     16  N   UNL     1      32.574 -22.630 -18.023  0.00  0.00    +0.385 N 
ATOM     17  H   UNL     1      32.125 -21.724 -17.893  0.00  0.00    -0.084 HD
ATOM     18  H   UNL     1      31.908 -23.306 -18.397  0.00  0.00    -0.084 HD
BRANCH  16  19
ATOM     19  C   UNL     1      33.678 -22.487 -18.969  0.00  0.00    -0.055 C 
BRANCH  19  20
ATOM     20  C   UNL     1      33.569 -21.209 -19.748  0.00  0.00    -0.058 C 
ATOM     21  C   UNL     1      34.568 -20.449 -20.240  0.00  0.00    -0.050 C 
ATOM     22  C   UNL     1      36.002 -20.861 -20.027  0.00  0.00    +0.026 C 
BRANCH  21  23
ATOM     23  C   UNL     1      34.376 -19.182 -21.047  0.00  0.00    +0.026 C 
BRANCH  23  24
ATOM     24  C   UNL     1      35.607 -18.781 -21.870  0.00  0.00    +0.030 C 
BRANCH  24  25
ATOM     25  C   UNL     1      35.305 -17.711 -22.883  0.00  0.00    -0.034 C 
ATOM     26  C   UNL     1      34.868 -17.863 -24.147  0.00  0.00    -0.048 C 
ATOM     27  C   UNL     1      34.605 -19.238 -24.701  0.00  0.00    +0.026 C 
ATOM     28  C   UNL     1      34.585 -16.745 -25.109  0.00  0.00    +0.026 C 
ENDBRANCH  24  25
ENDBRANCH  23  24
ENDBRANCH  21  23
ENDBRANCH  19  20
ENDBRANCH  16  19
ENDBRANCH  15  16
ENDBRANCH   1  15
TORSDOF 9
ENDMDL
MODEL 7
REMARK VINA RESULT:      -8.7      0.959      2.122
REMARK  Name = 5274428
REMARK  9 active torsions:
REMARK  status: ('A' for Active; 'I' for Inactive)
REMARK    1  A    between atoms: C_1  and  N_2
REMARK    2  A    between atoms: C_1  and  C_15
REMARK    3  A    between atoms: N_2  and  C_9
REMARK    4  A    between atoms: C_15  and  N_16
REMARK    5  A    between atoms: N_16  and  C_19
REMARK    6  A    between atoms: C_19  and  C_20
REMARK    7  A    between atoms: C_21  and  C_23
REMARK    8  A    between atoms: C_23  and  C_24
REMARK    9  A    between atoms: C_24  and  C_25
REMARK                            x       y       z     vdW  Elec       q    Type
REMARK                         _______ _______ _______ _____ _____    ______ ____
ROOT
ATOM      1  C   UNL     1      34.153 -11.312 -24.383  0.00  0.00    -0.106 C 
ENDROOT
BRANCH   1   2
ATOM      2  N   UNL     1      33.120 -10.283 -24.351  0.00  0.00    +0.384 N 
ATOM      3  H   UNL     1      33.255  -9.650 -25.139  0.00  0.00    -0.085 HD
ATOM      4  H   UNL     1      32.207 -10.736 -24.410  0.00  0.00    -0.085 HD
BRANCH   2   9
ATOM      5  C   UNL     1      31.781  -9.155 -22.570  0.00  0.00    -0.019 C 
ATOM      6  C   UNL     1      34.021  -8.230 -23.271  0.00  0.00    -0.019 C 
ATOM      7  C   UNL     1      32.723  -7.116 -21.412  0.00  0.00    -0.000 C 
ATOM      8  C   UNL     1      31.909  -6.947 -23.791  0.00  0.00    -0.000 C 
ATOM      9  C   UNL     1      33.184  -9.523 -23.112  0.00  0.00    -0.062 C 
ATOM     10  C   UNL     1      31.895  -8.401 -21.229  0.00  0.00    -0.002 C 
ATOM     11  C   UNL     1      31.088  -8.233 -23.594  0.00  0.00    -0.002 C 
ATOM     12  C   UNL     1      34.126  -7.479 -21.927  0.00  0.00    -0.002 C 
ATOM     13  C   UNL     1      33.317  -7.313 -24.291  0.00  0.00    -0.002 C 
ATOM     14  C   UNL     1      32.027  -6.212 -22.445  0.00  0.00    -0.000 C 
ENDBRANCH   2   9
ENDBRANCH   1   2
BRANCH   1  15
ATOM     15  C   UNL     1      33.537 -12.686 -24.136  0.00  0.00    -0.105 C 
BRANCH  15  16
ATOM     16  N   UNL     1      32.611 -12.627 -23.015  0.00  0.00    +0.385 N 
ATOM     17  H   UNL     1      31.682 -12.390 -23.362  0.00  0.00    -0.084 HD
ATOM     18  H   UNL     1      32.937 -11.917 -22.359  0.00  0.00    -0.084 HD
BRANCH  16  19
ATOM     19  C   UNL     1      32.552 -13.913 -22.324  0.00  0.00    -0.055 C 
BRANCH  19  20
ATOM     20  C   UNL     1      33.523 -14.895 -22.911  0.00  0.00    -0.058 C 
ATOM     21  C   UNL     1      34.369 -15.717 -22.259  0.00  0.00    -0.050 C 
ATOM     22  C   UNL     1      34.410 -15.714 -20.753  0.00  0.00    +0.026 C 
BRANCH  21  23
ATOM     23  C   UNL     1      35.300 -16.709 -22.925  0.00  0.00    +0.026 C 
BRANCH  23  24
ATOM     24  C   UNL     1      34.710 -18.119 -23.056  0.00  0.00    +0.030 C 
BRANCH  24  25
ATOM     25  C   UNL     1      35.313 -19.093 -22.082  0.00  0.00    -0.034 C 
ATOM     26  C   UNL     1      34.698 -19.769 -21.093  0.00  0.00    -0.048 C 
ATOM     27  C   UNL     1      33.218 -19.606 -20.868  0.00  0.00    +0.026 C 
ATOM     28  C   UNL     1      35.365 -20.730 -20.152  0.00  0.00    +0.026 C 
ENDBRANCH  24  25
ENDBRANCH  23  24
ENDBRANCH  21  23
ENDBRANCH  19  20
ENDBRANCH  16  19
ENDBRANCH  15  16
ENDBRANCH   1  15
TORSDOF 9
ENDMDL
MODEL 8
REMARK VINA RESULT:      -8.5      1.629      2.325
REMARK  Name = 5274428
REMARK  9 active torsions:
REMARK  status: ('A' for Active; 'I' for Inactive)
REMARK    1  A    between atoms: C_1  and  N_2
REMARK    2  A    between atoms: C_1  and  C_15
REMARK    3  A    between atoms: N_2  and  C_9
REMARK    4  A    between atoms: C_15  and  N_16
REMARK    5  A    between atoms: N_16  and  C_19
REMARK    6  A    between atoms: C_19  and  C_20
REMARK    7  A    between atoms: C_21  and  C_23
REMARK    8  A    between atoms: C_23  and  C_24
REMARK    9  A    between atoms: C_24  and  C_25
REMARK                            x       y       z     vdW  Elec       q    Type
REMARK                         _______ _______ _______ _____ _____    ______ ____
ROOT
ATOM      1  C   UNL     1      31.623 -11.079 -22.221  0.00  0.00    -0.106 C 
ENDROOT
BRANCH   1   2
ATOM      2  N   UNL     1      30.964  -9.839 -22.616  0.00  0.00    +0.384 N 
ATOM      3  H   UNL     1      30.208 -10.056 -23.266  0.00  0.00    -0.085 HD
ATOM      4  H   UNL     1      30.595  -9.385 -21.780  0.00  0.00    -0.085 HD
BRANCH   2   9
ATOM      5  C   UNL     1      32.930  -8.339 -22.268  0.00  0.00    -0.019 C 
ATOM      6  C   UNL     1      31.181  -7.780 -23.997  0.00  0.00    -0.019 C 
ATOM      7  C   UNL     1      33.201  -6.288 -23.719  0.00  0.00    -0.000 C 
ATOM      8  C   UNL     1      31.420  -6.340 -21.936  0.00  0.00    -0.000 C 
ATOM      9  C   UNL     1      31.904  -8.935 -23.262  0.00  0.00    -0.062 C 
ATOM     10  C   UNL     1      33.939  -7.434 -23.003  0.00  0.00    -0.002 C 
ATOM     11  C   UNL     1      32.169  -7.485 -21.232  0.00  0.00    -0.002 C 
ATOM     12  C   UNL     1      32.198  -6.877 -24.726  0.00  0.00    -0.002 C 
ATOM     13  C   UNL     1      30.429  -6.930 -22.954  0.00  0.00    -0.002 C 
ATOM     14  C   UNL     1      32.436  -5.454 -22.677  0.00  0.00    -0.000 C 
ENDBRANCH   2   9
ENDBRANCH   1   2
BRANCH   1  15
ATOM     15  C   UNL     1      31.241 -11.446 -20.790  0.00  0.00    -0.105 C 
BRANCH  15  16
ATOM     16  N   UNL     1      32.081 -12.532 -20.308  0.00  0.00    +0.385 N 
ATOM     17  H   UNL     1      31.641 -12.959 -19.494  0.00  0.00    -0.084 HD
ATOM     18  H   UNL     1      32.995 -12.152 -20.059  0.00  0.00    -0.084 HD
BRANCH  16  19
ATOM     19  C   UNL     1      32.262 -13.546 -21.344  0.00  0.00    -0.055 C 
BRANCH  19  20
ATOM     20  C   UNL     1      33.051 -14.715 -20.833  0.00  0.00    -0.058 C 
ATOM     21  C   UNL     1      34.064 -15.364 -21.443  0.00  0.00    -0.050 C 
ATOM     22  C   UNL     1      34.524 -14.926 -22.809  0.00  0.00    +0.026 C 
BRANCH  21  23
ATOM     23  C   UNL     1      34.837 -16.521 -20.845  0.00  0.00    +0.026 C 
BRANCH  23  24
ATOM     24  C   UNL     1      35.205 -17.610 -21.861  0.00  0.00    +0.030 C 
BRANCH  24  25
ATOM     25  C   UNL     1      35.796 -18.832 -21.213  0.00  0.00    -0.034 C 
ATOM     26  C   UNL     1      35.150 -19.896 -20.701  0.00  0.00    -0.048 C 
ATOM     27  C   UNL     1      33.648 -19.970 -20.751  0.00  0.00    +0.026 C 
ATOM     28  C   UNL     1      35.807 -21.088 -20.065  0.00  0.00    +0.026 C 
ENDBRANCH  24  25
ENDBRANCH  23  24
ENDBRANCH  21  23
ENDBRANCH  19  20
ENDBRANCH  16  19
ENDBRANCH  15  16
ENDBRANCH   1  15
TORSDOF 9
ENDMDL
MODEL 9
REMARK VINA RESULT:      -8.5      1.443     10.374
REMARK  Name = 5274428
REMARK  9 active torsions:
REMARK  status: ('A' for Active; 'I' for Inactive)
REMARK    1  A    between atoms: C_1  and  N_2
REMARK    2  A    between atoms: C_1  and  C_15
REMARK    3  A    between atoms: N_2  and  C_9
REMARK    4  A    between atoms: C_15  and  N_16
REMARK    5  A    between atoms: N_16  and  C_19
REMARK    6  A    between atoms: C_19  and  C_20
REMARK    7  A    between atoms: C_21  and  C_23
REMARK    8  A    between atoms: C_23  and  C_24
REMARK    9  A    between atoms: C_24  and  C_25
REMARK                            x       y       z     vdW  Elec       q    Type
REMARK                         _______ _______ _______ _____ _____    ______ ____
ROOT
ATOM      1  C   UNL     1      33.991 -15.201 -24.221  0.00  0.00    -0.106 C 
ENDROOT
BRANCH   1   2
ATOM      2  N   UNL     1      34.850 -15.920 -23.285  0.00  0.00    +0.384 N 
ATOM      3  H   UNL     1      35.758 -16.080 -23.721  0.00  0.00    -0.085 HD
ATOM      4  H   UNL     1      34.954 -15.357 -22.441  0.00  0.00    -0.085 HD
BRANCH   2   9
ATOM      5  C   UNL     1      34.036 -17.338 -21.397  0.00  0.00    -0.019 C 
ATOM      6  C   UNL     1      35.121 -18.391 -23.416  0.00  0.00    -0.019 C 
ATOM      7  C   UNL     1      34.236 -19.852 -21.555  0.00  0.00    -0.000 C 
ATOM      8  C   UNL     1      36.295 -18.448 -21.180  0.00  0.00    -0.000 C 
ATOM      9  C   UNL     1      34.262 -17.201 -22.922  0.00  0.00    -0.062 C 
ATOM     10  C   UNL     1      33.361 -18.684 -21.064  0.00  0.00    -0.002 C 
ATOM     11  C   UNL     1      35.408 -17.290 -20.693  0.00  0.00    -0.002 C 
ATOM     12  C   UNL     1      34.441 -19.733 -23.075  0.00  0.00    -0.002 C 
ATOM     13  C   UNL     1      36.487 -18.337 -22.703  0.00  0.00    -0.002 C 
ATOM     14  C   UNL     1      35.604 -19.783 -20.855  0.00  0.00    -0.000 C 
ENDBRANCH   2   9
ENDBRANCH   1   2
BRANCH   1  15
ATOM     15  C   UNL     1      33.282 -14.053 -23.510  0.00  0.00    -0.105 C 
BRANCH  15  16
ATOM     16  N   UNL     1      34.083 -12.842 -23.588  0.00  0.00    +0.385 N 
ATOM     17  H   UNL     1      34.974 -13.058 -24.035  0.00  0.00    -0.084 HD
ATOM     18  H   UNL     1      34.237 -12.490 -22.643  0.00  0.00    -0.084 HD
BRANCH  16  19
ATOM     19  C   UNL     1      33.394 -11.813 -24.364  0.00  0.00    -0.055 C 
BRANCH  19  20
ATOM     20  C   UNL     1      33.743 -10.437 -23.880  0.00  0.00    -0.058 C 
ATOM     21  C   UNL     1      34.686  -9.602 -24.361  0.00  0.00    -0.050 C 
ATOM     22  C   UNL     1      35.540 -10.023 -25.529  0.00  0.00    +0.026 C 
BRANCH  21  23
ATOM     23  C   UNL     1      34.958  -8.207 -23.836  0.00  0.00    +0.026 C 
BRANCH  23  24
ATOM     24  C   UNL     1      33.860  -7.670 -22.909  0.00  0.00    +0.030 C 
BRANCH  24  25
ATOM     25  C   UNL     1      33.064  -6.558 -23.535  0.00  0.00    -0.034 C 
ATOM     26  C   UNL     1      31.781  -6.582 -23.942  0.00  0.00    -0.048 C 
ATOM     27  C   UNL     1      30.954  -7.828 -23.776  0.00  0.00    +0.026 C 
ATOM     28  C   UNL     1      31.046  -5.429 -24.563  0.00  0.00    +0.026 C 
ENDBRANCH  24  25
ENDBRANCH  23  24
ENDBRANCH  21  23
ENDBRANCH  19  20
ENDBRANCH  16  19
ENDBRANCH  15  16
ENDBRANCH   1  15
TORSDOF 9
ENDMDL
