MODEL 1
REMARK VINA RESULT:      -9.4      0.000      0.000
REMARK  Name = 5388962
REMARK  11 active torsions:
REMARK  status: ('A' for Active; 'I' for Inactive)
REMARK    1  A    between atoms: N_1  and  CA_4
REMARK    2  A    between atoms: N_1  and  C_17
REMARK    3  A    between atoms: CA_4  and  C_12
REMARK    4  A    between atoms: CA_8  and  C_14
REMARK    5  A    between atoms: C_14  and  O_15
REMARK    6  A    between atoms: C_17  and  C_19
REMARK    7  A    between atoms: C_17  and  C_23
REMARK    8  A    between atoms: C_19  and  O_20
REMARK    9  A    between atoms: O_20  and  C_21
REMARK   10  A    between atoms: C_23  and  C_24
REMARK   11  A    between atoms: C_24  and  C_25
REMARK                            x       y       z     vdW  Elec       q    Type
REMARK                         _______ _______ _______ _____ _____    ______ ____
ROOT
ATOM      1  N   ALA A   1      35.275 -22.924 -14.982  0.00  0.00    +0.399 N 
ATOM      2  H1  ALA A   1      35.460 -22.882 -13.979  0.00  0.00    -0.083 HD
ATOM      3  H2  ALA A   1      34.785 -22.086 -15.292  0.00  0.00    -0.083 HD
ENDROOT
BRANCH   1   4
ATOM      4  CA  ALA A   1      34.437 -24.078 -15.260  0.00  0.00    +0.018 C 
ATOM      5  CB  ALA A   1      35.185 -25.371 -15.005  0.00  0.00    -0.014 C 
BRANCH   4  12
ATOM      6  O   ALA A   1      33.353 -24.267 -13.149  0.00  0.00    -0.277 OA
ATOM      7  N   ALA A   1      32.061 -23.577 -14.941  0.00  0.00    -0.273 N 
ATOM      8  CA  ALA A   1      30.859 -23.279 -14.174  0.00  0.00    +0.174 C 
ATOM      9  CB  ALA A   1      29.991 -22.454 -15.117  0.00  0.00    +0.033 C 
ATOM     10  CG  ALA A   1      30.399 -22.954 -16.502  0.00  0.00    +0.024 C 
ATOM     11  CD  ALA A   1      31.887 -23.231 -16.349  0.00  0.00    +0.094 C 
ATOM     12  C   ALA A   1      33.244 -23.984 -14.343  0.00  0.00    +0.206 C 
BRANCH   8  14
ATOM     13  OXT ALA A   1      29.543 -25.263 -14.595  0.00  0.00    -0.248 OA
ATOM     14  C   ALA A   1      30.217 -24.590 -13.831  0.00  0.00    +0.332 C 
BRANCH  14  15
ATOM     15  O   ALA A   1      30.484 -24.931 -12.546  0.00  0.00    -0.479 OA
ATOM     16  H   ALA A   1      29.842 -25.387 -12.039  0.00  0.00    +0.295 HD
ENDBRANCH  14  15
ENDBRANCH   8  14
ENDBRANCH   4  12
ENDBRANCH   1   4
BRANCH   1  17
ATOM     17  C   UNK A   0      36.543 -23.012 -15.697  0.00  0.00    +0.041 C 
BRANCH  17  19
ATOM     18  O   UNK A   0      37.594 -22.757 -13.508  0.00  0.00    -0.252 OA
ATOM     19  C   UNK A   0      37.643 -23.166 -14.662  0.00  0.00    +0.297 C 
BRANCH  19  20
ATOM     20  O   UNK A   0      38.693 -23.843 -15.220  0.00  0.00    -0.450 OA
BRANCH  20  21
ATOM     21  C   UNK A   0      38.835 -25.207 -14.812  0.00  0.00    +0.208 C 
ATOM     22  C   UNK A   0      40.210 -25.401 -14.208  0.00  0.00    +0.051 C 
ENDBRANCH  20  21
ENDBRANCH  19  20
ENDBRANCH  17  19
BRANCH  17  23
ATOM     23  C   UNK A   0      36.803 -21.758 -16.546  0.00  0.00    -0.006 C 
BRANCH  23  24
ATOM     24  C   UNK A   0      36.969 -22.008 -18.052  0.00  0.00    +0.025 C 
BRANCH  24  25
ATOM     25  C   UNK A   0      35.813 -21.512 -18.883  0.00  0.00    -0.022 C 
ATOM     26  C   UNK A   0      36.043 -20.571 -19.875  0.00  0.00    -0.004 C 
ATOM     27  C   UNK A   0      34.540 -22.005 -18.642  0.00  0.00    -0.004 C 
ATOM     28  C   UNK A   0      34.974 -20.112 -20.644  0.00  0.00    -0.000 C 
ATOM     29  C   UNK A   0      33.471 -21.546 -19.412  0.00  0.00    -0.000 C 
ATOM     30  C   UNK A   0      33.687 -20.600 -20.413  0.00  0.00    -0.000 C 
ENDBRANCH  24  25
ENDBRANCH  23  24
ENDBRANCH  17  23
ENDBRANCH   1  17
TORSDOF 11
ENDMDL
MODEL 2
REMARK VINA RESULT:      -9.4      1.732      5.778
REMARK  Name = 5388962
REMARK  11 active torsions:
REMARK  status: ('A' for Active; 'I' for Inactive)
REMARK    1  A    between atoms: N_1  and  CA_4
REMARK    2  A    between atoms: N_1  and  C_17
REMARK    3  A    between atoms: CA_4  and  C_12
REMARK    4  A    between atoms: CA_8  and  C_14
REMARK    5  A    between atoms: C_14  and  O_15
REMARK    6  A    between atoms: C_17  and  C_19
REMARK    7  A    between atoms: C_17  and  C_23
REMARK    8  A    between atoms: C_19  and  O_20
REMARK    9  A    between atoms: O_20  and  C_21
REMARK   10  A    between atoms: C_23  and  C_24
REMARK   11  A    between atoms: C_24  and  C_25
REMARK                            x       y       z     vdW  Elec       q    Type
REMARK                         _______ _______ _______ _____ _____    ______ ____
ROOT
ATOM      1  N   ALA A   1      34.238 -24.189 -15.741  0.00  0.00    +0.399 N 
ATOM      2  H1  ALA A   1      33.925 -24.764 -14.959  0.00  0.00    -0.083 HD
ATOM      3  H2  ALA A   1      34.241 -24.730 -16.606  0.00  0.00    -0.083 HD
ENDROOT
BRANCH   1   4
ATOM      4  CA  ALA A   1      35.592 -23.730 -15.480  0.00  0.00    +0.018 C 
ATOM      5  CB  ALA A   1      35.692 -22.224 -15.609  0.00  0.00    -0.014 C 
BRANCH   4  12
ATOM      6  O   ALA A   1      35.082 -24.090 -13.182  0.00  0.00    -0.277 OA
ATOM      7  N   ALA A   1      37.235 -24.583 -13.877  0.00  0.00    -0.273 N 
ATOM      8  CA  ALA A   1      37.682 -25.175 -12.623  0.00  0.00    +0.174 C 
ATOM      9  CB  ALA A   1      38.971 -25.907 -12.978  0.00  0.00    +0.033 C 
ATOM     10  CG  ALA A   1      39.524 -25.103 -14.152  0.00  0.00    +0.024 C 
ATOM     11  CD  ALA A   1      38.272 -24.672 -14.901  0.00  0.00    +0.094 C 
ATOM     12  C   ALA A   1      35.932 -24.151 -14.073  0.00  0.00    +0.206 C 
BRANCH   8  14
ATOM     13  OXT ALA A   1      38.876 -23.277 -11.716  0.00  0.00    -0.248 OA
ATOM     14  C   ALA A   1      37.928 -24.047 -11.666  0.00  0.00    +0.332 C 
BRANCH  14  15
ATOM     15  O   ALA A   1      36.953 -23.996 -10.726  0.00  0.00    -0.479 OA
ATOM     16  H   ALA A   1      36.978 -24.579  -9.993  0.00  0.00    +0.295 HD
ENDBRANCH  14  15
ENDBRANCH   8  14
ENDBRANCH   4  12
ENDBRANCH   1   4
BRANCH   1  17
ATOM     17  C   UNK A   0      33.325 -23.064 -15.901  0.00  0.00    +0.041 C 
BRANCH  17  19
ATOM     18  O   UNK A   0      31.489 -22.339 -14.464  0.00  0.00    -0.252 OA
ATOM     19  C   UNK A   0      32.204 -23.237 -14.890  0.00  0.00    +0.297 C 
BRANCH  19  20
ATOM     20  O   UNK A   0      32.115 -24.556 -14.541  0.00  0.00    -0.450 OA
BRANCH  20  21
ATOM     21  C   UNK A   0      30.911 -24.936 -13.866  0.00  0.00    +0.208 C 
ATOM     22  C   UNK A   0      29.933 -25.494 -14.878  0.00  0.00    +0.051 C 
ENDBRANCH  20  21
ENDBRANCH  19  20
ENDBRANCH  17  19
BRANCH  17  23
ATOM     23  C   UNK A   0      32.737 -23.007 -17.320  0.00  0.00    -0.006 C 
BRANCH  23  24
ATOM     24  C   UNK A   0      33.739 -23.262 -18.455  0.00  0.00    +0.025 C 
BRANCH  24  25
ATOM     25  C   UNK A   0      34.068 -22.034 -19.265  0.00  0.00    -0.022 C 
ATOM     26  C   UNK A   0      33.038 -21.229 -19.729  0.00  0.00    -0.004 C 
ATOM     27  C   UNK A   0      35.394 -21.728 -19.532  0.00  0.00    -0.004 C 
ATOM     28  C   UNK A   0      33.342 -20.092 -20.477  0.00  0.00    -0.000 C 
ATOM     29  C   UNK A   0      35.697 -20.591 -20.280  0.00  0.00    -0.000 C 
ATOM     30  C   UNK A   0      34.672 -19.773 -20.753  0.00  0.00    -0.000 C 
ENDBRANCH  24  25
ENDBRANCH  23  24
ENDBRANCH  17  23
ENDBRANCH   1  17
TORSDOF 11
ENDMDL
MODEL 3
REMARK VINA RESULT:      -8.8      1.722      5.987
REMARK  Name = 5388962
REMARK  11 active torsions:
REMARK  status: ('A' for Active; 'I' for Inactive)
REMARK    1  A    between atoms: N_1  and  CA_4
REMARK    2  A    between atoms: N_1  and  C_17
REMARK    3  A    between atoms: CA_4  and  C_12
REMARK    4  A    between atoms: CA_8  and  C_14
REMARK    5  A    between atoms: C_14  and  O_15
REMARK    6  A    between atoms: C_17  and  C_19
REMARK    7  A    between atoms: C_17  and  C_23
REMARK    8  A    between atoms: C_19  and  O_20
REMARK    9  A    between atoms: O_20  and  C_21
REMARK   10  A    between atoms: C_23  and  C_24
REMARK   11  A    between atoms: C_24  and  C_25
REMARK                            x       y       z     vdW  Elec       q    Type
REMARK                         _______ _______ _______ _____ _____    ______ ____
ROOT
ATOM      1  N   ALA A   1      32.274 -23.701 -15.644  0.00  0.00    +0.399 N 
ATOM      2  H1  ALA A   1      31.755 -24.554 -15.433  0.00  0.00    -0.083 HD
ATOM      3  H2  ALA A   1      33.072 -23.905 -16.244  0.00  0.00    -0.083 HD
ENDROOT
BRANCH   1   4
ATOM      4  CA  ALA A   1      32.766 -23.128 -14.402  0.00  0.00    +0.018 C 
ATOM      5  CB  ALA A   1      31.626 -22.834 -13.448  0.00  0.00    -0.014 C 
BRANCH   4  12
ATOM      6  O   ALA A   1      33.267 -25.004 -13.024  0.00  0.00    -0.277 OA
ATOM      7  N   ALA A   1      35.033 -24.017 -14.149  0.00  0.00    -0.273 N 
ATOM      8  CA  ALA A   1      36.038 -25.007 -13.781  0.00  0.00    +0.174 C 
ATOM      9  CB  ALA A   1      37.204 -24.746 -14.727  0.00  0.00    +0.033 C 
ATOM     10  CG  ALA A   1      37.091 -23.252 -15.026  0.00  0.00    +0.024 C 
ATOM     11  CD  ALA A   1      35.588 -23.015 -15.054  0.00  0.00    +0.094 C 
ATOM     12  C   ALA A   1      33.700 -24.142 -13.792  0.00  0.00    +0.206 C 
BRANCH   8  14
ATOM     13  OXT ALA A   1      36.414 -23.648 -11.816  0.00  0.00    -0.248 OA
ATOM     14  C   ALA A   1      36.411 -24.746 -12.352  0.00  0.00    +0.332 C 
BRANCH  14  15
ATOM     15  O   ALA A   1      36.751 -25.901 -11.729  0.00  0.00    -0.479 OA
ATOM     16  H   ALA A   1      37.181 -25.875 -10.897  0.00  0.00    +0.295 HD
ENDBRANCH  14  15
ENDBRANCH   8  14
ENDBRANCH   4  12
ENDBRANCH   1   4
BRANCH   1  17
ATOM     17  C   UNK A   0      31.395 -22.769 -16.340  0.00  0.00    +0.041 C 
BRANCH  17  19
ATOM     18  O   UNK A   0      29.744 -24.544 -16.048  0.00  0.00    -0.252 OA
ATOM     19  C   UNK A   0      30.034 -23.431 -16.468  0.00  0.00    +0.297 C 
BRANCH  19  20
ATOM     20  O   UNK A   0      29.181 -22.582 -17.119  0.00  0.00    -0.450 OA
BRANCH  20  21
ATOM     21  C   UNK A   0      27.794 -22.927 -17.051  0.00  0.00    +0.208 C 
ATOM     22  C   UNK A   0      27.179 -22.256 -15.842  0.00  0.00    +0.051 C 
ENDBRANCH  20  21
ENDBRANCH  19  20
ENDBRANCH  17  19
BRANCH  17  23
ATOM     23  C   UNK A   0      31.933 -22.417 -17.736  0.00  0.00    -0.006 C 
BRANCH  23  24
ATOM     24  C   UNK A   0      33.384 -22.842 -18.006  0.00  0.00    +0.025 C 
BRANCH  24  25
ATOM     25  C   UNK A   0      34.127 -21.914 -18.933  0.00  0.00    -0.022 C 
ATOM     26  C   UNK A   0      33.413 -21.031 -19.728  0.00  0.00    -0.004 C 
ATOM     27  C   UNK A   0      35.513 -21.957 -18.973  0.00  0.00    -0.004 C 
ATOM     28  C   UNK A   0      34.101 -20.171 -20.585  0.00  0.00    -0.000 C 
ATOM     29  C   UNK A   0      36.200 -21.098 -19.830  0.00  0.00    -0.000 C 
ATOM     30  C   UNK A   0      35.494 -20.205 -20.636  0.00  0.00    -0.000 C 
ENDBRANCH  24  25
ENDBRANCH  23  24
ENDBRANCH  17  23
ENDBRANCH   1  17
TORSDOF 11
ENDMDL
MODEL 4
REMARK VINA RESULT:      -8.7      2.156      5.725
REMARK  Name = 5388962
REMARK  11 active torsions:
REMARK  status: ('A' for Active; 'I' for Inactive)
REMARK    1  A    between atoms: N_1  and  CA_4
REMARK    2  A    between atoms: N_1  and  C_17
REMARK    3  A    between atoms: CA_4  and  C_12
REMARK    4  A    between atoms: CA_8  and  C_14
REMARK    5  A    between atoms: C_14  and  O_15
REMARK    6  A    between atoms: C_17  and  C_19
REMARK    7  A    between atoms: C_17  and  C_23
REMARK    8  A    between atoms: C_19  and  O_20
REMARK    9  A    between atoms: O_20  and  C_21
REMARK   10  A    between atoms: C_23  and  C_24
REMARK   11  A    between atoms: C_24  and  C_25
REMARK                            x       y       z     vdW  Elec       q    Type
REMARK                         _______ _______ _______ _____ _____    ______ ____
ROOT
ATOM      1  N   ALA A   1      33.585 -24.133 -16.113  0.00  0.00    +0.399 N 
ATOM      2  H1  ALA A   1      32.803 -24.752 -15.895  0.00  0.00    -0.083 HD
ATOM      3  H2  ALA A   1      34.273 -24.616 -16.691  0.00  0.00    -0.083 HD
ENDROOT
BRANCH   1   4
ATOM      4  CA  ALA A   1      34.227 -23.726 -14.875  0.00  0.00    +0.018 C 
ATOM      5  CB  ALA A   1      33.323 -23.975 -13.684  0.00  0.00    -0.014 C 
BRANCH   4  12
ATOM      6  O   ALA A   1      35.771 -25.388 -15.598  0.00  0.00    -0.277 OA
ATOM      7  N   ALA A   1      36.257 -24.282 -13.623  0.00  0.00    -0.273 N 
ATOM      8  CA  ALA A   1      37.579 -24.864 -13.428  0.00  0.00    +0.174 C 
ATOM      9  CB  ALA A   1      38.235 -23.988 -12.368  0.00  0.00    +0.033 C 
ATOM     10  CG  ALA A   1      37.052 -23.476 -11.548  0.00  0.00    +0.024 C 
ATOM     11  CD  ALA A   1      35.958 -23.294 -12.590  0.00  0.00    +0.094 C 
ATOM     12  C   ALA A   1      35.486 -24.545 -14.745  0.00  0.00    +0.206 C 
BRANCH   8  14
ATOM     13  OXT ALA A   1      37.047 -26.578 -11.806  0.00  0.00    -0.248 OA
ATOM     14  C   ALA A   1      37.375 -26.268 -12.942  0.00  0.00    +0.332 C 
BRANCH  14  15
ATOM     15  O   ALA A   1      37.610 -27.158 -13.937  0.00  0.00    -0.479 OA
ATOM     16  H   ALA A   1      37.794 -28.053 -13.732  0.00  0.00    +0.295 HD
ENDBRANCH  14  15
ENDBRANCH   8  14
ENDBRANCH   4  12
ENDBRANCH   1   4
BRANCH   1  17
ATOM     17  C   UNK A   0      33.087 -22.978 -16.850  0.00  0.00    +0.041 C 
BRANCH  17  19
ATOM     18  O   UNK A   0      30.817 -22.170 -17.246  0.00  0.00    -0.252 OA
ATOM     19  C   UNK A   0      31.570 -23.048 -16.841  0.00  0.00    +0.297 C 
BRANCH  19  20
ATOM     20  O   UNK A   0      31.179 -24.250 -16.319  0.00  0.00    -0.450 OA
BRANCH  20  21
ATOM     21  C   UNK A   0      29.875 -24.272 -15.728  0.00  0.00    +0.208 C 
ATOM     22  C   UNK A   0      29.840 -25.336 -14.652  0.00  0.00    +0.051 C 
ENDBRANCH  20  21
ENDBRANCH  19  20
ENDBRANCH  17  19
BRANCH  17  23
ATOM     23  C   UNK A   0      33.596 -22.969 -18.301  0.00  0.00    -0.006 C 
BRANCH  23  24
ATOM     24  C   UNK A   0      33.135 -21.774 -19.149  0.00  0.00    +0.025 C 
BRANCH  24  25
ATOM     25  C   UNK A   0      34.268 -20.985 -19.754  0.00  0.00    -0.022 C 
ATOM     26  C   UNK A   0      35.575 -21.302 -19.417  0.00  0.00    -0.004 C 
ATOM     27  C   UNK A   0      33.985 -19.955 -20.639  0.00  0.00    -0.004 C 
ATOM     28  C   UNK A   0      36.624 -20.573 -19.978  0.00  0.00    -0.000 C 
ATOM     29  C   UNK A   0      35.034 -19.226 -21.200  0.00  0.00    -0.000 C 
ATOM     30  C   UNK A   0      36.353 -19.535 -20.869  0.00  0.00    -0.000 C 
ENDBRANCH  24  25
ENDBRANCH  23  24
ENDBRANCH  17  23
ENDBRANCH   1  17
TORSDOF 11
ENDMDL
MODEL 5
REMARK VINA RESULT:      -8.7      1.667      5.706
REMARK  Name = 5388962
REMARK  11 active torsions:
REMARK  status: ('A' for Active; 'I' for Inactive)
REMARK    1  A    between atoms: N_1  and  CA_4
REMARK    2  A    between atoms: N_1  and  C_17
REMARK    3  A    between atoms: CA_4  and  C_12
REMARK    4  A    between atoms: CA_8  and  C_14
REMARK    5  A    between atoms: C_14  and  O_15
REMARK    6  A    between atoms: C_17  and  C_19
REMARK    7  A    between atoms: C_17  and  C_23
REMARK    8  A    between atoms: C_19  and  O_20
REMARK    9  A    between atoms: O_20  and  C_21
REMARK   10  A    between atoms: C_23  and  C_24
REMARK   11  A    between atoms: C_24  and  C_25
REMARK                            x       y       z     vdW  Elec       q    Type
REMARK                         _______ _______ _______ _____ _____    ______ ____
ROOT
ATOM      1  N   ALA A   1      34.931 -22.485 -14.814  0.00  0.00    +0.399 N 
ATOM      2  H1  ALA A   1      35.068 -21.530 -14.483  0.00  0.00    -0.083 HD
ATOM      3  H2  ALA A   1      34.816 -23.124 -14.028  0.00  0.00    -0.083 HD
ENDROOT
BRANCH   1   4
ATOM      4  CA  ALA A   1      36.099 -22.895 -15.576  0.00  0.00    +0.018 C 
ATOM      5  CB  ALA A   1      36.746 -21.708 -16.262  0.00  0.00    -0.014 C 
BRANCH   4  12
ATOM      6  O   ALA A   1      37.772 -22.798 -13.885  0.00  0.00    -0.277 OA
ATOM      7  N   ALA A   1      37.091 -24.899 -14.579  0.00  0.00    -0.273 N 
ATOM      8  CA  ALA A   1      37.844 -25.654 -13.585  0.00  0.00    +0.174 C 
ATOM      9  CB  ALA A   1      37.246 -27.056 -13.629  0.00  0.00    +0.033 C 
ATOM     10  CG  ALA A   1      36.755 -27.187 -15.069  0.00  0.00    +0.024 C 
ATOM     11  CD  ALA A   1      36.271 -25.783 -15.403  0.00  0.00    +0.094 C 
ATOM     12  C   ALA A   1      37.064 -23.513 -14.597  0.00  0.00    +0.206 C 
BRANCH   8  14
ATOM     13  OXT ALA A   1      39.792 -26.471 -14.762  0.00  0.00    -0.248 OA
ATOM     14  C   ALA A   1      39.279 -25.647 -14.020  0.00  0.00    +0.332 C 
BRANCH  14  15
ATOM     15  O   ALA A   1      39.939 -24.597 -13.473  0.00  0.00    -0.479 OA
ATOM     16  H   ALA A   1      40.216 -24.632 -12.579  0.00  0.00    +0.295 HD
ENDBRANCH  14  15
ENDBRANCH   8  14
ENDBRANCH   4  12
ENDBRANCH   1   4
BRANCH   1  17
ATOM     17  C   UNK A   0      33.726 -22.536 -15.634  0.00  0.00    +0.041 C 
BRANCH  17  19
ATOM     18  O   UNK A   0      31.645 -22.448 -14.359  0.00  0.00    -0.252 OA
ATOM     19  C   UNK A   0      32.606 -23.088 -14.768  0.00  0.00    +0.297 C 
BRANCH  19  20
ATOM     20  O   UNK A   0      32.837 -24.414 -14.527  0.00  0.00    -0.450 OA
BRANCH  20  21
ATOM     21  C   UNK A   0      31.816 -25.095 -13.791  0.00  0.00    +0.208 C 
ATOM     22  C   UNK A   0      30.603 -25.272 -14.679  0.00  0.00    +0.051 C 
ENDBRANCH  20  21
ENDBRANCH  19  20
ENDBRANCH  17  19
BRANCH  17  23
ATOM     23  C   UNK A   0      33.916 -23.433 -16.867  0.00  0.00    -0.006 C 
BRANCH  23  24
ATOM     24  C   UNK A   0      33.082 -23.041 -18.096  0.00  0.00    +0.025 C 
BRANCH  24  25
ATOM     25  C   UNK A   0      33.755 -22.032 -18.992  0.00  0.00    -0.022 C 
ATOM     26  C   UNK A   0      35.125 -22.105 -19.191  0.00  0.00    -0.004 C 
ATOM     27  C   UNK A   0      32.992 -21.048 -19.603  0.00  0.00    -0.004 C 
ATOM     28  C   UNK A   0      35.748 -21.173 -20.020  0.00  0.00    -0.000 C 
ATOM     29  C   UNK A   0      33.615 -20.116 -20.433  0.00  0.00    -0.000 C 
ATOM     30  C   UNK A   0      34.993 -20.178 -20.641  0.00  0.00    -0.000 C 
ENDBRANCH  24  25
ENDBRANCH  23  24
ENDBRANCH  17  23
ENDBRANCH   1  17
TORSDOF 11
ENDMDL
MODEL 6
REMARK VINA RESULT:      -8.6      9.927     13.280
REMARK  Name = 5388962
REMARK  11 active torsions:
REMARK  status: ('A' for Active; 'I' for Inactive)
REMARK    1  A    between atoms: N_1  and  CA_4
REMARK    2  A    between atoms: N_1  and  C_17
REMARK    3  A    between atoms: CA_4  and  C_12
REMARK    4  A    between atoms: CA_8  and  C_14
REMARK    5  A    between atoms: C_14  and  O_15
REMARK    6  A    between atoms: C_17  and  C_19
REMARK    7  A    between atoms: C_17  and  C_23
REMARK    8  A    between atoms: C_19  and  O_20
REMARK    9  A    between atoms: O_20  and  C_21
REMARK   10  A    between atoms: C_23  and  C_24
REMARK   11  A    between atoms: C_24  and  C_25
REMARK                            x       y       z     vdW  Elec       q    Type
REMARK                         _______ _______ _______ _____ _____    ______ ____
ROOT
ATOM      1  N   ALA A   1      34.209 -13.988 -24.691  0.00  0.00    +0.399 N 
ATOM      2  H1  ALA A   1      34.784 -13.780 -25.508  0.00  0.00    -0.083 HD
ATOM      3  H2  ALA A   1      34.797 -14.200 -23.885  0.00  0.00    -0.083 HD
ENDROOT
BRANCH   1   4
ATOM      4  CA  ALA A   1      33.382 -15.147 -24.976  0.00  0.00    +0.018 C 
ATOM      5  CB  ALA A   1      32.873 -15.117 -26.404  0.00  0.00    -0.014 C 
BRANCH   4  12
ATOM      6  O   ALA A   1      34.692 -16.987 -25.728  0.00  0.00    -0.277 OA
ATOM      7  N   ALA A   1      34.473 -16.712 -23.440  0.00  0.00    -0.273 N 
ATOM      8  CA  ALA A   1      35.411 -17.758 -23.056  0.00  0.00    +0.174 C 
ATOM      9  CB  ALA A   1      35.698 -17.499 -21.582  0.00  0.00    +0.033 C 
ATOM     10  CG  ALA A   1      34.414 -16.841 -21.081  0.00  0.00    +0.024 C 
ATOM     11  CD  ALA A   1      33.965 -16.004 -22.269  0.00  0.00    +0.094 C 
ATOM     12  C   ALA A   1      34.245 -16.365 -24.763  0.00  0.00    +0.206 C 
BRANCH   8  14
ATOM     13  OXT ALA A   1      34.048 -19.654 -22.427  0.00  0.00    -0.248 OA
ATOM     14  C   ALA A   1      34.719 -19.071 -23.267  0.00  0.00    +0.332 C 
BRANCH  14  15
ATOM     15  O   ALA A   1      34.940 -19.533 -24.522  0.00  0.00    -0.479 OA
ATOM     16  H   ALA A   1      35.680 -19.228 -25.010  0.00  0.00    +0.295 HD
ENDBRANCH  14  15
ENDBRANCH   8  14
ENDBRANCH   4  12
ENDBRANCH   1   4
BRANCH   1  17
ATOM     17  C   UNK A   0      33.391 -12.823 -24.376  0.00  0.00    +0.041 C 
BRANCH  17  19
ATOM     18  O   UNK A   0      34.278 -11.493 -26.221  0.00  0.00    -0.252 OA
ATOM     19  C   UNK A   0      34.043 -11.615 -25.025  0.00  0.00    +0.297 C 
BRANCH  19  20
ATOM     20  O   UNK A   0      34.317 -10.681 -24.063  0.00  0.00    -0.450 OA
BRANCH  20  21
ATOM     21  C   UNK A   0      35.069  -9.546 -24.502  0.00  0.00    +0.208 C 
ATOM     22  C   UNK A   0      34.582  -8.317 -23.764  0.00  0.00    +0.051 C 
ENDBRANCH  20  21
ENDBRANCH  19  20
ENDBRANCH  17  19
BRANCH  17  23
ATOM     23  C   UNK A   0      33.283 -12.599 -22.859  0.00  0.00    -0.006 C 
BRANCH  23  24
ATOM     24  C   UNK A   0      31.862 -12.347 -22.333  0.00  0.00    +0.025 C 
BRANCH  24  25
ATOM     25  C   UNK A   0      31.785 -11.267 -21.283  0.00  0.00    -0.022 C 
ATOM     26  C   UNK A   0      31.984  -9.945 -21.651  0.00  0.00    -0.004 C 
ATOM     27  C   UNK A   0      31.515 -11.614 -19.968  0.00  0.00    -0.004 C 
ATOM     28  C   UNK A   0      31.911  -8.946 -20.680  0.00  0.00    -0.000 C 
ATOM     29  C   UNK A   0      31.442 -10.615 -18.998  0.00  0.00    -0.000 C 
ATOM     30  C   UNK A   0      31.641  -9.281 -19.353  0.00  0.00    -0.000 C 
ENDBRANCH  24  25
ENDBRANCH  23  24
ENDBRANCH  17  23
ENDBRANCH   1  17
TORSDOF 11
ENDMDL
MODEL 7
REMARK VINA RESULT:      -8.5     10.403     13.583
REMARK  Name = 5388962
REMARK  11 active torsions:
REMARK  status: ('A' for Active; 'I' for Inactive)
REMARK    1  A    between atoms: N_1  and  CA_4
REMARK    2  A    between atoms: N_1  and  C_17
REMARK    3  A    between atoms: CA_4  and  C_12
REMARK    4  A    between atoms: CA_8  and  C_14
REMARK    5  A    between atoms: C_14  and  O_15
REMARK    6  A    between atoms: C_17  and  C_19
REMARK    7  A    between atoms: C_17  and  C_23
REMARK    8  A    between atoms: C_19  and  O_20
REMARK    9  A    between atoms: O_20  and  C_21
REMARK   10  A    between atoms: C_23  and  C_24
REMARK   11  A    between atoms: C_24  and  C_25
REMARK                            x       y       z     vdW  Elec       q    Type
REMARK                         _______ _______ _______ _____ _____    ______ ____
ROOT
ATOM      1  N   ALA A   1      32.995 -13.508 -23.833  0.00  0.00    +0.399 N 
ATOM      2  H1  ALA A   1      32.437 -13.707 -24.665  0.00  0.00    -0.083 HD
ATOM      3  H2  ALA A   1      32.393 -13.379 -23.021  0.00  0.00    -0.083 HD
ENDROOT
BRANCH   1   4
ATOM      4  CA  ALA A   1      33.746 -12.283 -24.049  0.00  0.00    +0.018 C 
ATOM      5  CB  ALA A   1      33.843 -11.956 -25.526  0.00  0.00    -0.014 C 
BRANCH   4  12
ATOM      6  O   ALA A   1      31.993 -11.439 -22.677  0.00  0.00    -0.277 OA
ATOM      7  N   ALA A   1      33.549  -9.915 -23.459  0.00  0.00    -0.273 N 
ATOM      8  CA  ALA A   1      33.059  -8.772 -22.698  0.00  0.00    +0.174 C 
ATOM      9  CB  ALA A   1      34.178  -7.741 -22.785  0.00  0.00    +0.033 C 
ATOM     10  CG  ALA A   1      34.846  -8.053 -24.122  0.00  0.00    +0.024 C 
ATOM     11  CD  ALA A   1      34.749  -9.568 -24.215  0.00  0.00    +0.094 C 
ATOM     12  C   ALA A   1      33.009 -11.184 -23.326  0.00  0.00    +0.206 C 
BRANCH   8  14
ATOM     13  OXT ALA A   1      31.748  -7.364 -24.163  0.00  0.00    -0.248 OA
ATOM     14  C   ALA A   1      31.808  -8.296 -23.375  0.00  0.00    +0.332 C 
BRANCH  14  15
ATOM     15  O   ALA A   1      30.743  -9.039 -22.989  0.00  0.00    -0.479 OA
ATOM     16  H   ALA A   1      30.844  -9.957 -22.829  0.00  0.00    +0.295 HD
ENDBRANCH  14  15
ENDBRANCH   8  14
ENDBRANCH   4  12
ENDBRANCH   1   4
BRANCH   1  17
ATOM     17  C   UNK A   0      33.887 -14.632 -23.577  0.00  0.00    +0.041 C 
BRANCH  17  19
ATOM     18  O   UNK A   0      33.155 -15.355 -25.792  0.00  0.00    -0.252 OA
ATOM     19  C   UNK A   0      33.832 -15.546 -24.790  0.00  0.00    +0.297 C 
BRANCH  19  20
ATOM     20  O   UNK A   0      34.667 -16.611 -24.587  0.00  0.00    -0.450 OA
BRANCH  20  21
ATOM     21  C   UNK A   0      34.347 -17.795 -25.324  0.00  0.00    +0.208 C 
ATOM     22  C   UNK A   0      34.666 -19.006 -24.473  0.00  0.00    +0.051 C 
ENDBRANCH  20  21
ENDBRANCH  19  20
ENDBRANCH  17  19
BRANCH  17  23
ATOM     23  C   UNK A   0      33.469 -15.414 -22.322  0.00  0.00    -0.006 C 
BRANCH  23  24
ATOM     24  C   UNK A   0      34.625 -15.880 -21.425  0.00  0.00    +0.025 C 
BRANCH  24  25
ATOM     25  C   UNK A   0      34.661 -17.372 -21.206  0.00  0.00    -0.022 C 
ATOM     26  C   UNK A   0      35.884 -18.025 -21.176  0.00  0.00    -0.004 C 
ATOM     27  C   UNK A   0      33.472 -18.064 -21.036  0.00  0.00    -0.004 C 
ATOM     28  C   UNK A   0      35.918 -19.405 -20.972  0.00  0.00    -0.000 C 
ATOM     29  C   UNK A   0      33.507 -19.444 -20.832  0.00  0.00    -0.000 C 
ATOM     30  C   UNK A   0      34.729 -20.114 -20.800  0.00  0.00    -0.000 C 
ENDBRANCH  24  25
ENDBRANCH  23  24
ENDBRANCH  17  23
ENDBRANCH   1  17
TORSDOF 11
ENDMDL
MODEL 8
REMARK VINA RESULT:      -8.4      8.762     11.769
REMARK  Name = 5388962
REMARK  11 active torsions:
REMARK  status: ('A' for Active; 'I' for Inactive)
REMARK    1  A    between atoms: N_1  and  CA_4
REMARK    2  A    between atoms: N_1  and  C_17
REMARK    3  A    between atoms: CA_4  and  C_12
REMARK    4  A    between atoms: CA_8  and  C_14
REMARK    5  A    between atoms: C_14  and  O_15
REMARK    6  A    between atoms: C_17  and  C_19
REMARK    7  A    between atoms: C_17  and  C_23
REMARK    8  A    between atoms: C_19  and  O_20
REMARK    9  A    between atoms: O_20  and  C_21
REMARK   10  A    between atoms: C_23  and  C_24
REMARK   11  A    between atoms: C_24  and  C_25
REMARK                            x       y       z     vdW  Elec       q    Type
REMARK                         _______ _______ _______ _____ _____    ______ ____
ROOT
ATOM      1  N   ALA A   1      33.240 -15.849 -22.218  0.00  0.00    +0.399 N 
ATOM      2  H1  ALA A   1      32.801 -15.596 -23.103  0.00  0.00    -0.083 HD
ATOM      3  H2  ALA A   1      32.716 -16.592 -21.757  0.00  0.00    -0.083 HD
ENDROOT
BRANCH   1   4
ATOM      4  CA  ALA A   1      33.255 -14.686 -21.347  0.00  0.00    +0.018 C 
ATOM      5  CB  ALA A   1      34.671 -14.319 -20.951  0.00  0.00    -0.014 C 
BRANCH   4  12
ATOM      6  O   ALA A   1      32.645 -13.554 -23.351  0.00  0.00    -0.277 OA
ATOM      7  N   ALA A   1      32.058 -12.550 -21.350  0.00  0.00    -0.273 N 
ATOM      8  CA  ALA A   1      31.270 -11.470 -21.931  0.00  0.00    +0.174 C 
ATOM      9  CB  ALA A   1      30.479 -10.895 -20.762  0.00  0.00    +0.033 C 
ATOM     10  CG  ALA A   1      31.377 -11.168 -19.557  0.00  0.00    +0.024 C 
ATOM     11  CD  ALA A   1      32.012 -12.510 -19.891  0.00  0.00    +0.094 C 
ATOM     12  C   ALA A   1      32.626 -13.554 -22.119  0.00  0.00    +0.206 C 
BRANCH   8  14
ATOM     13  OXT ALA A   1      32.571  -9.431 -21.946  0.00  0.00    -0.248 OA
ATOM     14  C   ALA A   1      32.237 -10.472 -22.493  0.00  0.00    +0.332 C 
BRANCH  14  15
ATOM     15  O   ALA A   1      32.694 -10.878 -23.703  0.00  0.00    -0.479 OA
ATOM     16  H   ALA A   1      32.717 -10.277 -24.421  0.00  0.00    +0.295 HD
ENDBRANCH  14  15
ENDBRANCH   8  14
ENDBRANCH   4  12
ENDBRANCH   1   4
BRANCH   1  17
ATOM     17  C   UNK A   0      34.593 -16.328 -22.477  0.00  0.00    +0.041 C 
BRANCH  17  19
ATOM     18  O   UNK A   0      34.979 -17.803 -24.384  0.00  0.00    -0.252 OA
ATOM     19  C   UNK A   0      34.673 -16.701 -23.947  0.00  0.00    +0.297 C 
BRANCH  19  20
ATOM     20  O   UNK A   0      34.339 -15.612 -24.706  0.00  0.00    -0.450 OA
BRANCH  20  21
ATOM     21  C   UNK A   0      33.565 -15.889 -25.877  0.00  0.00    +0.208 C 
ATOM     22  C   UNK A   0      33.193 -14.581 -26.542  0.00  0.00    +0.051 C 
ENDBRANCH  20  21
ENDBRANCH  19  20
ENDBRANCH  17  19
BRANCH  17  23
ATOM     23  C   UNK A   0      34.937 -17.552 -21.614  0.00  0.00    -0.006 C 
BRANCH  23  24
ATOM     24  C   UNK A   0      33.771 -18.515 -21.348  0.00  0.00    +0.025 C 
BRANCH  24  25
ATOM     25  C   UNK A   0      34.177 -19.780 -20.636  0.00  0.00    -0.022 C 
ATOM     26  C   UNK A   0      33.202 -20.580 -20.060  0.00  0.00    -0.004 C 
ATOM     27  C   UNK A   0      35.519 -20.124 -20.570  0.00  0.00    -0.004 C 
ATOM     28  C   UNK A   0      33.577 -21.752 -19.402  0.00  0.00    -0.000 C 
ATOM     29  C   UNK A   0      35.894 -21.296 -19.912  0.00  0.00    -0.000 C 
ATOM     30  C   UNK A   0      34.923 -22.109 -19.328  0.00  0.00    -0.000 C 
ENDBRANCH  24  25
ENDBRANCH  23  24
ENDBRANCH  17  23
ENDBRANCH   1  17
TORSDOF 11
ENDMDL
MODEL 9
REMARK VINA RESULT:      -8.4     10.763     14.041
REMARK  Name = 5388962
REMARK  11 active torsions:
REMARK  status: ('A' for Active; 'I' for Inactive)
REMARK    1  A    between atoms: N_1  and  CA_4
REMARK    2  A    between atoms: N_1  and  C_17
REMARK    3  A    between atoms: CA_4  and  C_12
REMARK    4  A    between atoms: CA_8  and  C_14
REMARK    5  A    between atoms: C_14  and  O_15
REMARK    6  A    between atoms: C_17  and  C_19
REMARK    7  A    between atoms: C_17  and  C_23
REMARK    8  A    between atoms: C_19  and  O_20
REMARK    9  A    between atoms: O_20  and  C_21
REMARK   10  A    between atoms: C_23  and  C_24
REMARK   11  A    between atoms: C_24  and  C_25
REMARK                            x       y       z     vdW  Elec       q    Type
REMARK                         _______ _______ _______ _____ _____    ______ ____
ROOT
ATOM      1  N   ALA A   1      34.136 -13.343 -24.119  0.00  0.00    +0.399 N 
ATOM      2  H1  ALA A   1      34.952 -13.303 -24.730  0.00  0.00    -0.083 HD
ATOM      3  H2  ALA A   1      34.418 -13.531 -23.157  0.00  0.00    -0.083 HD
ENDROOT
BRANCH   1   4
ATOM      4  CA  ALA A   1      33.265 -14.418 -24.562  0.00  0.00    +0.018 C 
ATOM      5  CB  ALA A   1      32.675 -14.115 -25.925  0.00  0.00    -0.014 C 
BRANCH   4  12
ATOM      6  O   ALA A   1      34.484 -16.102 -25.721  0.00  0.00    -0.277 OA
ATOM      7  N   ALA A   1      34.401 -16.257 -23.413  0.00  0.00    -0.273 N 
ATOM      8  CA  ALA A   1      35.333 -17.370 -23.287  0.00  0.00    +0.174 C 
ATOM      9  CB  ALA A   1      35.709 -17.396 -21.810  0.00  0.00    +0.033 C 
ATOM     10  CG  ALA A   1      34.472 -16.826 -21.120  0.00  0.00    +0.024 C 
ATOM     11  CD  ALA A   1      33.977 -15.775 -22.102  0.00  0.00    +0.094 C 
ATOM     12  C   ALA A   1      34.108 -15.665 -24.632  0.00  0.00    +0.206 C 
BRANCH   8  14
ATOM     13  OXT ALA A   1      34.100 -19.419 -22.927  0.00  0.00    -0.248 OA
ATOM     14  C   ALA A   1      34.598 -18.611 -23.697  0.00  0.00    +0.332 C 
BRANCH  14  15
ATOM     15  O   ALA A   1      34.560 -18.721 -25.047  0.00  0.00    -0.479 OA
ATOM     16  H   ALA A   1      35.092 -18.161 -25.578  0.00  0.00    +0.295 HD
ENDBRANCH  14  15
ENDBRANCH   8  14
ENDBRANCH   4  12
ENDBRANCH   1   4
BRANCH   1  17
ATOM     17  C   UNK A   0      33.448 -12.059 -24.158  0.00  0.00    +0.041 C 
BRANCH  17  19
ATOM     18  O   UNK A   0      34.795 -11.132 -25.971  0.00  0.00    -0.252 OA
ATOM     19  C   UNK A   0      34.380 -11.059 -24.822  0.00  0.00    +0.297 C 
BRANCH  19  20
ATOM     20  O   UNK A   0      34.673 -10.061 -23.934  0.00  0.00    -0.450 OA
BRANCH  20  21
ATOM     21  C   UNK A   0      34.757  -8.745 -24.490  0.00  0.00    +0.208 C 
ATOM     22  C   UNK A   0      34.889  -7.741 -23.364  0.00  0.00    +0.051 C 
ENDBRANCH  20  21
ENDBRANCH  19  20
ENDBRANCH  17  19
BRANCH  17  23
ATOM     23  C   UNK A   0      33.082 -11.567 -22.748  0.00  0.00    -0.006 C 
BRANCH  23  24
ATOM     24  C   UNK A   0      31.683 -10.949 -22.613  0.00  0.00    +0.025 C 
BRANCH  24  25
ATOM     25  C   UNK A   0      31.697  -9.477 -22.285  0.00  0.00    -0.022 C 
ATOM     26  C   UNK A   0      31.235  -8.567 -23.223  0.00  0.00    -0.004 C 
ATOM     27  C   UNK A   0      32.171  -9.059 -21.051  0.00  0.00    -0.004 C 
ATOM     28  C   UNK A   0      31.247  -7.205 -22.920  0.00  0.00    -0.000 C 
ATOM     29  C   UNK A   0      32.183  -7.697 -20.748  0.00  0.00    -0.000 C 
ATOM     30  C   UNK A   0      31.721  -6.770 -21.682  0.00  0.00    -0.000 C 
ENDBRANCH  24  25
ENDBRANCH  23  24
ENDBRANCH  17  23
ENDBRANCH   1  17
TORSDOF 11
ENDMDL
