MODEL 1
REMARK VINA RESULT:     -11.7      0.000      0.000
REMARK  Name = 5326870
REMARK  3 active torsions:
REMARK  status: ('A' for Active; 'I' for Inactive)
REMARK    1  A    between atoms: N_2  and  C_7
REMARK    2  A    between atoms: C_3  and  C_19
REMARK    3  A    between atoms: C_16  and  N_23
REMARK                            x       y       z     vdW  Elec       q    Type
REMARK                         _______ _______ _______ _____ _____    ______ ____
ROOT
ATOM      1  O   UNL     1      34.953 -15.746 -20.836  0.00  0.00    -0.270 OA
ATOM      2  N   UNL     1      34.508 -17.595 -22.219  0.00  0.00    -0.280 N 
ATOM      3  C   UNL     1      34.573 -16.234 -21.897  0.00  0.00    +0.250 C 
ATOM      4  H   UNL     1      34.177 -17.809 -23.121  0.00  0.00    +0.155 HD
ENDROOT
BRANCH   2   7
ATOM      5  N   UNL     1      35.635 -21.958 -19.039  0.00  0.00    -0.312 N 
ATOM      6  C   UNL     1      34.208 -20.608 -20.096  0.00  0.00    +0.016 C 
ATOM      7  C   UNL     1      34.855 -18.686 -21.419  0.00  0.00    +0.051 C 
ATOM      8  C   UNL     1      35.561 -20.840 -19.839  0.00  0.00    +0.048 C 
ATOM      9  C   UNL     1      33.850 -19.510 -20.903  0.00  0.00    +0.016 C 
ATOM     10  C   UNL     1      36.198 -18.940 -21.146  0.00  0.00    +0.016 C 
ATOM     11  C   UNL     1      36.577 -20.025 -20.349  0.00  0.00    +0.016 C 
ATOM     12  C   UNL     1      33.475 -21.626 -19.424  0.00  0.00    +0.017 C 
ATOM     13  C   UNL     1      34.380 -22.439 -18.782  0.00  0.00    +0.062 C 
ATOM     14  H   UNL     1      36.470 -22.353 -18.700  0.00  0.00    +0.152 HD
ENDBRANCH   2   7
BRANCH   3  19
ATOM     15  F   UNL     1      33.329 -15.360 -26.486  0.00  0.00    -0.204 F 
ATOM     16  C   UNL     1      33.403 -13.119 -23.620  0.00  0.00    +0.050 C 
ATOM     17  C   UNL     1      33.846 -13.991 -22.625  0.00  0.00    +0.019 C 
ATOM     18  C   UNL     1      33.229 -13.581 -24.925  0.00  0.00    +0.044 C 
ATOM     19  C   UNL     1      34.104 -15.304 -22.957  0.00  0.00    +0.057 C 
ATOM     20  C   UNL     1      33.496 -14.916 -25.234  0.00  0.00    +0.142 C 
ATOM     21  C   UNL     1      33.939 -15.787 -24.239  0.00  0.00    +0.034 C 
BRANCH  16  23
ATOM     22  O   UNL     1      32.430  -9.091 -22.911  0.00  0.00    -0.350 OA
ATOM     23  N   UNL     1      33.135 -11.783 -23.311  0.00  0.00    -0.303 N 
ATOM     24  C   UNL     1      33.587 -10.749 -24.251  0.00  0.00    +0.123 C 
ATOM     25  C   UNL     1      31.941 -11.437 -22.531  0.00  0.00    +0.123 C 
ATOM     26  C   UNL     1      33.675  -9.406 -23.536  0.00  0.00    +0.164 C 
ATOM     27  C   UNL     1      32.115 -10.056 -21.908  0.00  0.00    +0.164 C 
ENDBRANCH  16  23
ENDBRANCH   3  19
TORSDOF 3
ENDMDL
MODEL 2
REMARK VINA RESULT:     -11.3      1.324      1.733
REMARK  Name = 5326870
REMARK  3 active torsions:
REMARK  status: ('A' for Active; 'I' for Inactive)
REMARK    1  A    between atoms: N_2  and  C_7
REMARK    2  A    between atoms: C_3  and  C_19
REMARK    3  A    between atoms: C_16  and  N_23
REMARK                            x       y       z     vdW  Elec       q    Type
REMARK                         _______ _______ _______ _____ _____    ______ ____
ROOT
ATOM      1  O   UNL     1      35.238 -17.989 -24.391  0.00  0.00    -0.270 OA
ATOM      2  N   UNL     1      34.306 -17.508 -22.286  0.00  0.00    -0.280 N 
ATOM      3  C   UNL     1      34.573 -17.280 -23.642  0.00  0.00    +0.250 C 
ATOM      4  H   UNL     1      33.752 -16.831 -21.835  0.00  0.00    +0.155 HD
ENDROOT
BRANCH   2   7
ATOM      5  N   UNL     1      35.738 -21.807 -19.141  0.00  0.00    -0.312 N 
ATOM      6  C   UNL     1      34.218 -20.545 -20.178  0.00  0.00    +0.016 C 
ATOM      7  C   UNL     1      34.729 -18.579 -21.495  0.00  0.00    +0.051 C 
ATOM      8  C   UNL     1      35.585 -20.693 -19.934  0.00  0.00    +0.048 C 
ATOM      9  C   UNL     1      33.783 -19.468 -20.974  0.00  0.00    +0.016 C 
ATOM     10  C   UNL     1      36.088 -18.749 -21.236  0.00  0.00    +0.016 C 
ATOM     11  C   UNL     1      36.543 -19.811 -20.449  0.00  0.00    +0.016 C 
ATOM     12  C   UNL     1      33.557 -21.611 -19.504  0.00  0.00    +0.017 C 
ATOM     13  C   UNL     1      34.519 -22.369 -18.875  0.00  0.00    +0.062 C 
ATOM     14  H   UNL     1      36.600 -22.150 -18.812  0.00  0.00    +0.152 HD
ENDBRANCH   2   7
BRANCH   3  19
ATOM     15  F   UNL     1      33.287 -14.555 -27.423  0.00  0.00    -0.204 F 
ATOM     16  C   UNL     1      33.038 -13.869 -23.859  0.00  0.00    +0.050 C 
ATOM     17  C   UNL     1      33.576 -15.044 -23.333  0.00  0.00    +0.019 C 
ATOM     18  C   UNL     1      32.941 -13.703 -25.240  0.00  0.00    +0.044 C 
ATOM     19  C   UNL     1      34.003 -16.027 -24.201  0.00  0.00    +0.057 C 
ATOM     20  C   UNL     1      33.380 -14.714 -26.096  0.00  0.00    +0.142 C 
ATOM     21  C   UNL     1      33.917 -15.888 -25.571  0.00  0.00    +0.034 C 
BRANCH  16  23
ATOM     22  O   UNL     1      31.952 -10.848 -21.143  0.00  0.00    -0.350 OA
ATOM     23  N   UNL     1      32.597 -12.856 -23.001  0.00  0.00    -0.303 N 
ATOM     24  C   UNL     1      32.352 -13.198 -21.593  0.00  0.00    +0.123 C 
ATOM     25  C   UNL     1      32.995 -11.466 -23.246  0.00  0.00    +0.123 C 
ATOM     26  C   UNL     1      31.424 -12.163 -20.968  0.00  0.00    +0.164 C 
ATOM     27  C   UNL     1      32.034 -10.522 -22.530  0.00  0.00    +0.164 C 
ENDBRANCH  16  23
ENDBRANCH   3  19
TORSDOF 3
ENDMDL
MODEL 3
REMARK VINA RESULT:     -10.9      2.118      8.827
REMARK  Name = 5326870
REMARK  3 active torsions:
REMARK  status: ('A' for Active; 'I' for Inactive)
REMARK    1  A    between atoms: N_2  and  C_7
REMARK    2  A    between atoms: C_3  and  C_19
REMARK    3  A    between atoms: C_16  and  N_23
REMARK                            x       y       z     vdW  Elec       q    Type
REMARK                         _______ _______ _______ _____ _____    ______ ____
ROOT
ATOM      1  O   UNL     1      34.800 -14.801 -20.899  0.00  0.00    -0.270 OA
ATOM      2  N   UNL     1      33.157 -14.495 -22.554  0.00  0.00    -0.280 N 
ATOM      3  C   UNL     1      34.135 -15.207 -21.848  0.00  0.00    +0.250 C 
ATOM      4  H   UNL     1      32.720 -14.978 -23.292  0.00  0.00    +0.155 HD
ENDROOT
BRANCH   2   7
ATOM      5  N   UNL     1      31.572  -9.250 -21.919  0.00  0.00    -0.312 N 
ATOM      6  C   UNL     1      32.645 -10.863 -23.026  0.00  0.00    +0.016 C 
ATOM      7  C   UNL     1      32.726 -13.183 -22.339  0.00  0.00    +0.051 C 
ATOM      8  C   UNL     1      31.862 -10.595 -21.901  0.00  0.00    +0.048 C 
ATOM      9  C   UNL     1      33.084 -12.182 -23.249  0.00  0.00    +0.016 C 
ATOM     10  C   UNL     1      31.944 -12.889 -21.224  0.00  0.00    +0.016 C 
ATOM     11  C   UNL     1      31.497 -11.586 -20.983  0.00  0.00    +0.016 C 
ATOM     12  C   UNL     1      32.812  -9.631 -23.720  0.00  0.00    +0.017 C 
ATOM     13  C   UNL     1      32.142  -8.659 -23.014  0.00  0.00    +0.062 C 
ATOM     14  H   UNL     1      31.033  -8.781 -21.242  0.00  0.00    +0.152 HD
ENDBRANCH   2   7
BRANCH   3  19
ATOM     15  F   UNL     1      34.944 -18.319 -25.457  0.00  0.00    -0.204 F 
ATOM     16  C   UNL     1      34.721 -18.907 -21.874  0.00  0.00    +0.050 C 
ATOM     17  C   UNL     1      34.475 -17.612 -21.417  0.00  0.00    +0.019 C 
ATOM     18  C   UNL     1      34.879 -19.146 -23.239  0.00  0.00    +0.044 C 
ATOM     19  C   UNL     1      34.394 -16.586 -22.334  0.00  0.00    +0.057 C 
ATOM     20  C   UNL     1      34.793 -18.090 -24.147  0.00  0.00    +0.142 C 
ATOM     21  C   UNL     1      34.547 -16.796 -23.690  0.00  0.00    +0.034 C 
BRANCH  16  23
ATOM     22  O   UNL     1      35.010 -21.902 -18.938  0.00  0.00    -0.350 OA
ATOM     23  N   UNL     1      34.808 -19.965 -20.964  0.00  0.00    -0.303 N 
ATOM     24  C   UNL     1      36.076 -20.165 -20.251  0.00  0.00    +0.123 C 
ATOM     25  C   UNL     1      33.610 -20.412 -20.243  0.00  0.00    +0.123 C 
ATOM     26  C   UNL     1      36.155 -21.596 -19.732  0.00  0.00    +0.164 C 
ATOM     27  C   UNL     1      33.820 -21.829 -19.723  0.00  0.00    +0.164 C 
ENDBRANCH  16  23
ENDBRANCH   3  19
TORSDOF 3
ENDMDL
MODEL 4
REMARK VINA RESULT:     -10.9      5.185     10.494
REMARK  Name = 5326870
REMARK  3 active torsions:
REMARK  status: ('A' for Active; 'I' for Inactive)
REMARK    1  A    between atoms: N_2  and  C_7
REMARK    2  A    between atoms: C_3  and  C_19
REMARK    3  A    between atoms: C_16  and  N_23
REMARK                            x       y       z     vdW  Elec       q    Type
REMARK                         _______ _______ _______ _____ _____    ______ ____
ROOT
ATOM      1  O   UNL     1      36.533 -21.231 -20.188  0.00  0.00    -0.270 OA
ATOM      2  N   UNL     1      34.530 -20.000 -20.158  0.00  0.00    -0.280 N 
ATOM      3  C   UNL     1      35.423 -20.988 -19.724  0.00  0.00    +0.250 C 
ATOM      4  H   UNL     1      33.677 -19.944 -19.669  0.00  0.00    +0.155 HD
ENDROOT
BRANCH   2   7
ATOM      5  N   UNL     1      35.122 -16.560 -24.428  0.00  0.00    -0.312 N 
ATOM      6  C   UNL     1      34.588 -18.543 -23.556  0.00  0.00    +0.016 C 
ATOM      7  C   UNL     1      34.700 -19.084 -21.199  0.00  0.00    +0.051 C 
ATOM      8  C   UNL     1      35.040 -17.258 -23.245  0.00  0.00    +0.048 C 
ATOM      9  C   UNL     1      34.415 -19.472 -22.512  0.00  0.00    +0.016 C 
ATOM     10  C   UNL     1      35.150 -17.796 -20.916  0.00  0.00    +0.016 C 
ATOM     11  C   UNL     1      35.328 -16.856 -21.936  0.00  0.00    +0.016 C 
ATOM     12  C   UNL     1      34.402 -18.589 -24.967  0.00  0.00    +0.017 C 
ATOM     13  C   UNL     1      34.739 -17.355 -25.474  0.00  0.00    +0.062 C 
ATOM     14  H   UNL     1      35.415 -15.623 -24.510  0.00  0.00    +0.152 HD
ENDBRANCH   2   7
BRANCH   3  19
ATOM     15  F   UNL     1      31.888 -23.412 -17.489  0.00  0.00    -0.204 F 
ATOM     16  C   UNL     1      35.382 -22.997 -16.563  0.00  0.00    +0.050 C 
ATOM     17  C   UNL     1      35.833 -22.201 -17.616  0.00  0.00    +0.019 C 
ATOM     18  C   UNL     1      34.049 -23.406 -16.519  0.00  0.00    +0.044 C 
ATOM     19  C   UNL     1      34.942 -21.833 -18.602  0.00  0.00    +0.057 C 
ATOM     20  C   UNL     1      33.168 -23.020 -17.530  0.00  0.00    +0.142 C 
ATOM     21  C   UNL     1      33.619 -22.225 -18.582  0.00  0.00    +0.034 C 
BRANCH  16  23
ATOM     22  O   UNL     1      38.107 -23.896 -13.490  0.00  0.00    -0.350 OA
ATOM     23  N   UNL     1      36.264 -23.384 -15.550  0.00  0.00    -0.303 N 
ATOM     24  C   UNL     1      37.705 -23.214 -15.782  0.00  0.00    +0.123 C 
ATOM     25  C   UNL     1      35.846 -23.308 -14.146  0.00  0.00    +0.123 C 
ATOM     26  C   UNL     1      38.489 -24.126 -14.846  0.00  0.00    +0.164 C 
ATOM     27  C   UNL     1      36.730 -24.215 -13.295  0.00  0.00    +0.164 C 
ENDBRANCH  16  23
ENDBRANCH   3  19
TORSDOF 3
ENDMDL
MODEL 5
REMARK VINA RESULT:     -10.8      2.424      8.712
REMARK  Name = 5326870
REMARK  3 active torsions:
REMARK  status: ('A' for Active; 'I' for Inactive)
REMARK    1  A    between atoms: N_2  and  C_7
REMARK    2  A    between atoms: C_3  and  C_19
REMARK    3  A    between atoms: C_16  and  N_23
REMARK                            x       y       z     vdW  Elec       q    Type
REMARK                         _______ _______ _______ _____ _____    ______ ____
ROOT
ATOM      1  O   UNL     1      34.914 -15.106 -20.541  0.00  0.00    -0.270 OA
ATOM      2  N   UNL     1      33.074 -14.885 -21.989  0.00  0.00    -0.280 N 
ATOM      3  C   UNL     1      34.146 -15.555 -21.387  0.00  0.00    +0.250 C 
ATOM      4  H   UNL     1      32.560 -15.400 -22.652  0.00  0.00    +0.155 HD
ENDROOT
BRANCH   2   7
ATOM      5  N   UNL     1      31.357  -9.766 -20.860  0.00  0.00    -0.312 N 
ATOM      6  C   UNL     1      31.877 -11.848 -20.250  0.00  0.00    +0.016 C 
ATOM      7  C   UNL     1      32.645 -13.574 -21.765  0.00  0.00    +0.051 C 
ATOM      8  C   UNL     1      31.799 -10.978 -21.340  0.00  0.00    +0.048 C 
ATOM      9  C   UNL     1      32.309 -13.171 -20.468  0.00  0.00    +0.016 C 
ATOM     10  C   UNL     1      32.558 -12.686 -22.835  0.00  0.00    +0.016 C 
ATOM     11  C   UNL     1      32.133 -11.368 -22.642  0.00  0.00    +0.016 C 
ATOM     12  C   UNL     1      31.467 -11.115 -19.101  0.00  0.00    +0.017 C 
ATOM     13  C   UNL     1      31.153  -9.839 -19.509  0.00  0.00    +0.062 C 
ATOM     14  H   UNL     1      31.208  -8.963 -21.410  0.00  0.00    +0.152 HD
ENDBRANCH   2   7
BRANCH   3  19
ATOM     15  F   UNL     1      34.953 -18.718 -24.954  0.00  0.00    -0.204 F 
ATOM     16  C   UNL     1      34.608 -19.273 -21.374  0.00  0.00    +0.050 C 
ATOM     17  C   UNL     1      34.393 -17.968 -20.932  0.00  0.00    +0.019 C 
ATOM     18  C   UNL     1      34.797 -19.527 -22.733  0.00  0.00    +0.044 C 
ATOM     19  C   UNL     1      34.373 -16.946 -21.858  0.00  0.00    +0.057 C 
ATOM     20  C   UNL     1      34.772 -18.475 -23.649  0.00  0.00    +0.142 C 
ATOM     21  C   UNL     1      34.558 -17.170 -23.207  0.00  0.00    +0.034 C 
BRANCH  16  23
ATOM     22  O   UNL     1      34.652 -22.618 -18.828  0.00  0.00    -0.350 OA
ATOM     23  N   UNL     1      34.633 -20.328 -20.457  0.00  0.00    -0.303 N 
ATOM     24  C   UNL     1      33.415 -21.133 -20.292  0.00  0.00    +0.123 C 
ATOM     25  C   UNL     1      35.889 -21.036 -20.190  0.00  0.00    +0.123 C 
ATOM     26  C   UNL     1      33.453 -21.854 -18.950  0.00  0.00    +0.164 C 
ATOM     27  C   UNL     1      35.796 -21.765 -18.853  0.00  0.00    +0.164 C 
ENDBRANCH  16  23
ENDBRANCH   3  19
TORSDOF 3
ENDMDL
MODEL 6
REMARK VINA RESULT:     -10.8      4.552      9.998
REMARK  Name = 5326870
REMARK  3 active torsions:
REMARK  status: ('A' for Active; 'I' for Inactive)
REMARK    1  A    between atoms: N_2  and  C_7
REMARK    2  A    between atoms: C_3  and  C_19
REMARK    3  A    between atoms: C_16  and  N_23
REMARK                            x       y       z     vdW  Elec       q    Type
REMARK                         _______ _______ _______ _____ _____    ______ ____
ROOT
ATOM      1  O   UNL     1      30.396 -10.802 -20.819  0.00  0.00    -0.270 OA
ATOM      2  N   UNL     1      32.282 -10.048 -22.003  0.00  0.00    -0.280 N 
ATOM      3  C   UNL     1      31.455 -11.007 -21.405  0.00  0.00    +0.250 C 
ATOM      4  H   UNL     1      33.099 -10.391 -22.432  0.00  0.00    +0.155 HD
ENDROOT
BRANCH   2   7
ATOM      5  N   UNL     1      31.470  -4.615 -22.494  0.00  0.00    -0.312 N 
ATOM      6  C   UNL     1      31.538  -6.680 -23.336  0.00  0.00    +0.016 C 
ATOM      7  C   UNL     1      32.090  -8.666 -22.066  0.00  0.00    +0.051 C 
ATOM      8  C   UNL     1      31.714  -5.930 -22.171  0.00  0.00    +0.048 C 
ATOM      9  C   UNL     1      31.729  -8.074 -23.281  0.00  0.00    +0.016 C 
ATOM     10  C   UNL     1      32.260  -7.895 -20.918  0.00  0.00    +0.016 C 
ATOM     11  C   UNL     1      32.075  -6.509 -20.949  0.00  0.00    +0.016 C 
ATOM     12  C   UNL     1      31.178  -5.768 -24.368  0.00  0.00    +0.017 C 
ATOM     13  C   UNL     1      31.146  -4.507 -23.819  0.00  0.00    +0.062 C 
ATOM     14  H   UNL     1      31.521  -3.861 -21.864  0.00  0.00    +0.152 HD
ENDBRANCH   2   7
BRANCH   3  19
ATOM     15  F   UNL     1      32.556 -15.204 -19.273  0.00  0.00    -0.204 F 
ATOM     16  C   UNL     1      32.769 -14.237 -22.775  0.00  0.00    +0.050 C 
ATOM     17  C   UNL     1      32.311 -12.921 -22.705  0.00  0.00    +0.019 C 
ATOM     18  C   UNL     1      32.852 -15.008 -21.616  0.00  0.00    +0.044 C 
ATOM     19  C   UNL     1      31.945 -12.407 -21.479  0.00  0.00    +0.057 C 
ATOM     20  C   UNL     1      32.476 -14.464 -20.387  0.00  0.00    +0.142 C 
ATOM     21  C   UNL     1      32.018 -13.149 -20.318  0.00  0.00    +0.034 C 
BRANCH  16  23
ATOM     22  O   UNL     1      34.100 -15.684 -26.491  0.00  0.00    -0.350 OA
ATOM     23  N   UNL     1      33.146 -14.783 -24.005  0.00  0.00    -0.303 N 
ATOM     24  C   UNL     1      32.967 -13.963 -25.212  0.00  0.00    +0.123 C 
ATOM     25  C   UNL     1      34.242 -15.756 -24.070  0.00  0.00    +0.123 C 
ATOM     26  C   UNL     1      32.935 -14.861 -26.443  0.00  0.00    +0.164 C 
ATOM     27  C   UNL     1      34.143 -16.558 -25.363  0.00  0.00    +0.164 C 
ENDBRANCH  16  23
ENDBRANCH   3  19
TORSDOF 3
ENDMDL
MODEL 7
REMARK VINA RESULT:     -10.7      4.695     10.423
REMARK  Name = 5326870
REMARK  3 active torsions:
REMARK  status: ('A' for Active; 'I' for Inactive)
REMARK    1  A    between atoms: N_2  and  C_7
REMARK    2  A    between atoms: C_3  and  C_19
REMARK    3  A    between atoms: C_16  and  N_23
REMARK                            x       y       z     vdW  Elec       q    Type
REMARK                         _______ _______ _______ _____ _____    ______ ____
ROOT
ATOM      1  O   UNL     1      32.660 -21.319 -20.464  0.00  0.00    -0.270 OA
ATOM      2  N   UNL     1      34.687 -20.166 -20.161  0.00  0.00    -0.280 N 
ATOM      3  C   UNL     1      33.695 -21.102 -19.842  0.00  0.00    +0.250 C 
ATOM      4  H   UNL     1      35.456 -20.125 -19.547  0.00  0.00    +0.155 HD
ENDROOT
BRANCH   2   7
ATOM      5  N   UNL     1      34.786 -16.493 -24.275  0.00  0.00    -0.312 N 
ATOM      6  C   UNL     1      34.608 -17.028 -22.116  0.00  0.00    +0.016 C 
ATOM      7  C   UNL     1      34.720 -19.284 -21.244  0.00  0.00    +0.051 C 
ATOM      8  C   UNL     1      34.790 -17.554 -23.397  0.00  0.00    +0.048 C 
ATOM      9  C   UNL     1      34.573 -17.911 -21.019  0.00  0.00    +0.016 C 
ATOM     10  C   UNL     1      34.901 -19.782 -22.533  0.00  0.00    +0.016 C 
ATOM     11  C   UNL     1      34.939 -18.925 -23.636  0.00  0.00    +0.016 C 
ATOM     12  C   UNL     1      34.496 -15.616 -22.257  0.00  0.00    +0.017 C 
ATOM     13  C   UNL     1      34.608 -15.319 -23.596  0.00  0.00    +0.062 C 
ATOM     14  H   UNL     1      34.895 -16.569 -25.250  0.00  0.00    +0.152 HD
ENDBRANCH   2   7
BRANCH   3  19
ATOM     15  F   UNL     1      36.702 -22.987 -16.559  0.00  0.00    -0.204 F 
ATOM     16  C   UNL     1      33.071 -23.129 -16.753  0.00  0.00    +0.050 C 
ATOM     17  C   UNL     1      32.849 -22.398 -17.920  0.00  0.00    +0.019 C 
ATOM     18  C   UNL     1      34.373 -23.328 -16.293  0.00  0.00    +0.044 C 
ATOM     19  C   UNL     1      33.932 -21.883 -18.600  0.00  0.00    +0.057 C 
ATOM     20  C   UNL     1      35.452 -22.796 -17.000  0.00  0.00    +0.142 C 
ATOM     21  C   UNL     1      35.229 -22.065 -18.166  0.00  0.00    +0.034 C 
BRANCH  16  23
ATOM     22  O   UNL     1      29.833 -24.512 -14.457  0.00  0.00    -0.350 OA
ATOM     23  N   UNL     1      31.991 -23.663 -16.045  0.00  0.00    -0.303 N 
ATOM     24  C   UNL     1      32.210 -24.074 -14.652  0.00  0.00    +0.123 C 
ATOM     25  C   UNL     1      30.624 -23.232 -16.360  0.00  0.00    +0.123 C 
ATOM     26  C   UNL     1      31.130 -25.064 -14.232  0.00  0.00    +0.164 C 
ATOM     27  C   UNL     1      29.627 -24.266 -15.848  0.00  0.00    +0.164 C 
ENDBRANCH  16  23
ENDBRANCH   3  19
TORSDOF 3
ENDMDL
MODEL 8
REMARK VINA RESULT:     -10.5      2.853      9.743
REMARK  Name = 5326870
REMARK  3 active torsions:
REMARK  status: ('A' for Active; 'I' for Inactive)
REMARK    1  A    between atoms: N_2  and  C_7
REMARK    2  A    between atoms: C_3  and  C_19
REMARK    3  A    between atoms: C_16  and  N_23
REMARK                            x       y       z     vdW  Elec       q    Type
REMARK                         _______ _______ _______ _____ _____    ______ ____
ROOT
ATOM      1  O   UNL     1      34.575 -10.056 -24.537  0.00  0.00    -0.270 OA
ATOM      2  N   UNL     1      32.609 -10.260 -23.264  0.00  0.00    -0.280 N 
ATOM      3  C   UNL     1      33.664 -10.725 -24.059  0.00  0.00    +0.250 C 
ATOM      4  H   UNL     1      31.962 -10.939 -22.964  0.00  0.00    +0.155 HD
ENDROOT
BRANCH   2   7
ATOM      5  N   UNL     1      31.558  -5.035 -21.842  0.00  0.00    -0.312 N 
ATOM      6  C   UNL     1      31.652  -6.688 -23.337  0.00  0.00    +0.016 C 
ATOM      7  C   UNL     1      32.360  -8.951 -22.844  0.00  0.00    +0.051 C 
ATOM      8  C   UNL     1      31.873  -6.366 -21.996  0.00  0.00    +0.048 C 
ATOM      9  C   UNL     1      31.900  -8.006 -23.768  0.00  0.00    +0.016 C 
ATOM     10  C   UNL     1      32.573  -8.603 -21.512  0.00  0.00    +0.016 C 
ATOM     11  C   UNL     1      32.333  -7.301 -21.062  0.00  0.00    +0.016 C 
ATOM     12  C   UNL     1      31.192  -5.504 -23.980  0.00  0.00    +0.017 C 
ATOM     13  C   UNL     1      31.146  -4.506 -23.034  0.00  0.00    +0.062 C 
ATOM     14  H   UNL     1      31.620  -4.536 -20.996  0.00  0.00    +0.152 HD
ENDBRANCH   2   7
BRANCH   3  19
ATOM     15  F   UNL     1      32.917 -14.378 -27.136  0.00  0.00    -0.204 F 
ATOM     16  C   UNL     1      33.962 -14.437 -23.650  0.00  0.00    +0.050 C 
ATOM     17  C   UNL     1      33.981 -13.072 -23.366  0.00  0.00    +0.019 C 
ATOM     18  C   UNL     1      33.602 -14.879 -24.924  0.00  0.00    +0.044 C 
ATOM     19  C   UNL     1      33.641 -12.179 -24.361  0.00  0.00    +0.057 C 
ATOM     20  C   UNL     1      33.263 -13.954 -25.913  0.00  0.00    +0.142 C 
ATOM     21  C   UNL     1      33.283 -12.590 -25.628  0.00  0.00    +0.034 C 
BRANCH  16  23
ATOM     22  O   UNL     1      35.250 -17.169 -20.725  0.00  0.00    -0.350 OA
ATOM     23  N   UNL     1      34.302 -15.363 -22.660  0.00  0.00    -0.303 N 
ATOM     24  C   UNL     1      35.002 -16.589 -23.067  0.00  0.00    +0.123 C 
ATOM     25  C   UNL     1      34.588 -14.905 -21.296  0.00  0.00    +0.123 C 
ATOM     26  C   UNL     1      34.829 -17.660 -21.998  0.00  0.00    +0.164 C 
ATOM     27  C   UNL     1      34.438 -16.067 -20.320  0.00  0.00    +0.164 C 
ENDBRANCH  16  23
ENDBRANCH   3  19
TORSDOF 3
ENDMDL
MODEL 9
REMARK VINA RESULT:     -10.5      3.134      4.767
REMARK  Name = 5326870
REMARK  3 active torsions:
REMARK  status: ('A' for Active; 'I' for Inactive)
REMARK    1  A    between atoms: N_2  and  C_7
REMARK    2  A    between atoms: C_3  and  C_19
REMARK    3  A    between atoms: C_16  and  N_23
REMARK                            x       y       z     vdW  Elec       q    Type
REMARK                         _______ _______ _______ _____ _____    ______ ____
ROOT
ATOM      1  O   UNL     1      31.982 -13.382 -23.230  0.00  0.00    -0.270 OA
ATOM      2  N   UNL     1      33.344 -14.084 -21.447  0.00  0.00    -0.280 N 
ATOM      3  C   UNL     1      32.463 -13.223 -22.113  0.00  0.00    +0.250 C 
ATOM      4  H   UNL     1      33.633 -13.798 -20.551  0.00  0.00    +0.155 HD
ENDROOT
BRANCH   2   7
ATOM      5  N   UNL     1      35.304 -18.993 -23.026  0.00  0.00    -0.312 N 
ATOM      6  C   UNL     1      34.217 -17.675 -21.590  0.00  0.00    +0.016 C 
ATOM      7  C   UNL     1      33.864 -15.300 -21.899  0.00  0.00    +0.051 C 
ATOM      8  C   UNL     1      34.897 -17.695 -22.810  0.00  0.00    +0.048 C 
ATOM      9  C   UNL     1      33.690 -16.454 -21.128  0.00  0.00    +0.016 C 
ATOM     10  C   UNL     1      34.547 -15.348 -23.113  0.00  0.00    +0.016 C 
ATOM     11  C   UNL     1      35.078 -16.549 -23.593  0.00  0.00    +0.016 C 
ATOM     12  C   UNL     1      34.229 -19.005 -21.084  0.00  0.00    +0.017 C 
ATOM     13  C   UNL     1      34.906 -19.791 -21.989  0.00  0.00    +0.062 C 
ATOM     14  H   UNL     1      35.808 -19.301 -23.813  0.00  0.00    +0.152 HD
ENDBRANCH   2   7
BRANCH   3  19
ATOM     15  F   UNL     1      31.246 -10.945 -18.026  0.00  0.00    -0.204 F 
ATOM     16  C   UNL     1      31.739  -9.621 -21.379  0.00  0.00    +0.050 C 
ATOM     17  C   UNL     1      32.067 -10.788 -22.069  0.00  0.00    +0.019 C 
ATOM     18  C   UNL     1      31.461  -9.674 -20.013  0.00  0.00    +0.044 C 
ATOM     19  C   UNL     1      32.111 -11.980 -21.378  0.00  0.00    +0.057 C 
ATOM     20  C   UNL     1      31.513 -10.894 -19.337  0.00  0.00    +0.142 C 
ATOM     21  C   UNL     1      31.841 -12.059 -20.027  0.00  0.00    +0.034 C 
BRANCH  16  23
ATOM     22  O   UNL     1      31.859  -5.953 -23.430  0.00  0.00    -0.350 OA
ATOM     23  N   UNL     1      31.687  -8.399 -22.055  0.00  0.00    -0.303 N 
ATOM     24  C   UNL     1      32.278  -7.221 -21.406  0.00  0.00    +0.123 C 
ATOM     25  C   UNL     1      31.697  -8.372 -23.522  0.00  0.00    +0.123 C 
ATOM     26  C   UNL     1      31.693  -5.951 -22.013  0.00  0.00    +0.164 C 
ATOM     27  C   UNL     1      31.144  -7.040 -24.017  0.00  0.00    +0.164 C 
ENDBRANCH  16  23
ENDBRANCH   3  19
TORSDOF 3
ENDMDL
