MODEL 1
REMARK VINA RESULT:      -8.4      0.000      0.000
REMARK  Name = 52195
REMARK  6 active torsions:
REMARK  status: ('A' for Active; 'I' for Inactive)
REMARK    1  A    between atoms: C_1  and  C_16
REMARK    2  A    between atoms: C_1  and  C_19
REMARK    3  A    between atoms: C_19  and  C_20
REMARK    4  A    between atoms: C_20  and  C_21
REMARK    5  A    between atoms: C_21  and  N_22
REMARK    6  A    between atoms: N_22  and  C_25
REMARK                            x       y       z     vdW  Elec       q    Type
REMARK                         _______ _______ _______ _____ _____    ______ ____
ROOT
ATOM      1  C   UNL     1      34.820 -18.268 -21.591  0.00  0.00    +0.106 C 
ATOM      2  C   UNL     1      34.677 -16.752 -21.465  0.00  0.00    -0.011 C 
ATOM      3  C   UNL     1      34.682 -18.460 -23.100  0.00  0.00    -0.011 C 
ATOM      4  C   UNL     1      34.493 -16.167 -22.739  0.00  0.00    -0.004 C 
ATOM      5  C   UNL     1      34.496 -17.212 -23.740  0.00  0.00    -0.004 C 
ATOM      6  C   UNL     1      34.711 -15.975 -20.317  0.00  0.00    -0.004 C 
ATOM      7  C   UNL     1      34.721 -19.639 -23.828  0.00  0.00    -0.004 C 
ATOM      8  C   UNL     1      34.342 -14.796 -22.870  0.00  0.00    -0.000 C 
ATOM      9  C   UNL     1      34.349 -17.139 -25.116  0.00  0.00    -0.000 C 
ATOM     10  C   UNL     1      34.559 -14.593 -20.451  0.00  0.00    -0.000 C 
ATOM     11  C   UNL     1      34.572 -19.565 -25.214  0.00  0.00    -0.000 C 
ATOM     12  C   UNL     1      34.376 -14.010 -21.715  0.00  0.00    -0.000 C 
ATOM     13  C   UNL     1      34.389 -18.327 -25.852  0.00  0.00    -0.000 C 
ENDROOT
BRANCH   1  16
ATOM     14  O   UNL     1      36.347 -19.287 -20.055  0.00  0.00    -0.275 OA
ATOM     15  N   UNL     1      37.191 -18.415 -22.010  0.00  0.00    -0.328 N 
ATOM     16  C   UNL     1      36.179 -18.717 -21.130  0.00  0.00    +0.226 C 
ATOM     17  H   UNL     1      38.119 -18.668 -21.799  0.00  0.00    +0.145 HD
ATOM     18  H   UNL     1      36.988 -17.945 -22.851  0.00  0.00    +0.145 HD
ENDBRANCH   1  16
BRANCH   1  19
ATOM     19  C   UNL     1      33.722 -19.004 -20.822  0.00  0.00    +0.015 C 
BRANCH  19  20
ATOM     20  C   UNL     1      34.047 -20.489 -20.684  0.00  0.00    -0.022 C 
BRANCH  20  21
ATOM     21  C   UNL     1      33.238 -21.120 -19.553  0.00  0.00    -0.082 C 
BRANCH  21  22
ATOM     22  N   UNL     1      33.377 -22.571 -19.578  0.00  0.00    +0.385 N 
ATOM     23  H   UNL     1      34.159 -22.821 -20.184  0.00  0.00    -0.084 HD
ATOM     24  H   UNL     1      32.509 -22.974 -19.932  0.00  0.00    -0.084 HD
BRANCH  22  25
ATOM     25  C   UNL     1      33.622 -23.094 -18.241  0.00  0.00    -0.062 C 
ATOM     26  C   UNL     1      32.438 -22.788 -17.329  0.00  0.00    -0.023 C 
ATOM     27  C   UNL     1      34.910 -22.492 -17.688  0.00  0.00    -0.023 C 
ENDBRANCH  22  25
ENDBRANCH  21  22
ENDBRANCH  20  21
ENDBRANCH  19  20
ENDBRANCH   1  19
TORSDOF 6
ENDMDL
MODEL 2
REMARK VINA RESULT:      -8.2      5.918      9.187
REMARK  Name = 52195
REMARK  6 active torsions:
REMARK  status: ('A' for Active; 'I' for Inactive)
REMARK    1  A    between atoms: C_1  and  C_16
REMARK    2  A    between atoms: C_1  and  C_19
REMARK    3  A    between atoms: C_19  and  C_20
REMARK    4  A    between atoms: C_20  and  C_21
REMARK    5  A    between atoms: C_21  and  N_22
REMARK    6  A    between atoms: N_22  and  C_25
REMARK                            x       y       z     vdW  Elec       q    Type
REMARK                         _______ _______ _______ _____ _____    ______ ____
ROOT
ATOM      1  C   UNL     1      34.903 -23.674 -15.311  0.00  0.00    +0.106 C 
ATOM      2  C   UNL     1      34.814 -22.999 -16.678  0.00  0.00    -0.011 C 
ATOM      3  C   UNL     1      33.434 -23.978 -15.027  0.00  0.00    -0.011 C 
ATOM      4  C   UNL     1      33.469 -22.942 -17.111  0.00  0.00    -0.004 C 
ATOM      5  C   UNL     1      32.624 -23.541 -16.101  0.00  0.00    -0.004 C 
ATOM      6  C   UNL     1      35.840 -22.489 -17.458  0.00  0.00    -0.004 C 
ATOM      7  C   UNL     1      32.878 -24.590 -13.913  0.00  0.00    -0.004 C 
ATOM      8  C   UNL     1      33.145 -22.372 -18.332  0.00  0.00    -0.000 C 
ATOM      9  C   UNL     1      31.250 -23.716 -16.066  0.00  0.00    -0.000 C 
ATOM     10  C   UNL     1      35.513 -21.915 -18.688  0.00  0.00    -0.000 C 
ATOM     11  C   UNL     1      31.493 -24.765 -13.879  0.00  0.00    -0.000 C 
ATOM     12  C   UNL     1      34.178 -21.857 -19.120  0.00  0.00    -0.000 C 
ATOM     13  C   UNL     1      30.687 -24.333 -14.945  0.00  0.00    -0.000 C 
ENDROOT
BRANCH   1  16
ATOM     14  O   UNL     1      36.901 -24.956 -15.628  0.00  0.00    -0.275 OA
ATOM     15  N   UNL     1      34.940 -26.083 -15.204  0.00  0.00    -0.328 N 
ATOM     16  C   UNL     1      35.694 -24.950 -15.394  0.00  0.00    +0.226 C 
ATOM     17  H   UNL     1      35.366 -26.970 -15.239  0.00  0.00    +0.145 HD
ATOM     18  H   UNL     1      33.973 -26.008 -15.032  0.00  0.00    +0.145 HD
ENDBRANCH   1  16
BRANCH   1  19
ATOM     19  C   UNL     1      35.503 -22.739 -14.259  0.00  0.00    +0.015 C 
BRANCH  19  20
ATOM     20  C   UNL     1      35.584 -23.422 -12.896  0.00  0.00    -0.022 C 
BRANCH  20  21
ATOM     21  C   UNL     1      36.987 -23.297 -12.308  0.00  0.00    -0.082 C 
BRANCH  21  22
ATOM     22  N   UNL     1      37.979 -23.796 -13.252  0.00  0.00    +0.385 N 
ATOM     23  H   UNL     1      38.665 -23.063 -13.436  0.00  0.00    -0.084 HD
ATOM     24  H   UNL     1      37.503 -24.063 -14.114  0.00  0.00    -0.084 HD
BRANCH  22  25
ATOM     25  C   UNL     1      38.664 -24.966 -12.717  0.00  0.00    -0.062 C 
ATOM     26  C   UNL     1      39.721 -25.455 -13.704  0.00  0.00    -0.023 C 
ATOM     27  C   UNL     1      37.644 -26.060 -12.420  0.00  0.00    -0.023 C 
ENDBRANCH  22  25
ENDBRANCH  21  22
ENDBRANCH  20  21
ENDBRANCH  19  20
ENDBRANCH   1  19
TORSDOF 6
ENDMDL
MODEL 3
REMARK VINA RESULT:      -8.2      6.137      9.201
REMARK  Name = 52195
REMARK  6 active torsions:
REMARK  status: ('A' for Active; 'I' for Inactive)
REMARK    1  A    between atoms: C_1  and  C_16
REMARK    2  A    between atoms: C_1  and  C_19
REMARK    3  A    between atoms: C_19  and  C_20
REMARK    4  A    between atoms: C_20  and  C_21
REMARK    5  A    between atoms: C_21  and  N_22
REMARK    6  A    between atoms: N_22  and  C_25
REMARK                            x       y       z     vdW  Elec       q    Type
REMARK                         _______ _______ _______ _____ _____    ______ ____
ROOT
ATOM      1  C   UNL     1      34.363 -24.032 -15.216  0.00  0.00    +0.106 C 
ATOM      2  C   UNL     1      32.889 -24.133 -14.829  0.00  0.00    -0.011 C 
ATOM      3  C   UNL     1      34.275 -23.297 -16.552  0.00  0.00    -0.011 C 
ATOM      4  C   UNL     1      32.078 -23.525 -15.815  0.00  0.00    -0.004 C 
ATOM      5  C   UNL     1      32.927 -23.013 -16.870  0.00  0.00    -0.004 C 
ATOM      6  C   UNL     1      32.331 -24.714 -13.700  0.00  0.00    -0.004 C 
ATOM      7  C   UNL     1      35.305 -22.919 -17.400  0.00  0.00    -0.004 C 
ATOM      8  C   UNL     1      30.700 -23.494 -15.674  0.00  0.00    -0.000 C 
ATOM      9  C   UNL     1      32.602 -22.346 -18.040  0.00  0.00    -0.000 C 
ATOM     10  C   UNL     1      30.942 -24.682 -13.559  0.00  0.00    -0.000 C 
ATOM     11  C   UNL     1      34.977 -22.247 -18.579  0.00  0.00    -0.000 C 
ATOM     12  C   UNL     1      30.135 -24.078 -14.537  0.00  0.00    -0.000 C 
ATOM     13  C   UNL     1      33.639 -21.963 -18.895  0.00  0.00    -0.000 C 
ENDROOT
BRANCH   1  16
ATOM     14  O   UNL     1      35.915 -22.331 -14.560  0.00  0.00    -0.275 OA
ATOM     15  N   UNL     1      34.861 -23.539 -12.908  0.00  0.00    -0.328 N 
ATOM     16  C   UNL     1      35.124 -23.207 -14.216  0.00  0.00    +0.226 C 
ATOM     17  H   UNL     1      35.310 -23.055 -12.178  0.00  0.00    +0.145 HD
ATOM     18  H   UNL     1      34.223 -24.261 -12.702  0.00  0.00    +0.145 HD
ENDBRANCH   1  16
BRANCH   1  19
ATOM     19  C   UNL     1      35.002 -25.413 -15.369  0.00  0.00    +0.015 C 
BRANCH  19  20
ATOM     20  C   UNL     1      36.522 -25.333 -15.254  0.00  0.00    -0.022 C 
BRANCH  20  21
ATOM     21  C   UNL     1      37.104 -26.670 -14.801  0.00  0.00    -0.082 C 
BRANCH  21  22
ATOM     22  N   UNL     1      37.909 -26.491 -13.599  0.00  0.00    +0.385 N 
ATOM     23  H   UNL     1      38.602 -27.238 -13.546  0.00  0.00    -0.084 HD
ATOM     24  H   UNL     1      37.292 -26.519 -12.787  0.00  0.00    -0.084 HD
BRANCH  22  25
ATOM     25  C   UNL     1      38.594 -25.206 -13.618  0.00  0.00    -0.062 C 
ATOM     26  C   UNL     1      40.077 -25.402 -13.921  0.00  0.00    -0.023 C 
ATOM     27  C   UNL     1      38.397 -24.505 -12.278  0.00  0.00    -0.023 C 
ENDBRANCH  22  25
ENDBRANCH  21  22
ENDBRANCH  20  21
ENDBRANCH  19  20
ENDBRANCH   1  19
TORSDOF 6
ENDMDL
MODEL 4
REMARK VINA RESULT:      -8.2      4.873     10.131
REMARK  Name = 52195
REMARK  6 active torsions:
REMARK  status: ('A' for Active; 'I' for Inactive)
REMARK    1  A    between atoms: C_1  and  C_16
REMARK    2  A    between atoms: C_1  and  C_19
REMARK    3  A    between atoms: C_19  and  C_20
REMARK    4  A    between atoms: C_20  and  C_21
REMARK    5  A    between atoms: C_21  and  N_22
REMARK    6  A    between atoms: N_22  and  C_25
REMARK                            x       y       z     vdW  Elec       q    Type
REMARK                         _______ _______ _______ _____ _____    ______ ____
ROOT
ATOM      1  C   UNL     1      36.424 -24.356 -14.972  0.00  0.00    +0.106 C 
ATOM      2  C   UNL     1      34.959 -24.013 -15.239  0.00  0.00    -0.011 C 
ATOM      3  C   UNL     1      36.485 -24.257 -13.449  0.00  0.00    -0.011 C 
ATOM      4  C   UNL     1      34.283 -23.764 -14.022  0.00  0.00    -0.004 C 
ATOM      5  C   UNL     1      35.217 -23.914 -12.927  0.00  0.00    -0.004 C 
ATOM      6  C   UNL     1      34.299 -23.934 -16.455  0.00  0.00    -0.004 C 
ATOM      7  C   UNL     1      37.573 -24.458 -12.613  0.00  0.00    -0.004 C 
ATOM      8  C   UNL     1      32.937 -23.436 -14.019  0.00  0.00    -0.000 C 
ATOM      9  C   UNL     1      35.030 -23.771 -11.561  0.00  0.00    -0.000 C 
ATOM     10  C   UNL     1      32.943 -23.603 -16.451  0.00  0.00    -0.000 C 
ATOM     11  C   UNL     1      37.384 -24.313 -11.237  0.00  0.00    -0.000 C 
ATOM     12  C   UNL     1      32.269 -23.356 -15.243  0.00  0.00    -0.000 C 
ATOM     13  C   UNL     1      36.125 -23.973 -10.717  0.00  0.00    -0.000 C 
ENDROOT
BRANCH   1  16
ATOM     14  O   UNL     1      35.851 -26.575 -15.664  0.00  0.00    -0.275 OA
ATOM     15  N   UNL     1      38.080 -26.029 -15.498  0.00  0.00    -0.328 N 
ATOM     16  C   UNL     1      36.735 -25.758 -15.417  0.00  0.00    +0.226 C 
ATOM     17  H   UNL     1      38.387 -26.921 -15.781  0.00  0.00    +0.145 HD
ATOM     18  H   UNL     1      38.737 -25.330 -15.273  0.00  0.00    +0.145 HD
ENDBRANCH   1  16
BRANCH   1  19
ATOM     19  C   UNL     1      37.368 -23.358 -15.644  0.00  0.00    +0.015 C 
BRANCH  19  20
ATOM     20  C   UNL     1      36.735 -21.973 -15.733  0.00  0.00    -0.022 C 
BRANCH  20  21
ATOM     21  C   UNL     1      37.202 -21.240 -16.989  0.00  0.00    -0.082 C 
BRANCH  21  22
ATOM     22  N   UNL     1      36.838 -21.997 -18.181  0.00  0.00    +0.385 N 
ATOM     23  H   UNL     1      36.448 -22.896 -17.900  0.00  0.00    -0.084 HD
ATOM     24  H   UNL     1      37.676 -22.134 -18.747  0.00  0.00    -0.084 HD
BRANCH  22  25
ATOM     25  C   UNL     1      35.853 -21.275 -18.975  0.00  0.00    -0.062 C 
ATOM     26  C   UNL     1      34.780 -22.234 -19.482  0.00  0.00    -0.023 C 
ATOM     27  C   UNL     1      36.551 -20.572 -20.134  0.00  0.00    -0.023 C 
ENDBRANCH  22  25
ENDBRANCH  21  22
ENDBRANCH  20  21
ENDBRANCH  19  20
ENDBRANCH   1  19
TORSDOF 6
ENDMDL
MODEL 5
REMARK VINA RESULT:      -7.9      7.166      9.673
REMARK  Name = 52195
REMARK  6 active torsions:
REMARK  status: ('A' for Active; 'I' for Inactive)
REMARK    1  A    between atoms: C_1  and  C_16
REMARK    2  A    between atoms: C_1  and  C_19
REMARK    3  A    between atoms: C_19  and  C_20
REMARK    4  A    between atoms: C_20  and  C_21
REMARK    5  A    between atoms: C_21  and  N_22
REMARK    6  A    between atoms: N_22  and  C_25
REMARK                            x       y       z     vdW  Elec       q    Type
REMARK                         _______ _______ _______ _____ _____    ______ ____
ROOT
ATOM      1  C   UNL     1      35.066 -24.265 -14.114  0.00  0.00    +0.106 C 
ATOM      2  C   UNL     1      33.613 -24.218 -14.583  0.00  0.00    -0.011 C 
ATOM      3  C   UNL     1      35.763 -23.457 -15.206  0.00  0.00    -0.011 C 
ATOM      4  C   UNL     1      33.506 -23.471 -15.779  0.00  0.00    -0.004 C 
ATOM      5  C   UNL     1      34.822 -23.005 -16.161  0.00  0.00    -0.004 C 
ATOM      6  C   UNL     1      32.497 -24.789 -13.992  0.00  0.00    -0.004 C 
ATOM      7  C   UNL     1      37.111 -23.155 -15.331  0.00  0.00    -0.004 C 
ATOM      8  C   UNL     1      32.276 -23.291 -16.389  0.00  0.00    -0.000 C 
ATOM      9  C   UNL     1      35.227 -22.246 -17.246  0.00  0.00    -0.000 C 
ATOM     10  C   UNL     1      31.257 -24.607 -14.608  0.00  0.00    -0.000 C 
ATOM     11  C   UNL     1      37.517 -22.390 -16.426  0.00  0.00    -0.000 C 
ATOM     12  C   UNL     1      31.149 -23.865 -15.796  0.00  0.00    -0.000 C 
ATOM     13  C   UNL     1      36.584 -21.939 -17.374  0.00  0.00    -0.000 C 
ENDROOT
BRANCH   1  16
ATOM     14  O   UNL     1      34.336 -23.608 -11.930  0.00  0.00    -0.275 OA
ATOM     15  N   UNL     1      36.421 -22.932 -12.628  0.00  0.00    -0.328 N 
ATOM     16  C   UNL     1      35.221 -23.584 -12.782  0.00  0.00    +0.226 C 
ATOM     17  H   UNL     1      36.619 -22.455 -11.790  0.00  0.00    +0.145 HD
ATOM     18  H   UNL     1      37.084 -22.943 -13.357  0.00  0.00    +0.145 HD
ENDBRANCH   1  16
BRANCH   1  19
ATOM     19  C   UNL     1      35.591 -25.700 -14.046  0.00  0.00    +0.015 C 
BRANCH  19  20
ATOM     20  C   UNL     1      36.411 -26.046 -15.286  0.00  0.00    -0.022 C 
BRANCH  20  21
ATOM     21  C   UNL     1      37.769 -26.625 -14.897  0.00  0.00    -0.082 C 
BRANCH  21  22
ATOM     22  N   UNL     1      38.844 -25.776 -15.397  0.00  0.00    +0.385 N 
ATOM     23  H   UNL     1      38.444 -24.913 -15.767  0.00  0.00    -0.084 HD
ATOM     24  H   UNL     1      39.344 -26.280 -16.129  0.00  0.00    -0.084 HD
BRANCH  22  25
ATOM     25  C   UNL     1      39.784 -25.447 -14.334  0.00  0.00    -0.062 C 
ATOM     26  C   UNL     1      40.851 -26.533 -14.219  0.00  0.00    -0.023 C 
ATOM     27  C   UNL     1      39.029 -25.280 -13.020  0.00  0.00    -0.023 C 
ENDBRANCH  22  25
ENDBRANCH  21  22
ENDBRANCH  20  21
ENDBRANCH  19  20
ENDBRANCH   1  19
TORSDOF 6
ENDMDL
MODEL 6
REMARK VINA RESULT:      -7.8      8.738     12.540
REMARK  Name = 52195
REMARK  6 active torsions:
REMARK  status: ('A' for Active; 'I' for Inactive)
REMARK    1  A    between atoms: C_1  and  C_16
REMARK    2  A    between atoms: C_1  and  C_19
REMARK    3  A    between atoms: C_19  and  C_20
REMARK    4  A    between atoms: C_20  and  C_21
REMARK    5  A    between atoms: C_21  and  N_22
REMARK    6  A    between atoms: N_22  and  C_25
REMARK                            x       y       z     vdW  Elec       q    Type
REMARK                         _______ _______ _______ _____ _____    ______ ____
ROOT
ATOM      1  C   UNL     1      32.026  -7.998 -22.066  0.00  0.00    +0.106 C 
ATOM      2  C   UNL     1      33.164  -8.031 -23.084  0.00  0.00    -0.011 C 
ATOM      3  C   UNL     1      31.760  -9.488 -21.861  0.00  0.00    -0.011 C 
ATOM      4  C   UNL     1      33.501  -9.367 -23.402  0.00  0.00    -0.004 C 
ATOM      5  C   UNL     1      32.641 -10.259 -22.654  0.00  0.00    -0.004 C 
ATOM      6  C   UNL     1      33.833  -6.965 -23.666  0.00  0.00    -0.004 C 
ATOM      7  C   UNL     1      30.818 -10.093 -21.042  0.00  0.00    -0.004 C 
ATOM      8  C   UNL     1      34.513  -9.643 -24.307  0.00  0.00    -0.000 C 
ATOM      9  C   UNL     1      32.586 -11.643 -22.629  0.00  0.00    -0.000 C 
ATOM     10  C   UNL     1      34.853  -7.244 -24.578  0.00  0.00    -0.000 C 
ATOM     11  C   UNL     1      30.763 -11.488 -21.018  0.00  0.00    -0.000 C 
ATOM     12  C   UNL     1      35.189  -8.570 -24.895  0.00  0.00    -0.000 C 
ATOM     13  C   UNL     1      31.639 -12.255 -21.803  0.00  0.00    -0.000 C 
ENDROOT
BRANCH   1  16
ATOM     14  O   UNL     1      33.082  -8.003 -19.917  0.00  0.00    -0.275 OA
ATOM     15  N   UNL     1      32.137  -6.041 -20.661  0.00  0.00    -0.328 N 
ATOM     16  C   UNL     1      32.478  -7.367 -20.779  0.00  0.00    +0.226 C 
ATOM     17  H   UNL     1      32.389  -5.537 -19.853  0.00  0.00    +0.145 HD
ATOM     18  H   UNL     1      31.642  -5.594 -21.386  0.00  0.00    +0.145 HD
ENDBRANCH   1  16
BRANCH   1  19
ATOM     19  C   UNL     1      30.797  -7.272 -22.617  0.00  0.00    +0.015 C 
BRANCH  19  20
ATOM     20  C   UNL     1      30.785  -7.288 -24.143  0.00  0.00    -0.022 C 
BRANCH  20  21
ATOM     21  C   UNL     1      30.749  -5.867 -24.701  0.00  0.00    -0.082 C 
BRANCH  21  22
ATOM     22  N   UNL     1      30.693  -4.897 -23.615  0.00  0.00    +0.385 N 
ATOM     23  H   UNL     1      30.921  -5.364 -22.737  0.00  0.00    -0.084 HD
ATOM     24  H   UNL     1      29.752  -4.505 -23.576  0.00  0.00    -0.084 HD
BRANCH  22  25
ATOM     25  C   UNL     1      31.639  -3.811 -23.837  0.00  0.00    -0.062 C 
ATOM     26  C   UNL     1      31.121  -2.522 -23.205  0.00  0.00    -0.023 C 
ATOM     27  C   UNL     1      31.867  -3.635 -25.334  0.00  0.00    -0.023 C 
ENDBRANCH  22  25
ENDBRANCH  21  22
ENDBRANCH  20  21
ENDBRANCH  19  20
ENDBRANCH   1  19
TORSDOF 6
ENDMDL
MODEL 7
REMARK VINA RESULT:      -7.8      1.541      1.925
REMARK  Name = 52195
REMARK  6 active torsions:
REMARK  status: ('A' for Active; 'I' for Inactive)
REMARK    1  A    between atoms: C_1  and  C_16
REMARK    2  A    between atoms: C_1  and  C_19
REMARK    3  A    between atoms: C_19  and  C_20
REMARK    4  A    between atoms: C_20  and  C_21
REMARK    5  A    between atoms: C_21  and  N_22
REMARK    6  A    between atoms: N_22  and  C_25
REMARK                            x       y       z     vdW  Elec       q    Type
REMARK                         _______ _______ _______ _____ _____    ______ ____
ROOT
ATOM      1  C   UNL     1      33.795 -16.928 -21.485  0.00  0.00    +0.106 C 
ATOM      2  C   UNL     1      33.231 -15.511 -21.575  0.00  0.00    -0.011 C 
ATOM      3  C   UNL     1      34.157 -17.202 -22.944  0.00  0.00    -0.011 C 
ATOM      4  C   UNL     1      33.278 -15.046 -22.909  0.00  0.00    -0.004 C 
ATOM      5  C   UNL     1      33.845 -16.081 -23.747  0.00  0.00    -0.004 C 
ATOM      6  C   UNL     1      32.725 -14.718 -20.556  0.00  0.00    -0.004 C 
ATOM      7  C   UNL     1      34.713 -18.346 -23.496  0.00  0.00    -0.004 C 
ATOM      8  C   UNL     1      32.819 -13.779 -23.230  0.00  0.00    -0.000 C 
ATOM      9  C   UNL     1      34.090 -16.099 -25.111  0.00  0.00    -0.000 C 
ATOM     10  C   UNL     1      32.263 -13.441 -20.881  0.00  0.00    -0.000 C 
ATOM     11  C   UNL     1      34.959 -18.363 -24.870  0.00  0.00    -0.000 C 
ATOM     12  C   UNL     1      32.310 -12.977 -22.206  0.00  0.00    -0.000 C 
ATOM     13  C   UNL     1      34.651 -17.251 -25.669  0.00  0.00    -0.000 C 
ENDROOT
BRANCH   1  16
ATOM     14  O   UNL     1      35.293 -16.061 -19.830  0.00  0.00    -0.275 OA
ATOM     15  N   UNL     1      35.824 -18.061 -20.837  0.00  0.00    -0.328 N 
ATOM     16  C   UNL     1      35.030 -16.959 -20.628  0.00  0.00    +0.226 C 
ATOM     17  H   UNL     1      36.656 -18.173 -20.323  0.00  0.00    +0.145 HD
ATOM     18  H   UNL     1      35.560 -18.738 -21.502  0.00  0.00    +0.145 HD
ENDBRANCH   1  16
BRANCH   1  19
ATOM     19  C   UNL     1      32.754 -17.918 -20.963  0.00  0.00    +0.015 C 
BRANCH  19  20
ATOM     20  C   UNL     1      33.283 -19.349 -21.006  0.00  0.00    -0.022 C 
BRANCH  20  21
ATOM     21  C   UNL     1      32.608 -20.212 -19.942  0.00  0.00    -0.082 C 
BRANCH  21  22
ATOM     22  N   UNL     1      33.100 -21.582 -20.013  0.00  0.00    +0.385 N 
ATOM     23  H   UNL     1      33.595 -21.714 -20.896  0.00  0.00    -0.084 HD
ATOM     24  H   UNL     1      32.303 -22.217 -19.953  0.00  0.00    -0.084 HD
BRANCH  22  25
ATOM     25  C   UNL     1      34.006 -21.868 -18.910  0.00  0.00    -0.062 C 
ATOM     26  C   UNL     1      35.446 -21.933 -19.413  0.00  0.00    -0.023 C 
ATOM     27  C   UNL     1      33.599 -23.178 -18.244  0.00  0.00    -0.023 C 
ENDBRANCH  22  25
ENDBRANCH  21  22
ENDBRANCH  20  21
ENDBRANCH  19  20
ENDBRANCH   1  19
TORSDOF 6
ENDMDL
MODEL 8
REMARK VINA RESULT:      -7.8      3.475      6.453
REMARK  Name = 52195
REMARK  6 active torsions:
REMARK  status: ('A' for Active; 'I' for Inactive)
REMARK    1  A    between atoms: C_1  and  C_16
REMARK    2  A    between atoms: C_1  and  C_19
REMARK    3  A    between atoms: C_19  and  C_20
REMARK    4  A    between atoms: C_20  and  C_21
REMARK    5  A    between atoms: C_21  and  N_22
REMARK    6  A    between atoms: N_22  and  C_25
REMARK                            x       y       z     vdW  Elec       q    Type
REMARK                         _______ _______ _______ _____ _____    ______ ____
ROOT
ATOM      1  C   UNL     1      33.708 -15.531 -22.022  0.00  0.00    +0.106 C 
ATOM      2  C   UNL     1      33.509 -15.203 -23.500  0.00  0.00    -0.011 C 
ATOM      3  C   UNL     1      34.331 -16.923 -22.101  0.00  0.00    -0.011 C 
ATOM      4  C   UNL     1      33.970 -16.269 -24.307  0.00  0.00    -0.004 C 
ATOM      5  C   UNL     1      34.473 -17.322 -23.451  0.00  0.00    -0.004 C 
ATOM      6  C   UNL     1      32.968 -14.059 -24.065  0.00  0.00    -0.004 C 
ATOM      7  C   UNL     1      34.732 -17.751 -21.063  0.00  0.00    -0.004 C 
ATOM      8  C   UNL     1      33.892 -16.193 -25.688  0.00  0.00    -0.000 C 
ATOM      9  C   UNL     1      35.021 -18.554 -23.769  0.00  0.00    -0.000 C 
ATOM     10  C   UNL     1      32.891 -13.983 -25.457  0.00  0.00    -0.000 C 
ATOM     11  C   UNL     1      35.284 -18.993 -21.385  0.00  0.00    -0.000 C 
ATOM     12  C   UNL     1      33.348 -15.040 -26.260  0.00  0.00    -0.000 C 
ATOM     13  C   UNL     1      35.427 -19.390 -22.724  0.00  0.00    -0.000 C 
ENDROOT
BRANCH   1  16
ATOM     14  O   UNL     1      35.176 -14.780 -20.285  0.00  0.00    -0.275 OA
ATOM     15  N   UNL     1      34.900 -13.437 -22.133  0.00  0.00    -0.328 N 
ATOM     16  C   UNL     1      34.668 -14.566 -21.384  0.00  0.00    +0.226 C 
ATOM     17  H   UNL     1      35.515 -12.743 -21.802  0.00  0.00    +0.145 HD
ATOM     18  H   UNL     1      34.451 -13.322 -23.002  0.00  0.00    +0.145 HD
ENDBRANCH   1  16
BRANCH   1  19
ATOM     19  C   UNL     1      32.380 -15.546 -21.263  0.00  0.00    +0.015 C 
BRANCH  19  20
ATOM     20  C   UNL     1      32.326 -14.429 -20.224  0.00  0.00    -0.022 C 
BRANCH  20  21
ATOM     21  C   UNL     1      31.772 -13.144 -20.835  0.00  0.00    -0.082 C 
BRANCH  21  22
ATOM     22  N   UNL     1      31.846 -12.052 -19.872  0.00  0.00    +0.385 N 
ATOM     23  H   UNL     1      32.825 -11.815 -19.710  0.00  0.00    -0.084 HD
ATOM     24  H   UNL     1      31.405 -12.354 -19.003  0.00  0.00    -0.084 HD
BRANCH  22  25
ATOM     25  C   UNL     1      31.145 -10.875 -20.364  0.00  0.00    -0.062 C 
ATOM     26  C   UNL     1      31.105 -10.884 -21.890  0.00  0.00    -0.023 C 
ATOM     27  C   UNL     1      31.832  -9.618 -19.842  0.00  0.00    -0.023 C 
ENDBRANCH  22  25
ENDBRANCH  21  22
ENDBRANCH  20  21
ENDBRANCH  19  20
ENDBRANCH   1  19
TORSDOF 6
ENDMDL
MODEL 9
REMARK VINA RESULT:      -7.7      1.879      4.038
REMARK  Name = 52195
REMARK  6 active torsions:
REMARK  status: ('A' for Active; 'I' for Inactive)
REMARK    1  A    between atoms: C_1  and  C_16
REMARK    2  A    between atoms: C_1  and  C_19
REMARK    3  A    between atoms: C_19  and  C_20
REMARK    4  A    between atoms: C_20  and  C_21
REMARK    5  A    between atoms: C_21  and  N_22
REMARK    6  A    between atoms: N_22  and  C_25
REMARK                            x       y       z     vdW  Elec       q    Type
REMARK                         _______ _______ _______ _____ _____    ______ ____
ROOT
ATOM      1  C   UNL     1      34.065 -17.434 -21.473  0.00  0.00    +0.106 C 
ATOM      2  C   UNL     1      34.297 -17.704 -22.958  0.00  0.00    -0.011 C 
ATOM      3  C   UNL     1      33.639 -15.968 -21.495  0.00  0.00    -0.011 C 
ATOM      4  C   UNL     1      34.028 -16.542 -23.717  0.00  0.00    -0.004 C 
ATOM      5  C   UNL     1      33.625 -15.479 -22.822  0.00  0.00    -0.004 C 
ATOM      6  C   UNL     1      34.710 -18.879 -23.567  0.00  0.00    -0.004 C 
ATOM      7  C   UNL     1      33.297 -15.151 -20.427  0.00  0.00    -0.004 C 
ATOM      8  C   UNL     1      34.170 -16.552 -25.096  0.00  0.00    -0.000 C 
ATOM      9  C   UNL     1      33.266 -14.168 -23.088  0.00  0.00    -0.000 C 
ATOM     10  C   UNL     1      34.852 -18.888 -24.956  0.00  0.00    -0.000 C 
ATOM     11  C   UNL     1      32.936 -13.829 -20.697  0.00  0.00    -0.000 C 
ATOM     12  C   UNL     1      34.584 -17.735 -25.713  0.00  0.00    -0.000 C 
ATOM     13  C   UNL     1      32.920 -13.343 -22.014  0.00  0.00    -0.000 C 
ENDROOT
BRANCH   1  16
ATOM     14  O   UNL     1      33.078 -19.505 -20.786  0.00  0.00    -0.275 OA
ATOM     15  N   UNL     1      31.795 -17.598 -20.671  0.00  0.00    -0.328 N 
ATOM     16  C   UNL     1      32.950 -18.292 -20.941  0.00  0.00    +0.226 C 
ATOM     17  H   UNL     1      31.007 -18.071 -20.319  0.00  0.00    +0.145 HD
ATOM     18  H   UNL     1      31.757 -16.626 -20.830  0.00  0.00    +0.145 HD
ENDBRANCH   1  16
BRANCH   1  19
ATOM     19  C   UNL     1      35.339 -17.643 -20.654  0.00  0.00    +0.015 C 
BRANCH  19  20
ATOM     20  C   UNL     1      36.329 -18.540 -21.394  0.00  0.00    -0.022 C 
BRANCH  20  21
ATOM     21  C   UNL     1      36.746 -19.723 -20.524  0.00  0.00    -0.082 C 
BRANCH  21  22
ATOM     22  N   UNL     1      35.592 -20.265 -19.817  0.00  0.00    +0.385 N 
ATOM     23  H   UNL     1      34.784 -20.258 -20.441  0.00  0.00    -0.084 HD
ATOM     24  H   UNL     1      35.412 -19.687 -18.996  0.00  0.00    -0.084 HD
BRANCH  22  25
ATOM     25  C   UNL     1      35.844 -21.630 -19.378  0.00  0.00    -0.062 C 
ATOM     26  C   UNL     1      34.525 -22.361 -19.142  0.00  0.00    -0.023 C 
ATOM     27  C   UNL     1      36.692 -21.608 -18.110  0.00  0.00    -0.023 C 
ENDBRANCH  22  25
ENDBRANCH  21  22
ENDBRANCH  20  21
ENDBRANCH  19  20
ENDBRANCH   1  19
TORSDOF 6
ENDMDL
