MODEL 1
REMARK VINA RESULT:      -7.5      0.000      0.000
REMARK  Name = 75846
REMARK  3 active torsions:
REMARK  status: ('A' for Active; 'I' for Inactive)
REMARK    1  A    between atoms: S_1  and  C_3
REMARK    2  A    between atoms: S_1  and  S_8
REMARK    3  A    between atoms: S_8  and  C_10
REMARK                            x       y       z     vdW  Elec       q    Type
REMARK                         _______ _______ _______ _____ _____    ______ ____
ROOT
ATOM      1  S   UNL     1      36.100 -18.675 -21.332  0.00  0.00    -0.051 S 
ENDROOT
BRANCH   1   3
ATOM      2  N   UNL     1      33.204 -21.771 -19.606  0.00  0.00    -0.242 NA
ATOM      3  C   UNL     1      34.972 -19.880 -20.660  0.00  0.00    +0.039 C 
ATOM      4  C   UNL     1      33.602 -19.735 -20.848  0.00  0.00    +0.028 C 
ATOM      5  C   UNL     1      35.459 -20.970 -19.946  0.00  0.00    +0.028 C 
ATOM      6  C   UNL     1      32.768 -20.700 -20.306  0.00  0.00    +0.099 C 
ATOM      7  C   UNL     1      34.542 -21.878 -19.444  0.00  0.00    +0.099 C 
ENDBRANCH   1   3
BRANCH   1   8
ATOM      8  S   UNL     1      34.945 -16.970 -21.324  0.00  0.00    -0.051 S 
BRANCH   8  10
ATOM      9  N   UNL     1      34.073 -16.423 -25.783  0.00  0.00    -0.242 NA
ATOM     10  C   UNL     1      34.606 -16.757 -23.062  0.00  0.00    +0.039 C 
ATOM     11  C   UNL     1      34.913 -17.771 -23.960  0.00  0.00    +0.028 C 
ATOM     12  C   UNL     1      34.031 -15.578 -23.518  0.00  0.00    +0.028 C 
ATOM     13  C   UNL     1      34.629 -17.556 -25.300  0.00  0.00    +0.099 C 
ATOM     14  C   UNL     1      33.787 -15.461 -24.877  0.00  0.00    +0.099 C 
ENDBRANCH   8  10
ENDBRANCH   1   8
TORSDOF 3
ENDMDL
MODEL 2
REMARK VINA RESULT:      -7.5      0.005      1.257
REMARK  Name = 75846
REMARK  3 active torsions:
REMARK  status: ('A' for Active; 'I' for Inactive)
REMARK    1  A    between atoms: S_1  and  C_3
REMARK    2  A    between atoms: S_1  and  S_8
REMARK    3  A    between atoms: S_8  and  C_10
REMARK                            x       y       z     vdW  Elec       q    Type
REMARK                         _______ _______ _______ _____ _____    ______ ____
ROOT
ATOM      1  S   UNL     1      36.100 -18.676 -21.328  0.00  0.00    -0.051 S 
ENDROOT
BRANCH   1   3
ATOM      2  N   UNL     1      33.199 -21.769 -19.606  0.00  0.00    -0.242 NA
ATOM      3  C   UNL     1      34.971 -19.881 -20.658  0.00  0.00    +0.039 C 
ATOM      4  C   UNL     1      35.456 -20.972 -19.945  0.00  0.00    +0.028 C 
ATOM      5  C   UNL     1      33.601 -19.733 -20.844  0.00  0.00    +0.028 C 
ATOM      6  C   UNL     1      34.537 -21.879 -19.445  0.00  0.00    +0.099 C 
ATOM      7  C   UNL     1      32.765 -20.696 -20.304  0.00  0.00    +0.099 C 
ENDBRANCH   1   3
BRANCH   1   8
ATOM      8  S   UNL     1      34.947 -16.971 -21.322  0.00  0.00    -0.051 S 
BRANCH   8  10
ATOM      9  N   UNL     1      34.074 -16.430 -25.781  0.00  0.00    -0.242 NA
ATOM     10  C   UNL     1      34.607 -16.760 -23.060  0.00  0.00    +0.039 C 
ATOM     11  C   UNL     1      34.912 -17.776 -23.957  0.00  0.00    +0.028 C 
ATOM     12  C   UNL     1      34.035 -15.580 -23.518  0.00  0.00    +0.028 C 
ATOM     13  C   UNL     1      34.628 -17.563 -25.296  0.00  0.00    +0.099 C 
ATOM     14  C   UNL     1      33.791 -15.465 -24.877  0.00  0.00    +0.099 C 
ENDBRANCH   8  10
ENDBRANCH   1   8
TORSDOF 3
ENDMDL
MODEL 3
REMARK VINA RESULT:      -7.5      0.057      5.936
REMARK  Name = 75846
REMARK  3 active torsions:
REMARK  status: ('A' for Active; 'I' for Inactive)
REMARK    1  A    between atoms: S_1  and  C_3
REMARK    2  A    between atoms: S_1  and  S_8
REMARK    3  A    between atoms: S_8  and  C_10
REMARK                            x       y       z     vdW  Elec       q    Type
REMARK                         _______ _______ _______ _____ _____    ______ ____
ROOT
ATOM      1  S   UNL     1      34.952 -16.981 -21.321  0.00  0.00    -0.051 S 
ENDROOT
BRANCH   1   3
ATOM      2  N   UNL     1      34.066 -16.512 -25.787  0.00  0.00    -0.242 NA
ATOM      3  C   UNL     1      34.607 -16.799 -23.060  0.00  0.00    +0.039 C 
ATOM      4  C   UNL     1      34.051 -15.619 -23.541  0.00  0.00    +0.028 C 
ATOM      5  C   UNL     1      34.893 -17.835 -23.941  0.00  0.00    +0.028 C 
ATOM      6  C   UNL     1      33.801 -15.526 -24.900  0.00  0.00    +0.099 C 
ATOM      7  C   UNL     1      34.606 -17.644 -25.282  0.00  0.00    +0.099 C 
ENDBRANCH   1   3
BRANCH   1   8
ATOM      8  S   UNL     1      36.101 -18.690 -21.298  0.00  0.00    -0.051 S 
BRANCH   8  10
ATOM      9  N   UNL     1      33.151 -21.766 -19.634  0.00  0.00    -0.242 NA
ATOM     10  C   UNL     1      34.950 -19.888 -20.649  0.00  0.00    +0.039 C 
ATOM     11  C   UNL     1      33.588 -19.733 -20.866  0.00  0.00    +0.028 C 
ATOM     12  C   UNL     1      35.418 -20.979 -19.928  0.00  0.00    +0.028 C 
ATOM     13  C   UNL     1      32.736 -20.692 -20.342  0.00  0.00    +0.099 C 
ATOM     14  C   UNL     1      34.484 -21.882 -19.445  0.00  0.00    +0.099 C 
ENDBRANCH   8  10
ENDBRANCH   1   8
TORSDOF 3
ENDMDL
MODEL 4
REMARK VINA RESULT:      -7.5      0.058      5.938
REMARK  Name = 75846
REMARK  3 active torsions:
REMARK  status: ('A' for Active; 'I' for Inactive)
REMARK    1  A    between atoms: S_1  and  C_3
REMARK    2  A    between atoms: S_1  and  S_8
REMARK    3  A    between atoms: S_8  and  C_10
REMARK                            x       y       z     vdW  Elec       q    Type
REMARK                         _______ _______ _______ _____ _____    ______ ____
ROOT
ATOM      1  S   UNL     1      34.944 -16.961 -21.350  0.00  0.00    -0.051 S 
ENDROOT
BRANCH   1   3
ATOM      2  N   UNL     1      34.064 -16.504 -25.819  0.00  0.00    -0.242 NA
ATOM      3  C   UNL     1      34.602 -16.783 -23.090  0.00  0.00    +0.039 C 
ATOM      4  C   UNL     1      34.900 -17.818 -23.969  0.00  0.00    +0.028 C 
ATOM      5  C   UNL     1      34.034 -15.609 -23.574  0.00  0.00    +0.028 C 
ATOM      6  C   UNL     1      34.614 -17.630 -25.312  0.00  0.00    +0.099 C 
ATOM      7  C   UNL     1      33.788 -15.520 -24.934  0.00  0.00    +0.099 C 
ENDBRANCH   1   3
BRANCH   1   8
ATOM      8  S   UNL     1      36.098 -18.665 -21.322  0.00  0.00    -0.051 S 
BRANCH   8  10
ATOM      9  N   UNL     1      33.157 -21.745 -19.648  0.00  0.00    -0.242 NA
ATOM     10  C   UNL     1      34.952 -19.866 -20.670  0.00  0.00    +0.039 C 
ATOM     11  C   UNL     1      35.422 -20.952 -19.943  0.00  0.00    +0.028 C 
ATOM     12  C   UNL     1      33.589 -19.714 -20.887  0.00  0.00    +0.028 C 
ATOM     13  C   UNL     1      34.490 -21.856 -19.458  0.00  0.00    +0.099 C 
ATOM     14  C   UNL     1      32.740 -20.674 -20.360  0.00  0.00    +0.099 C 
ENDBRANCH   8  10
ENDBRANCH   1   8
TORSDOF 3
ENDMDL
MODEL 5
REMARK VINA RESULT:      -7.2      1.678      2.178
REMARK  Name = 75846
REMARK  3 active torsions:
REMARK  status: ('A' for Active; 'I' for Inactive)
REMARK    1  A    between atoms: S_1  and  C_3
REMARK    2  A    between atoms: S_1  and  S_8
REMARK    3  A    between atoms: S_8  and  C_10
REMARK                            x       y       z     vdW  Elec       q    Type
REMARK                         _______ _______ _______ _____ _____    ______ ____
ROOT
ATOM      1  S   UNL     1      36.365 -18.964 -21.136  0.00  0.00    -0.051 S 
ENDROOT
BRANCH   1   3
ATOM      2  N   UNL     1      33.171 -21.841 -19.564  0.00  0.00    -0.242 NA
ATOM      3  C   UNL     1      35.122 -20.083 -20.524  0.00  0.00    +0.039 C 
ATOM      4  C   UNL     1      33.776 -19.838 -20.775  0.00  0.00    +0.028 C 
ATOM      5  C   UNL     1      35.493 -21.207 -19.794  0.00  0.00    +0.028 C 
ATOM      6  C   UNL     1      32.849 -20.739 -20.277  0.00  0.00    +0.099 C 
ATOM      7  C   UNL     1      34.489 -22.046 -19.340  0.00  0.00    +0.099 C 
ENDBRANCH   1   3
BRANCH   1   8
ATOM      8  S   UNL     1      35.534 -18.348 -22.916  0.00  0.00    -0.051 S 
BRANCH   8  10
ATOM      9  N   UNL     1      34.137 -14.118 -21.871  0.00  0.00    -0.242 NA
ATOM     10  C   UNL     1      34.989 -16.699 -22.508  0.00  0.00    +0.039 C 
ATOM     11  C   UNL     1      34.796 -16.339 -21.181  0.00  0.00    +0.028 C 
ATOM     12  C   UNL     1      34.759 -15.774 -23.519  0.00  0.00    +0.028 C 
ATOM     13  C   UNL     1      34.373 -15.046 -20.917  0.00  0.00    +0.099 C 
ATOM     14  C   UNL     1      34.337 -14.507 -23.150  0.00  0.00    +0.099 C 
ENDBRANCH   8  10
ENDBRANCH   1   8
TORSDOF 3
ENDMDL
MODEL 6
REMARK VINA RESULT:      -7.2      1.666      6.035
REMARK  Name = 75846
REMARK  3 active torsions:
REMARK  status: ('A' for Active; 'I' for Inactive)
REMARK    1  A    between atoms: S_1  and  C_3
REMARK    2  A    between atoms: S_1  and  S_8
REMARK    3  A    between atoms: S_8  and  C_10
REMARK                            x       y       z     vdW  Elec       q    Type
REMARK                         _______ _______ _______ _____ _____    ______ ____
ROOT
ATOM      1  S   UNL     1      35.469 -18.379 -22.909  0.00  0.00    -0.051 S 
ENDROOT
BRANCH   1   3
ATOM      2  N   UNL     1      34.141 -14.117 -21.904  0.00  0.00    -0.242 NA
ATOM      3  C   UNL     1      34.952 -16.720 -22.518  0.00  0.00    +0.039 C 
ATOM      4  C   UNL     1      34.762 -16.342 -21.193  0.00  0.00    +0.028 C 
ATOM      5  C   UNL     1      34.737 -15.797 -23.535  0.00  0.00    +0.028 C 
ATOM      6  C   UNL     1      34.360 -15.040 -20.942  0.00  0.00    +0.099 C 
ATOM      7  C   UNL     1      34.336 -14.520 -23.179  0.00  0.00    +0.099 C 
ENDBRANCH   1   3
BRANCH   1   8
ATOM      8  S   UNL     1      36.319 -18.984 -21.134  0.00  0.00    -0.051 S 
BRANCH   8  10
ATOM      9  N   UNL     1      33.169 -21.899 -19.547  0.00  0.00    -0.242 NA
ATOM     10  C   UNL     1      35.091 -20.120 -20.515  0.00  0.00    +0.039 C 
ATOM     11  C   UNL     1      33.742 -19.871 -20.731  0.00  0.00    +0.028 C 
ATOM     12  C   UNL     1      35.484 -21.255 -19.818  0.00  0.00    +0.028 C 
ATOM     13  C   UNL     1      32.827 -20.784 -20.230  0.00  0.00    +0.099 C 
ATOM     14  C   UNL     1      34.491 -22.106 -19.358  0.00  0.00    +0.099 C 
ENDBRANCH   8  10
ENDBRANCH   1   8
TORSDOF 3
ENDMDL
MODEL 7
REMARK VINA RESULT:      -7.1      1.889      2.461
REMARK  Name = 75846
REMARK  3 active torsions:
REMARK  status: ('A' for Active; 'I' for Inactive)
REMARK    1  A    between atoms: S_1  and  C_3
REMARK    2  A    between atoms: S_1  and  S_8
REMARK    3  A    between atoms: S_8  and  C_10
REMARK                            x       y       z     vdW  Elec       q    Type
REMARK                         _______ _______ _______ _____ _____    ______ ____
ROOT
ATOM      1  S   UNL     1      33.981 -19.532 -21.379  0.00  0.00    -0.051 S 
ENDROOT
BRANCH   1   3
ATOM      2  N   UNL     1      35.115 -22.572 -18.151  0.00  0.00    -0.242 NA
ATOM      3  C   UNL     1      34.423 -20.715 -20.122  0.00  0.00    +0.039 C 
ATOM      4  C   UNL     1      33.440 -21.496 -19.523  0.00  0.00    +0.028 C 
ATOM      5  C   UNL     1      35.751 -20.862 -19.737  0.00  0.00    +0.028 C 
ATOM      6  C   UNL     1      33.835 -22.401 -18.552  0.00  0.00    +0.099 C 
ATOM      7  C   UNL     1      36.042 -21.795 -18.756  0.00  0.00    +0.099 C 
ENDBRANCH   1   3
BRANCH   1   8
ATOM      8  S   UNL     1      35.731 -18.468 -21.587  0.00  0.00    -0.051 S 
BRANCH   8  10
ATOM      9  N   UNL     1      34.156 -14.239 -22.344  0.00  0.00    -0.242 NA
ATOM     10  C   UNL     1      35.118 -16.819 -21.882  0.00  0.00    +0.039 C 
ATOM     11  C   UNL     1      35.029 -16.332 -23.180  0.00  0.00    +0.028 C 
ATOM     12  C   UNL     1      34.726 -16.022 -20.814  0.00  0.00    +0.028 C 
ATOM     13  C   UNL     1      34.546 -15.045 -23.356  0.00  0.00    +0.099 C 
ATOM     14  C   UNL     1      34.257 -14.749 -21.096  0.00  0.00    +0.099 C 
ENDBRANCH   8  10
ENDBRANCH   1   8
TORSDOF 3
ENDMDL
MODEL 8
REMARK VINA RESULT:      -7.1      1.126      1.964
REMARK  Name = 75846
REMARK  3 active torsions:
REMARK  status: ('A' for Active; 'I' for Inactive)
REMARK    1  A    between atoms: S_1  and  C_3
REMARK    2  A    between atoms: S_1  and  S_8
REMARK    3  A    between atoms: S_8  and  C_10
REMARK                            x       y       z     vdW  Elec       q    Type
REMARK                         _______ _______ _______ _____ _____    ______ ____
ROOT
ATOM      1  S   UNL     1      36.064 -18.547 -21.764  0.00  0.00    -0.051 S 
ENDROOT
BRANCH   1   3
ATOM      2  N   UNL     1      33.205 -21.365 -19.566  0.00  0.00    -0.242 NA
ATOM      3  C   UNL     1      34.951 -19.645 -20.908  0.00  0.00    +0.039 C 
ATOM      4  C   UNL     1      35.453 -20.695 -20.148  0.00  0.00    +0.028 C 
ATOM      5  C   UNL     1      33.576 -19.453 -20.997  0.00  0.00    +0.028 C 
ATOM      6  C   UNL     1      34.546 -21.520 -19.503  0.00  0.00    +0.099 C 
ATOM      7  C   UNL     1      32.754 -20.334 -20.314  0.00  0.00    +0.099 C 
ENDBRANCH   1   3
BRANCH   1   8
ATOM      8  S   UNL     1      35.327 -18.615 -23.684  0.00  0.00    -0.051 S 
BRANCH   8  10
ATOM      9  N   UNL     1      33.746 -14.354 -24.217  0.00  0.00    -0.242 NA
ATOM     10  C   UNL     1      34.711 -16.954 -23.893  0.00  0.00    +0.039 C 
ATOM     11  C   UNL     1      34.074 -16.591 -25.072  0.00  0.00    +0.028 C 
ATOM     12  C   UNL     1      34.867 -16.022 -22.874  0.00  0.00    +0.028 C 
ATOM     13  C   UNL     1      33.613 -15.289 -25.184  0.00  0.00    +0.099 C 
ATOM     14  C   UNL     1      34.371 -14.746 -23.084  0.00  0.00    +0.099 C 
ENDBRANCH   8  10
ENDBRANCH   1   8
TORSDOF 3
ENDMDL
MODEL 9
REMARK VINA RESULT:      -7.0      1.902      6.423
REMARK  Name = 75846
REMARK  3 active torsions:
REMARK  status: ('A' for Active; 'I' for Inactive)
REMARK    1  A    between atoms: S_1  and  C_3
REMARK    2  A    between atoms: S_1  and  S_8
REMARK    3  A    between atoms: S_8  and  C_10
REMARK                            x       y       z     vdW  Elec       q    Type
REMARK                         _______ _______ _______ _____ _____    ______ ____
ROOT
ATOM      1  S   UNL     1      35.680 -18.220 -21.385  0.00  0.00    -0.051 S 
ENDROOT
BRANCH   1   3
ATOM      2  N   UNL     1      33.933 -14.101 -22.349  0.00  0.00    -0.242 NA
ATOM      3  C   UNL     1      35.000 -16.616 -21.761  0.00  0.00    +0.039 C 
ATOM      4  C   UNL     1      34.941 -16.174 -23.078  0.00  0.00    +0.028 C 
ATOM      5  C   UNL     1      34.526 -15.802 -20.738  0.00  0.00    +0.028 C 
ATOM      6  C   UNL     1      34.403 -14.920 -23.317  0.00  0.00    +0.099 C 
ATOM      7  C   UNL     1      34.008 -14.565 -21.082  0.00  0.00    +0.099 C 
ENDBRANCH   1   3
BRANCH   1   8
ATOM      8  S   UNL     1      33.999 -19.408 -21.425  0.00  0.00    -0.051 S 
BRANCH   8  10
ATOM      9  N   UNL     1      35.005 -22.540 -18.244  0.00  0.00    -0.242 NA
ATOM     10  C   UNL     1      34.392 -20.629 -20.185  0.00  0.00    +0.039 C 
ATOM     11  C   UNL     1      35.712 -20.841 -19.811  0.00  0.00    +0.028 C 
ATOM     12  C   UNL     1      33.376 -21.368 -19.592  0.00  0.00    +0.028 C 
ATOM     13  C   UNL     1      35.964 -21.800 -18.843  0.00  0.00    +0.099 C 
ATOM     14  C   UNL     1      33.732 -22.304 -18.635  0.00  0.00    +0.099 C 
ENDBRANCH   8  10
ENDBRANCH   1   8
TORSDOF 3
ENDMDL
