MODEL 1
REMARK VINA RESULT:      -6.3      0.000      0.000
REMARK  Name = 443201
REMARK  9 active torsions:
REMARK  status: ('A' for Active; 'I' for Inactive)
REMARK    1  A    between atoms: C_1  and  O_2
REMARK    2  A    between atoms: C_1  and  C_4
REMARK    3  A    between atoms: C_1  and  C_10
REMARK    4  A    between atoms: C_4  and  C_6
REMARK    5  A    between atoms: C_4  and  O_8
REMARK    6  A    between atoms: C_10  and  O_11
REMARK    7  A    between atoms: O_11  and  P_12
REMARK    8  A    between atoms: P_12  and  O_14
REMARK    9  A    between atoms: P_12  and  O_16
REMARK                            x       y       z     vdW  Elec       q    Type
REMARK                         _______ _______ _______ _____ _____    ______ ____
ROOT
ATOM      1  C   UNL     1      36.623 -25.722 -13.867  0.00  0.00    +0.175 C 
ENDROOT
BRANCH   1   2
ATOM      2  O   UNL     1      36.833 -26.657 -12.805  0.00  0.00    -0.379 OA
ATOM      3  H   UNL     1      36.181 -27.372 -12.870  0.00  0.00    +0.211 HD
ENDBRANCH   1   2
BRANCH   1   4
ATOM      4  C   UNL     1      36.689 -24.304 -13.293  0.00  0.00    +0.197 C 
BRANCH   4   6
ATOM      5  O   UNL     1      38.171 -24.490 -11.395  0.00  0.00    -0.293 OA
ATOM      6  C   UNL     1      37.025 -24.302 -11.806  0.00  0.00    +0.180 C 
ATOM      7  C   UNL     1      35.891 -24.062 -10.843  0.00  0.00    +0.075 C 
ENDBRANCH   4   6
BRANCH   4   8
ATOM      8  O   UNL     1      37.673 -23.552 -13.987  0.00  0.00    -0.375 OA
ATOM      9  H   UNL     1      37.401 -23.438 -14.911  0.00  0.00    +0.211 HD
ENDBRANCH   4   8
ENDBRANCH   1   4
BRANCH   1  10
ATOM     10  C   UNL     1      37.689 -25.959 -14.935  0.00  0.00    +0.186 C 
BRANCH  10  11
ATOM     11  O   UNL     1      38.773 -26.672 -14.349  0.00  0.00    -0.271 OA
BRANCH  11  12
ATOM     12  P   UNL     1      40.262 -26.059 -14.496  0.00  0.00    +0.473 P 
ATOM     13  O   UNL     1      41.367 -26.948 -14.009  0.00  0.00    -0.227 OA
BRANCH  12  14
ATOM     14  O   UNL     1      40.159 -24.619 -13.766  0.00  0.00    -0.303 OA
ATOM     15  H   UNL     1      41.045 -24.233 -13.686  0.00  0.00    +0.222 HD
ENDBRANCH  12  14
BRANCH  12  16
ATOM     16  O   UNL     1      40.334 -25.676 -16.065  0.00  0.00    -0.303 OA
ATOM     17  H   UNL     1      41.109 -26.099 -16.466  0.00  0.00    +0.222 HD
ENDBRANCH  12  16
ENDBRANCH  11  12
ENDBRANCH  10  11
ENDBRANCH   1  10
TORSDOF 9
ENDMDL
MODEL 2
REMARK VINA RESULT:      -6.2      1.359      2.845
REMARK  Name = 443201
REMARK  9 active torsions:
REMARK  status: ('A' for Active; 'I' for Inactive)
REMARK    1  A    between atoms: C_1  and  O_2
REMARK    2  A    between atoms: C_1  and  C_4
REMARK    3  A    between atoms: C_1  and  C_10
REMARK    4  A    between atoms: C_4  and  C_6
REMARK    5  A    between atoms: C_4  and  O_8
REMARK    6  A    between atoms: C_10  and  O_11
REMARK    7  A    between atoms: O_11  and  P_12
REMARK    8  A    between atoms: P_12  and  O_14
REMARK    9  A    between atoms: P_12  and  O_16
REMARK                            x       y       z     vdW  Elec       q    Type
REMARK                         _______ _______ _______ _____ _____    ______ ____
ROOT
ATOM      1  C   UNL     1      37.468 -23.943 -13.033  0.00  0.00    +0.175 C 
ENDROOT
BRANCH   1   2
ATOM      2  O   UNL     1      37.673 -23.188 -14.231  0.00  0.00    -0.379 OA
ATOM      3  H   UNL     1      36.928 -23.331 -14.835  0.00  0.00    +0.211 HD
ENDBRANCH   1   2
BRANCH   1   4
ATOM      4  C   UNL     1      36.228 -24.824 -13.215  0.00  0.00    +0.197 C 
BRANCH   4   6
ATOM      5  O   UNL     1      36.432 -25.442 -15.541  0.00  0.00    -0.293 OA
ATOM      6  C   UNL     1      35.771 -24.879 -14.668  0.00  0.00    +0.180 C 
ATOM      7  C   UNL     1      34.465 -24.206 -15.005  0.00  0.00    +0.075 C 
ENDBRANCH   4   6
BRANCH   4   8
ATOM      8  O   UNL     1      36.510 -26.144 -12.773  0.00  0.00    -0.375 OA
ATOM      9  H   UNL     1      36.284 -26.774 -13.474  0.00  0.00    +0.211 HD
ENDBRANCH   4   8
ENDBRANCH   1   4
BRANCH   1  10
ATOM     10  C   UNL     1      38.724 -24.770 -12.764  0.00  0.00    +0.186 C 
BRANCH  10  11
ATOM     11  O   UNL     1      39.588 -24.669 -13.891  0.00  0.00    -0.271 OA
BRANCH  11  12
ATOM     12  P   UNL     1      40.081 -26.035 -14.602  0.00  0.00    +0.473 P 
ATOM     13  O   UNL     1      41.286 -26.677 -13.981  0.00  0.00    -0.227 OA
BRANCH  12  14
ATOM     14  O   UNL     1      40.240 -25.624 -16.158  0.00  0.00    -0.303 OA
ATOM     15  H   UNL     1      39.421 -25.206 -16.468  0.00  0.00    +0.222 HD
ENDBRANCH  12  14
BRANCH  12  16
ATOM     16  O   UNL     1      38.742 -26.942 -14.591  0.00  0.00    -0.303 OA
ATOM     17  H   UNL     1      38.502 -27.175 -15.501  0.00  0.00    +0.222 HD
ENDBRANCH  12  16
ENDBRANCH  11  12
ENDBRANCH  10  11
ENDBRANCH   1  10
TORSDOF 9
ENDMDL
MODEL 3
REMARK VINA RESULT:      -6.2      1.253      2.029
REMARK  Name = 443201
REMARK  9 active torsions:
REMARK  status: ('A' for Active; 'I' for Inactive)
REMARK    1  A    between atoms: C_1  and  O_2
REMARK    2  A    between atoms: C_1  and  C_4
REMARK    3  A    between atoms: C_1  and  C_10
REMARK    4  A    between atoms: C_4  and  C_6
REMARK    5  A    between atoms: C_4  and  O_8
REMARK    6  A    between atoms: C_10  and  O_11
REMARK    7  A    between atoms: O_11  and  P_12
REMARK    8  A    between atoms: P_12  and  O_14
REMARK    9  A    between atoms: P_12  and  O_16
REMARK                            x       y       z     vdW  Elec       q    Type
REMARK                         _______ _______ _______ _____ _____    ______ ____
ROOT
ATOM      1  C   UNL     1      36.927 -25.251 -14.016  0.00  0.00    +0.175 C 
ENDROOT
BRANCH   1   2
ATOM      2  O   UNL     1      35.542 -25.511 -14.262  0.00  0.00    -0.379 OA
ATOM      3  H   UNL     1      35.118 -25.807 -13.441  0.00  0.00    +0.211 HD
ENDBRANCH   1   2
BRANCH   1   4
ATOM      4  C   UNL     1      37.215 -25.491 -12.531  0.00  0.00    +0.197 C 
BRANCH   4   6
ATOM      5  O   UNL     1      35.423 -24.953 -11.004  0.00  0.00    -0.293 OA
ATOM      6  C   UNL     1      36.407 -24.561 -11.632  0.00  0.00    +0.180 C 
ATOM      7  C   UNL     1      36.858 -23.126 -11.540  0.00  0.00    +0.075 C 
ENDBRANCH   4   6
BRANCH   4   8
ATOM      8  O   UNL     1      36.907 -26.835 -12.195  0.00  0.00    -0.375 OA
ATOM      9  H   UNL     1      37.674 -27.399 -12.383  0.00  0.00    +0.211 HD
ENDBRANCH   4   8
ENDBRANCH   1   4
BRANCH   1  10
ATOM     10  C   UNL     1      37.756 -26.165 -14.916  0.00  0.00    +0.186 C 
BRANCH  10  11
ATOM     11  O   UNL     1      38.902 -26.603 -14.192  0.00  0.00    -0.271 OA
BRANCH  11  12
ATOM     12  P   UNL     1      40.327 -25.918 -14.527  0.00  0.00    +0.473 P 
ATOM     13  O   UNL     1      40.563 -24.589 -13.872  0.00  0.00    -0.227 OA
BRANCH  12  14
ATOM     14  O   UNL     1      40.382 -25.913 -16.144  0.00  0.00    -0.303 OA
ATOM     15  H   UNL     1      41.213 -26.315 -16.440  0.00  0.00    +0.222 HD
ENDBRANCH  12  14
BRANCH  12  16
ATOM     16  O   UNL     1      41.381 -27.076 -14.122  0.00  0.00    -0.303 OA
ATOM     17  H   UNL     1      40.961 -27.693 -13.503  0.00  0.00    +0.222 HD
ENDBRANCH  12  16
ENDBRANCH  11  12
ENDBRANCH  10  11
ENDBRANCH   1  10
TORSDOF 9
ENDMDL
MODEL 4
REMARK VINA RESULT:      -6.1      2.511      4.353
REMARK  Name = 443201
REMARK  9 active torsions:
REMARK  status: ('A' for Active; 'I' for Inactive)
REMARK    1  A    between atoms: C_1  and  O_2
REMARK    2  A    between atoms: C_1  and  C_4
REMARK    3  A    between atoms: C_1  and  C_10
REMARK    4  A    between atoms: C_4  and  C_6
REMARK    5  A    between atoms: C_4  and  O_8
REMARK    6  A    between atoms: C_10  and  O_11
REMARK    7  A    between atoms: O_11  and  P_12
REMARK    8  A    between atoms: P_12  and  O_14
REMARK    9  A    between atoms: P_12  and  O_16
REMARK                            x       y       z     vdW  Elec       q    Type
REMARK                         _______ _______ _______ _____ _____    ______ ____
ROOT
ATOM      1  C   UNL     1      38.213 -25.926 -13.844  0.00  0.00    +0.175 C 
ENDROOT
BRANCH   1   2
ATOM      2  O   UNL     1      38.352 -27.177 -14.523  0.00  0.00    -0.379 OA
ATOM      3  H   UNL     1      37.548 -27.359 -15.035  0.00  0.00    +0.211 HD
ENDBRANCH   1   2
BRANCH   1   4
ATOM      4  C   UNL     1      37.722 -24.876 -14.845  0.00  0.00    +0.197 C 
BRANCH   4   6
ATOM      5  O   UNL     1      35.885 -26.222 -15.649  0.00  0.00    -0.293 OA
ATOM      6  C   UNL     1      36.278 -25.119 -15.269  0.00  0.00    +0.180 C 
ATOM      7  C   UNL     1      35.335 -23.944 -15.209  0.00  0.00    +0.075 C 
ENDBRANCH   4   6
BRANCH   4   8
ATOM      8  O   UNL     1      37.819 -23.582 -14.268  0.00  0.00    -0.375 OA
ATOM      9  H   UNL     1      36.942 -23.169 -14.252  0.00  0.00    +0.211 HD
ENDBRANCH   4   8
ENDBRANCH   1   4
BRANCH   1  10
ATOM     10  C   UNL     1      37.237 -26.113 -12.684  0.00  0.00    +0.186 C 
BRANCH  10  11
ATOM     11  O   UNL     1      37.426 -25.055 -11.751  0.00  0.00    -0.271 OA
BRANCH  11  12
ATOM     12  P   UNL     1      36.121 -24.273 -11.205  0.00  0.00    +0.473 P 
ATOM     13  O   UNL     1      36.023 -24.164  -9.712  0.00  0.00    -0.227 OA
BRANCH  12  14
ATOM     14  O   UNL     1      34.888 -25.030 -11.927  0.00  0.00    -0.303 OA
ATOM     15  H   UNL     1      35.197 -25.872 -12.297  0.00  0.00    +0.222 HD
ENDBRANCH  12  14
BRANCH  12  16
ATOM     16  O   UNL     1      36.201 -22.861 -11.989  0.00  0.00    -0.303 OA
ATOM     17  H   UNL     1      35.734 -22.934 -12.836  0.00  0.00    +0.222 HD
ENDBRANCH  12  16
ENDBRANCH  11  12
ENDBRANCH  10  11
ENDBRANCH   1  10
TORSDOF 9
ENDMDL
MODEL 5
REMARK VINA RESULT:      -6.0      1.952      2.949
REMARK  Name = 443201
REMARK  9 active torsions:
REMARK  status: ('A' for Active; 'I' for Inactive)
REMARK    1  A    between atoms: C_1  and  O_2
REMARK    2  A    between atoms: C_1  and  C_4
REMARK    3  A    between atoms: C_1  and  C_10
REMARK    4  A    between atoms: C_4  and  C_6
REMARK    5  A    between atoms: C_4  and  O_8
REMARK    6  A    between atoms: C_10  and  O_11
REMARK    7  A    between atoms: O_11  and  P_12
REMARK    8  A    between atoms: P_12  and  O_14
REMARK    9  A    between atoms: P_12  and  O_16
REMARK                            x       y       z     vdW  Elec       q    Type
REMARK                         _______ _______ _______ _____ _____    ______ ____
ROOT
ATOM      1  C   UNL     1      36.871 -25.703 -14.991  0.00  0.00    +0.175 C 
ENDROOT
BRANCH   1   2
ATOM      2  O   UNL     1      36.012 -26.548 -15.763  0.00  0.00    -0.379 OA
ATOM      3  H   UNL     1      36.276 -27.474 -15.643  0.00  0.00    +0.211 HD
ENDBRANCH   1   2
BRANCH   1   4
ATOM      4  C   UNL     1      36.019 -24.624 -14.316  0.00  0.00    +0.197 C 
BRANCH   4   6
ATOM      5  O   UNL     1      34.954 -23.917 -16.365  0.00  0.00    -0.293 OA
ATOM      6  C   UNL     1      34.830 -24.210 -15.176  0.00  0.00    +0.180 C 
ATOM      7  C   UNL     1      33.478 -24.170 -14.509  0.00  0.00    +0.075 C 
ENDBRANCH   4   6
BRANCH   4   8
ATOM      8  O   UNL     1      35.538 -25.105 -13.069  0.00  0.00    -0.375 OA
ATOM      9  H   UNL     1      36.204 -25.685 -12.668  0.00  0.00    +0.211 HD
ENDBRANCH   4   8
ENDBRANCH   1   4
BRANCH   1  10
ATOM     10  C   UNL     1      37.611 -26.570 -13.974  0.00  0.00    +0.186 C 
BRANCH  10  11
ATOM     11  O   UNL     1      38.854 -26.976 -14.537  0.00  0.00    -0.271 OA
BRANCH  11  12
ATOM     12  P   UNL     1      40.077 -25.920 -14.534  0.00  0.00    +0.473 P 
ATOM     13  O   UNL     1      39.842 -24.676 -13.729  0.00  0.00    -0.227 OA
BRANCH  12  14
ATOM     14  O   UNL     1      40.384 -25.681 -16.105  0.00  0.00    -0.303 OA
ATOM     15  H   UNL     1      40.332 -26.527 -16.577  0.00  0.00    +0.222 HD
ENDBRANCH  12  14
BRANCH  12  16
ATOM     16  O   UNL     1      41.325 -26.825 -14.045  0.00  0.00    -0.303 OA
ATOM     17  H   UNL     1      41.255 -26.983 -13.091  0.00  0.00    +0.222 HD
ENDBRANCH  12  16
ENDBRANCH  11  12
ENDBRANCH  10  11
ENDBRANCH   1  10
TORSDOF 9
ENDMDL
MODEL 6
REMARK VINA RESULT:      -5.9      2.568      4.816
REMARK  Name = 443201
REMARK  9 active torsions:
REMARK  status: ('A' for Active; 'I' for Inactive)
REMARK    1  A    between atoms: C_1  and  O_2
REMARK    2  A    between atoms: C_1  and  C_4
REMARK    3  A    between atoms: C_1  and  C_10
REMARK    4  A    between atoms: C_4  and  C_6
REMARK    5  A    between atoms: C_4  and  O_8
REMARK    6  A    between atoms: C_10  and  O_11
REMARK    7  A    between atoms: O_11  and  P_12
REMARK    8  A    between atoms: P_12  and  O_14
REMARK    9  A    between atoms: P_12  and  O_16
REMARK                            x       y       z     vdW  Elec       q    Type
REMARK                         _______ _______ _______ _____ _____    ______ ____
ROOT
ATOM      1  C   UNL     1      37.551 -24.996 -13.826  0.00  0.00    +0.175 C 
ENDROOT
BRANCH   1   2
ATOM      2  O   UNL     1      38.028 -23.647 -13.824  0.00  0.00    -0.379 OA
ATOM      3  H   UNL     1      38.995 -23.645 -13.897  0.00  0.00    +0.211 HD
ENDBRANCH   1   2
BRANCH   1   4
ATOM      4  C   UNL     1      38.353 -25.798 -14.856  0.00  0.00    +0.197 C 
BRANCH   4   6
ATOM      5  O   UNL     1      40.258 -24.373 -15.273  0.00  0.00    -0.293 OA
ATOM      6  C   UNL     1      39.835 -25.442 -14.833  0.00  0.00    +0.180 C 
ATOM      7  C   UNL     1      40.778 -26.461 -14.245  0.00  0.00    +0.075 C 
ENDBRANCH   4   6
BRANCH   4   8
ATOM      8  O   UNL     1      38.210 -27.186 -14.598  0.00  0.00    -0.375 OA
ATOM      9  H   UNL     1      38.475 -27.690 -15.383  0.00  0.00    +0.211 HD
ENDBRANCH   4   8
ENDBRANCH   1   4
BRANCH   1  10
ATOM     10  C   UNL     1      37.702 -25.562 -12.415  0.00  0.00    +0.186 C 
BRANCH  10  11
ATOM     11  O   UNL     1      36.442 -25.494 -11.757  0.00  0.00    -0.271 OA
BRANCH  11  12
ATOM     12  P   UNL     1      36.017 -24.098 -11.061  0.00  0.00    +0.473 P 
ATOM     13  O   UNL     1      37.121 -23.092 -10.926  0.00  0.00    -0.227 OA
BRANCH  12  14
ATOM     14  O   UNL     1      35.322 -24.555  -9.674  0.00  0.00    -0.303 OA
ATOM     15  H   UNL     1      35.837 -25.274  -9.275  0.00  0.00    +0.222 HD
ENDBRANCH  12  14
BRANCH  12  16
ATOM     16  O   UNL     1      34.763 -23.620 -11.964  0.00  0.00    -0.303 OA
ATOM     17  H   UNL     1      34.540 -24.315 -12.602  0.00  0.00    +0.222 HD
ENDBRANCH  12  16
ENDBRANCH  11  12
ENDBRANCH  10  11
ENDBRANCH   1  10
TORSDOF 9
ENDMDL
MODEL 7
REMARK VINA RESULT:      -5.9      2.488      4.543
REMARK  Name = 443201
REMARK  9 active torsions:
REMARK  status: ('A' for Active; 'I' for Inactive)
REMARK    1  A    between atoms: C_1  and  O_2
REMARK    2  A    between atoms: C_1  and  C_4
REMARK    3  A    between atoms: C_1  and  C_10
REMARK    4  A    between atoms: C_4  and  C_6
REMARK    5  A    between atoms: C_4  and  O_8
REMARK    6  A    between atoms: C_10  and  O_11
REMARK    7  A    between atoms: O_11  and  P_12
REMARK    8  A    between atoms: P_12  and  O_14
REMARK    9  A    between atoms: P_12  and  O_16
REMARK                            x       y       z     vdW  Elec       q    Type
REMARK                         _______ _______ _______ _____ _____    ______ ____
ROOT
ATOM      1  C   UNL     1      36.780 -24.402 -14.817  0.00  0.00    +0.175 C 
ENDROOT
BRANCH   1   2
ATOM      2  O   UNL     1      36.457 -23.927 -16.127  0.00  0.00    -0.379 OA
ATOM      3  H   UNL     1      37.245 -23.972 -16.691  0.00  0.00    +0.211 HD
ENDBRANCH   1   2
BRANCH   1   4
ATOM      4  C   UNL     1      38.303 -24.394 -14.653  0.00  0.00    +0.197 C 
BRANCH   4   6
ATOM      5  O   UNL     1      38.155 -26.801 -14.504  0.00  0.00    -0.293 OA
ATOM      6  C   UNL     1      38.876 -25.804 -14.546  0.00  0.00    +0.180 C 
ATOM      7  C   UNL     1      40.376 -25.935 -14.490  0.00  0.00    +0.075 C 
ENDBRANCH   4   6
BRANCH   4   8
ATOM      8  O   UNL     1      38.900 -23.740 -15.763  0.00  0.00    -0.375 OA
ATOM      9  H   UNL     1      38.325 -23.831 -16.539  0.00  0.00    +0.211 HD
ENDBRANCH   4   8
ENDBRANCH   1   4
BRANCH   1  10
ATOM     10  C   UNL     1      36.089 -23.502 -13.794  0.00  0.00    +0.186 C 
BRANCH  10  11
ATOM     11  O   UNL     1      36.748 -23.644 -12.540  0.00  0.00    -0.271 OA
BRANCH  11  12
ATOM     12  P   UNL     1      36.104 -24.642 -11.445  0.00  0.00    +0.473 P 
ATOM     13  O   UNL     1      36.161 -24.154 -10.027  0.00  0.00    -0.227 OA
BRANCH  12  14
ATOM     14  O   UNL     1      36.847 -26.052 -11.723  0.00  0.00    -0.303 OA
ATOM     15  H   UNL     1      36.994 -26.511 -10.881  0.00  0.00    +0.222 HD
ENDBRANCH  12  14
BRANCH  12  16
ATOM     16  O   UNL     1      34.613 -24.887 -12.022  0.00  0.00    -0.303 OA
ATOM     17  H   UNL     1      34.130 -25.484 -11.430  0.00  0.00    +0.222 HD
ENDBRANCH  12  16
ENDBRANCH  11  12
ENDBRANCH  10  11
ENDBRANCH   1  10
TORSDOF 9
ENDMDL
MODEL 8
REMARK VINA RESULT:      -5.8      1.400      2.234
REMARK  Name = 443201
REMARK  9 active torsions:
REMARK  status: ('A' for Active; 'I' for Inactive)
REMARK    1  A    between atoms: C_1  and  O_2
REMARK    2  A    between atoms: C_1  and  C_4
REMARK    3  A    between atoms: C_1  and  C_10
REMARK    4  A    between atoms: C_4  and  C_6
REMARK    5  A    between atoms: C_4  and  O_8
REMARK    6  A    between atoms: C_10  and  O_11
REMARK    7  A    between atoms: O_11  and  P_12
REMARK    8  A    between atoms: P_12  and  O_14
REMARK    9  A    between atoms: P_12  and  O_16
REMARK                            x       y       z     vdW  Elec       q    Type
REMARK                         _______ _______ _______ _____ _____    ______ ____
ROOT
ATOM      1  C   UNL     1      36.814 -25.760 -14.982  0.00  0.00    +0.175 C 
ENDROOT
BRANCH   1   2
ATOM      2  O   UNL     1      35.985 -26.770 -15.567  0.00  0.00    -0.379 OA
ATOM      3  H   UNL     1      36.251 -27.640 -15.232  0.00  0.00    +0.211 HD
ENDBRANCH   1   2
BRANCH   1   4
ATOM      4  C   UNL     1      35.918 -24.640 -14.445  0.00  0.00    +0.197 C 
BRANCH   4   6
ATOM      5  O   UNL     1      37.471 -22.794 -14.555  0.00  0.00    -0.293 OA
ATOM      6  C   UNL     1      36.728 -23.488 -13.861  0.00  0.00    +0.180 C 
ATOM      7  C   UNL     1      36.589 -23.227 -12.383  0.00  0.00    +0.075 C 
ENDBRANCH   4   6
BRANCH   4   8
ATOM      8  O   UNL     1      35.098 -24.141 -15.490  0.00  0.00    -0.375 OA
ATOM      9  H   UNL     1      35.156 -24.732 -16.257  0.00  0.00    +0.211 HD
ENDBRANCH   4   8
ENDBRANCH   1   4
BRANCH   1  10
ATOM     10  C   UNL     1      37.651 -26.405 -13.879  0.00  0.00    +0.186 C 
BRANCH  10  11
ATOM     11  O   UNL     1      38.852 -26.911 -14.452  0.00  0.00    -0.271 OA
BRANCH  11  12
ATOM     12  P   UNL     1      40.136 -25.932 -14.528  0.00  0.00    +0.473 P 
ATOM     13  O   UNL     1      40.004 -24.649 -13.761  0.00  0.00    -0.227 OA
BRANCH  12  14
ATOM     14  O   UNL     1      40.401 -25.766 -16.115  0.00  0.00    -0.303 OA
ATOM     15  H   UNL     1      39.682 -25.250 -16.511  0.00  0.00    +0.222 HD
ENDBRANCH  12  14
BRANCH  12  16
ATOM     16  O   UNL     1      41.344 -26.894 -14.048  0.00  0.00    -0.303 OA
ATOM     17  H   UNL     1      41.747 -26.530 -13.245  0.00  0.00    +0.222 HD
ENDBRANCH  12  16
ENDBRANCH  11  12
ENDBRANCH  10  11
ENDBRANCH   1  10
TORSDOF 9
ENDMDL
MODEL 9
REMARK VINA RESULT:      -5.7      1.730      2.437
REMARK  Name = 443201
REMARK  9 active torsions:
REMARK  status: ('A' for Active; 'I' for Inactive)
REMARK    1  A    between atoms: C_1  and  O_2
REMARK    2  A    between atoms: C_1  and  C_4
REMARK    3  A    between atoms: C_1  and  C_10
REMARK    4  A    between atoms: C_4  and  C_6
REMARK    5  A    between atoms: C_4  and  O_8
REMARK    6  A    between atoms: C_10  and  O_11
REMARK    7  A    between atoms: O_11  and  P_12
REMARK    8  A    between atoms: P_12  and  O_14
REMARK    9  A    between atoms: P_12  and  O_16
REMARK                            x       y       z     vdW  Elec       q    Type
REMARK                         _______ _______ _______ _____ _____    ______ ____
ROOT
ATOM      1  C   UNL     1      36.816 -25.463 -12.809  0.00  0.00    +0.175 C 
ENDROOT
BRANCH   1   2
ATOM      2  O   UNL     1      36.379 -25.521 -11.448  0.00  0.00    -0.379 OA
ATOM      3  H   UNL     1      35.425 -25.347 -11.407  0.00  0.00    +0.211 HD
ENDBRANCH   1   2
BRANCH   1   4
ATOM      4  C   UNL     1      36.409 -24.109 -13.398  0.00  0.00    +0.197 C 
BRANCH   4   6
ATOM      5  O   UNL     1      36.163 -24.337 -15.790  0.00  0.00    -0.293 OA
ATOM      6  C   UNL     1      35.614 -24.261 -14.690  0.00  0.00    +0.180 C 
ATOM      7  C   UNL     1      34.112 -24.314 -14.573  0.00  0.00    +0.075 C 
ENDBRANCH   4   6
BRANCH   4   8
ATOM      8  O   UNL     1      35.622 -23.395 -12.457  0.00  0.00    -0.375 OA
ATOM      9  H   UNL     1      35.412 -22.517 -12.811  0.00  0.00    +0.211 HD
ENDBRANCH   4   8
ENDBRANCH   1   4
BRANCH   1  10
ATOM     10  C   UNL     1      38.329 -25.671 -12.838  0.00  0.00    +0.186 C 
BRANCH  10  11
ATOM     11  O   UNL     1      38.704 -26.125 -14.134  0.00  0.00    -0.271 OA
BRANCH  11  12
ATOM     12  P   UNL     1      39.887 -25.340 -14.908  0.00  0.00    +0.473 P 
ATOM     13  O   UNL     1      40.691 -26.177 -15.858  0.00  0.00    -0.227 OA
BRANCH  12  14
ATOM     14  O   UNL     1      40.729 -24.641 -13.717  0.00  0.00    -0.303 OA
ATOM     15  H   UNL     1      41.030 -25.319 -13.092  0.00  0.00    +0.222 HD
ENDBRANCH  12  14
BRANCH  12  16
ATOM     16  O   UNL     1      39.103 -24.099 -15.587  0.00  0.00    -0.303 OA
ATOM     17  H   UNL     1      39.020 -23.378 -14.944  0.00  0.00    +0.222 HD
ENDBRANCH  12  16
ENDBRANCH  11  12
ENDBRANCH  10  11
ENDBRANCH   1  10
TORSDOF 9
ENDMDL
