MODEL 1
REMARK VINA RESULT:     -11.7      0.000      0.000
REMARK  Name = 6914568
REMARK  4 active torsions:
REMARK  status: ('A' for Active; 'I' for Inactive)
REMARK    1  A    between atoms: C_3  and  C_14
REMARK    2  A    between atoms: C_7  and  N_26
REMARK    3  A    between atoms: C_11  and  N_17
REMARK    4  A    between atoms: C_27  and  C_30
REMARK                            x       y       z     vdW  Elec       q    Type
REMARK                         _______ _______ _______ _____ _____    ______ ____
ROOT
ATOM      1  N   UNL     1      34.230 -16.061 -25.872  0.00  0.00    -0.296 N 
ATOM      2  N   UNL     1      34.833 -18.257 -25.084  0.00  0.00    -0.229 NA
ATOM      3  C   UNL     1      34.484 -18.551 -22.687  0.00  0.00    +0.019 C 
ATOM      4  C   UNL     1      33.951 -16.443 -23.690  0.00  0.00    +0.046 C 
ATOM      5  C   UNL     1      34.011 -17.249 -22.541  0.00  0.00    +0.006 C 
ATOM      6  C   UNL     1      34.370 -17.007 -24.891  0.00  0.00    +0.133 C 
ATOM      7  C   UNL     1      33.551 -15.111 -23.978  0.00  0.00    +0.068 C 
ATOM      8  C   UNL     1      34.868 -18.988 -23.946  0.00  0.00    +0.100 C 
ATOM      9  C   UNL     1      33.733 -14.905 -25.329  0.00  0.00    +0.078 C 
ATOM     10  H   UNL     1      34.453 -16.192 -26.823  0.00  0.00    +0.154 HD
ENDROOT
BRANCH   3  14
ATOM     11  C   UNL     1      34.739 -21.145 -19.312  0.00  0.00    +0.048 C 
ATOM     12  C   UNL     1      33.492 -20.809 -19.876  0.00  0.00    +0.015 C 
ATOM     13  C   UNL     1      35.898 -20.600 -19.896  0.00  0.00    +0.015 C 
ATOM     14  C   UNL     1      34.570 -19.432 -21.542  0.00  0.00    +0.002 C 
ATOM     15  C   UNL     1      33.409 -19.961 -20.980  0.00  0.00    +0.001 C 
ATOM     16  C   UNL     1      35.815 -19.752 -21.000  0.00  0.00    +0.001 C 
BRANCH  11  17
ATOM     17  N   UNL     1      34.821 -21.996 -18.204  0.00  0.00    -0.312 N 
ATOM     18  N   UNL     1      35.043 -23.924 -16.108  0.00  0.00    +0.388 N 
ATOM     19  C   UNL     1      36.128 -22.277 -17.599  0.00  0.00    +0.068 C 
ATOM     20  C   UNL     1      33.819 -23.061 -18.075  0.00  0.00    +0.068 C 
ATOM     21  C   UNL     1      35.958 -22.778 -16.163  0.00  0.00    -0.056 C 
ATOM     22  C   UNL     1      33.724 -23.535 -16.622  0.00  0.00    -0.056 C 
ATOM     23  C   UNL     1      34.931 -24.427 -14.740  0.00  0.00    -0.101 C 
ATOM     24  H   UNL     1      35.417 -24.673 -16.692  0.00  0.00    -0.080 HD
ENDBRANCH  11  17
ENDBRANCH   3  14
BRANCH   7  26
ATOM     25  O   UNL     1      33.438 -12.141 -24.228  0.00  0.00    -0.270 OA
ATOM     26  N   UNL     1      33.065 -14.171 -23.097  0.00  0.00    -0.279 N 
ATOM     27  C   UNL     1      33.035 -12.779 -23.261  0.00  0.00    +0.251 C 
ATOM     28  H   UNL     1      32.696 -14.518 -22.253  0.00  0.00    +0.155 HD
BRANCH  27  30
ATOM     29  N   UNL     1      31.570  -9.940 -21.324  0.00  0.00    -0.242 NA
ATOM     30  C   UNL     1      32.419 -12.018 -22.142  0.00  0.00    +0.073 C 
ATOM     31  C   UNL     1      32.145 -12.650 -20.955  0.00  0.00    +0.008 C 
ATOM     32  C   UNL     1      32.129 -10.690 -22.300  0.00  0.00    +0.103 C 
ATOM     33  C   UNL     1      31.569 -11.912 -19.926  0.00  0.00    +0.021 C 
ATOM     34  C   UNL     1      31.304 -10.573 -20.159  0.00  0.00    +0.099 C 
ENDBRANCH  27  30
ENDBRANCH   7  26
TORSDOF 4
ENDMDL
MODEL 2
REMARK VINA RESULT:     -11.2      4.121     10.811
REMARK  Name = 6914568
REMARK  4 active torsions:
REMARK  status: ('A' for Active; 'I' for Inactive)
REMARK    1  A    between atoms: C_3  and  C_14
REMARK    2  A    between atoms: C_7  and  N_26
REMARK    3  A    between atoms: C_11  and  N_17
REMARK    4  A    between atoms: C_27  and  C_30
REMARK                            x       y       z     vdW  Elec       q    Type
REMARK                         _______ _______ _______ _____ _____    ______ ____
ROOT
ATOM      1  N   UNL     1      36.738 -24.046 -14.791  0.00  0.00    -0.296 N 
ATOM      2  N   UNL     1      37.675 -22.623 -16.494  0.00  0.00    -0.229 NA
ATOM      3  C   UNL     1      36.005 -21.742 -18.042  0.00  0.00    +0.019 C 
ATOM      4  C   UNL     1      35.299 -23.183 -16.263  0.00  0.00    +0.046 C 
ATOM      5  C   UNL     1      34.969 -22.401 -17.383  0.00  0.00    +0.006 C 
ATOM      6  C   UNL     1      36.639 -23.239 -15.895  0.00  0.00    +0.133 C 
ATOM      7  C   UNL     1      34.582 -23.988 -15.340  0.00  0.00    +0.068 C 
ATOM      8  C   UNL     1      37.300 -21.885 -17.565  0.00  0.00    +0.100 C 
ATOM      9  C   UNL     1      35.494 -24.507 -14.446  0.00  0.00    +0.078 C 
ATOM     10  H   UNL     1      37.574 -24.262 -14.318  0.00  0.00    +0.154 HD
ENDROOT
BRANCH   3  14
ATOM     11  C   UNL     1      35.200 -19.322 -21.459  0.00  0.00    +0.048 C 
ATOM     12  C   UNL     1      36.486 -19.362 -20.886  0.00  0.00    +0.015 C 
ATOM     13  C   UNL     1      34.188 -20.106 -20.871  0.00  0.00    +0.015 C 
ATOM     14  C   UNL     1      35.732 -20.922 -19.201  0.00  0.00    +0.002 C 
ATOM     15  C   UNL     1      36.749 -20.154 -19.768  0.00  0.00    +0.001 C 
ATOM     16  C   UNL     1      34.451 -20.898 -19.754  0.00  0.00    +0.001 C 
BRANCH  11  17
ATOM     17  N   UNL     1      34.936 -18.527 -22.580  0.00  0.00    -0.312 N 
ATOM     18  N   UNL     1      34.655 -16.867 -24.888  0.00  0.00    +0.388 N 
ATOM     19  C   UNL     1      35.003 -19.116 -23.922  0.00  0.00    +0.068 C 
ATOM     20  C   UNL     1      35.248 -17.094 -22.499  0.00  0.00    +0.068 C 
ATOM     21  C   UNL     1      34.215 -18.267 -24.921  0.00  0.00    -0.056 C 
ATOM     22  C   UNL     1      34.450 -16.311 -23.545  0.00  0.00    -0.056 C 
ATOM     23  C   UNL     1      33.932 -16.078 -25.884  0.00  0.00    -0.101 C 
ATOM     24  H   UNL     1      35.649 -16.829 -25.112  0.00  0.00    -0.080 HD
ENDBRANCH  11  17
ENDBRANCH   3  14
BRANCH   7  26
ATOM     25  O   UNL     1      32.375 -22.352 -14.181  0.00  0.00    -0.270 OA
ATOM     26  N   UNL     1      33.227 -24.231 -15.312  0.00  0.00    -0.279 N 
ATOM     27  C   UNL     1      32.224 -23.427 -14.751  0.00  0.00    +0.251 C 
ATOM     28  H   UNL     1      32.928 -25.067 -15.735  0.00  0.00    +0.155 HD
BRANCH  27  30
ATOM     29  N   UNL     1      29.275 -25.709 -14.530  0.00  0.00    -0.242 NA
ATOM     30  C   UNL     1      30.837 -23.940 -14.901  0.00  0.00    +0.073 C 
ATOM     31  C   UNL     1      29.884 -23.165 -15.515  0.00  0.00    +0.008 C 
ATOM     32  C   UNL     1      30.516 -25.183 -14.427  0.00  0.00    +0.103 C 
ATOM     33  C   UNL     1      28.595 -23.672 -15.641  0.00  0.00    +0.021 C 
ATOM     34  C   UNL     1      28.345 -24.937 -15.137  0.00  0.00    +0.099 C 
ENDBRANCH  27  30
ENDBRANCH   7  26
TORSDOF 4
ENDMDL
MODEL 3
REMARK VINA RESULT:     -10.6      5.723     10.682
REMARK  Name = 6914568
REMARK  4 active torsions:
REMARK  status: ('A' for Active; 'I' for Inactive)
REMARK    1  A    between atoms: C_3  and  C_14
REMARK    2  A    between atoms: C_7  and  N_26
REMARK    3  A    between atoms: C_11  and  N_17
REMARK    4  A    between atoms: C_27  and  C_30
REMARK                            x       y       z     vdW  Elec       q    Type
REMARK                         _______ _______ _______ _____ _____    ______ ____
ROOT
ATOM      1  N   UNL     1      31.221  -4.789 -21.718  0.00  0.00    -0.296 N 
ATOM      2  N   UNL     1      31.603  -7.021 -20.895  0.00  0.00    -0.229 NA
ATOM      3  C   UNL     1      32.227  -8.602 -22.647  0.00  0.00    +0.019 C 
ATOM      4  C   UNL     1      31.797  -6.321 -23.237  0.00  0.00    +0.046 C 
ATOM      5  C   UNL     1      32.153  -7.621 -23.633  0.00  0.00    +0.006 C 
ATOM      6  C   UNL     1      31.545  -6.110 -21.885  0.00  0.00    +0.133 C 
ATOM      7  C   UNL     1      31.612  -5.075 -23.890  0.00  0.00    +0.068 C 
ATOM      8  C   UNL     1      31.950  -8.254 -21.332  0.00  0.00    +0.100 C 
ATOM      9  C   UNL     1      31.257  -4.151 -22.930  0.00  0.00    +0.078 C 
ATOM     10  H   UNL     1      30.995  -4.364 -20.859  0.00  0.00    +0.154 HD
ENDROOT
BRANCH   3  14
ATOM     11  C   UNL     1      33.286 -12.607 -23.658  0.00  0.00    +0.048 C 
ATOM     12  C   UNL     1      33.863 -11.512 -24.332  0.00  0.00    +0.015 C 
ATOM     13  C   UNL     1      32.350 -12.340 -22.640  0.00  0.00    +0.015 C 
ATOM     14  C   UNL     1      32.587  -9.961 -22.989  0.00  0.00    +0.002 C 
ATOM     15  C   UNL     1      33.516 -10.203 -24.000  0.00  0.00    +0.001 C 
ATOM     16  C   UNL     1      32.004 -11.030 -22.308  0.00  0.00    +0.001 C 
BRANCH  11  17
ATOM     17  N   UNL     1      33.633 -13.921 -23.991  0.00  0.00    -0.312 N 
ATOM     18  N   UNL     1      34.138 -16.680 -24.531  0.00  0.00    +0.388 N 
ATOM     19  C   UNL     1      32.989 -14.576 -25.135  0.00  0.00    +0.068 C 
ATOM     20  C   UNL     1      34.071 -14.815 -22.911  0.00  0.00    +0.068 C 
ATOM     21  C   UNL     1      33.835 -15.752 -25.627  0.00  0.00    -0.056 C 
ATOM     22  C   UNL     1      34.883 -15.982 -23.477  0.00  0.00    -0.056 C 
ATOM     23  C   UNL     1      34.901 -17.826 -25.025  0.00  0.00    -0.101 C 
ATOM     24  H   UNL     1      33.261 -17.027 -24.141  0.00  0.00    -0.080 HD
ENDBRANCH  11  17
ENDBRANCH   3  14
BRANCH   7  26
ATOM     25  O   UNL     1      32.374  -2.531 -25.249  0.00  0.00    -0.270 OA
ATOM     26  N   UNL     1      31.751  -4.801 -25.232  0.00  0.00    -0.279 N 
ATOM     27  C   UNL     1      32.112  -3.582 -25.825  0.00  0.00    +0.251 C 
ATOM     28  H   UNL     1      31.576  -5.548 -25.847  0.00  0.00    +0.155 HD
BRANCH  27  30
ATOM     29  N   UNL     1      31.602  -2.604 -29.394  0.00  0.00    -0.242 NA
ATOM     30  C   UNL     1      32.209  -3.599 -27.308  0.00  0.00    +0.073 C 
ATOM     31  C   UNL     1      32.953  -4.568 -27.935  0.00  0.00    +0.008 C 
ATOM     32  C   UNL     1      31.556  -2.647 -28.043  0.00  0.00    +0.103 C 
ATOM     33  C   UNL     1      33.025  -4.558 -29.324  0.00  0.00    +0.021 C 
ATOM     34  C   UNL     1      32.337  -3.564 -30.000  0.00  0.00    +0.099 C 
ENDBRANCH  27  30
ENDBRANCH   7  26
TORSDOF 4
ENDMDL
MODEL 4
REMARK VINA RESULT:     -10.4      4.001     10.146
REMARK  Name = 6914568
REMARK  4 active torsions:
REMARK  status: ('A' for Active; 'I' for Inactive)
REMARK    1  A    between atoms: C_3  and  C_14
REMARK    2  A    between atoms: C_7  and  N_26
REMARK    3  A    between atoms: C_11  and  N_17
REMARK    4  A    between atoms: C_27  and  C_30
REMARK                            x       y       z     vdW  Elec       q    Type
REMARK                         _______ _______ _______ _____ _____    ______ ____
ROOT
ATOM      1  N   UNL     1      35.041 -23.375 -17.564  0.00  0.00    -0.296 N 
ATOM      2  N   UNL     1      36.118 -21.913 -19.148  0.00  0.00    -0.229 NA
ATOM      3  C   UNL     1      34.575 -20.371 -20.242  0.00  0.00    +0.019 C 
ATOM      4  C   UNL     1      33.722 -21.919 -18.626  0.00  0.00    +0.046 C 
ATOM      5  C   UNL     1      33.485 -20.877 -19.538  0.00  0.00    +0.006 C 
ATOM      6  C   UNL     1      35.032 -22.368 -18.494  0.00  0.00    +0.133 C 
ATOM      7  C   UNL     1      32.929 -22.694 -17.739  0.00  0.00    +0.068 C 
ATOM      8  C   UNL     1      35.831 -20.911 -20.011  0.00  0.00    +0.100 C 
ATOM      9  C   UNL     1      33.768 -23.582 -17.100  0.00  0.00    +0.078 C 
ATOM     10  H   UNL     1      35.839 -23.874 -17.275  0.00  0.00    +0.154 HD
ENDROOT
BRANCH   3  14
ATOM     11  C   UNL     1      34.049 -17.209 -23.054  0.00  0.00    +0.048 C 
ATOM     12  C   UNL     1      33.681 -17.047 -21.704  0.00  0.00    +0.015 C 
ATOM     13  C   UNL     1      34.597 -18.445 -23.448  0.00  0.00    +0.015 C 
ATOM     14  C   UNL     1      34.397 -19.298 -21.196  0.00  0.00    +0.002 C 
ATOM     15  C   UNL     1      33.854 -18.081 -20.784  0.00  0.00    +0.001 C 
ATOM     16  C   UNL     1      34.769 -19.479 -22.528  0.00  0.00    +0.001 C 
BRANCH  11  17
ATOM     17  N   UNL     1      33.875 -16.171 -23.977  0.00  0.00    -0.312 N 
ATOM     18  N   UNL     1      33.779 -14.024 -25.859  0.00  0.00    +0.388 N 
ATOM     19  C   UNL     1      33.996 -16.446 -25.413  0.00  0.00    +0.068 C 
ATOM     20  C   UNL     1      34.231 -14.809 -23.559  0.00  0.00    +0.068 C 
ATOM     21  C   UNL     1      33.294 -15.360 -26.229  0.00  0.00    -0.056 C 
ATOM     22  C   UNL     1      33.519 -13.776 -24.436  0.00  0.00    -0.056 C 
ATOM     23  C   UNL     1      33.139 -12.999 -26.683  0.00  0.00    -0.101 C 
ATOM     24  H   UNL     1      34.785 -13.982 -26.023  0.00  0.00    -0.080 HD
ENDBRANCH  11  17
ENDBRANCH   3  14
BRANCH   7  26
ATOM     25  O   UNL     1      31.279 -23.691 -15.464  0.00  0.00    -0.270 OA
ATOM     26  N   UNL     1      31.572 -22.605 -17.531  0.00  0.00    -0.279 N 
ATOM     27  C   UNL     1      30.838 -23.093 -16.439  0.00  0.00    +0.251 C 
ATOM     28  H   UNL     1      31.055 -22.145 -18.230  0.00  0.00    +0.155 HD
BRANCH  27  30
ATOM     29  N   UNL     1      27.326 -22.909 -17.699  0.00  0.00    -0.242 NA
ATOM     30  C   UNL     1      29.378 -22.819 -16.478  0.00  0.00    +0.073 C 
ATOM     31  C   UNL     1      28.759 -22.253 -15.391  0.00  0.00    +0.008 C 
ATOM     32  C   UNL     1      28.656 -23.132 -17.598  0.00  0.00    +0.103 C 
ATOM     33  C   UNL     1      27.392 -22.008 -15.456  0.00  0.00    +0.021 C 
ATOM     34  C   UNL     1      26.728 -22.352 -16.622  0.00  0.00    +0.099 C 
ENDBRANCH  27  30
ENDBRANCH   7  26
TORSDOF 4
ENDMDL
MODEL 5
REMARK VINA RESULT:     -10.0      5.614     13.648
REMARK  Name = 6914568
REMARK  4 active torsions:
REMARK  status: ('A' for Active; 'I' for Inactive)
REMARK    1  A    between atoms: C_3  and  C_14
REMARK    2  A    between atoms: C_7  and  N_26
REMARK    3  A    between atoms: C_11  and  N_17
REMARK    4  A    between atoms: C_27  and  C_30
REMARK                            x       y       z     vdW  Elec       q    Type
REMARK                         _______ _______ _______ _____ _____    ______ ____
ROOT
ATOM      1  N   UNL     1      31.496 -11.326 -19.822  0.00  0.00    -0.296 N 
ATOM      2  N   UNL     1      31.612  -8.987 -20.385  0.00  0.00    -0.229 NA
ATOM      3  C   UNL     1      32.481  -8.576 -22.629  0.00  0.00    +0.019 C 
ATOM      4  C   UNL     1      32.277 -10.833 -21.855  0.00  0.00    +0.046 C 
ATOM      5  C   UNL     1      32.640  -9.938 -22.875  0.00  0.00    +0.006 C 
ATOM      6  C   UNL     1      31.785 -10.291 -20.672  0.00  0.00    +0.133 C 
ATOM      7  C   UNL     1      32.278 -12.244 -21.693  0.00  0.00    +0.068 C 
ATOM      8  C   UNL     1      31.976  -8.171 -21.402  0.00  0.00    +0.100 C 
ATOM      9  C   UNL     1      31.792 -12.518 -20.432  0.00  0.00    +0.078 C 
ATOM     10  H   UNL     1      31.131 -11.229 -18.913  0.00  0.00    +0.154 HD
ENDROOT
BRANCH   3  14
ATOM     11  C   UNL     1      33.528  -5.709 -25.606  0.00  0.00    +0.048 C 
ATOM     12  C   UNL     1      32.199  -5.835 -25.157  0.00  0.00    +0.015 C 
ATOM     13  C   UNL     1      34.501  -6.557 -25.043  0.00  0.00    +0.015 C 
ATOM     14  C   UNL     1      32.836  -7.603 -23.638  0.00  0.00    +0.002 C 
ATOM     15  C   UNL     1      31.857  -6.772 -24.183  0.00  0.00    +0.001 C 
ATOM     16  C   UNL     1      34.159  -7.494 -24.069  0.00  0.00    +0.001 C 
BRANCH  11  17
ATOM     17  N   UNL     1      33.870  -4.768 -26.584  0.00  0.00    -0.312 N 
ATOM     18  N   UNL     1      34.571  -3.044 -28.751  0.00  0.00    +0.388 N 
ATOM     19  C   UNL     1      32.821  -4.164 -27.412  0.00  0.00    +0.068 C 
ATOM     20  C   UNL     1      35.192  -4.877 -27.215  0.00  0.00    +0.068 C 
ATOM     21  C   UNL     1      33.309  -2.850 -28.026  0.00  0.00    -0.056 C 
ATOM     22  C   UNL     1      35.604  -3.539 -27.834  0.00  0.00    -0.056 C 
ATOM     23  C   UNL     1      34.999  -1.794 -29.378  0.00  0.00    -0.101 C 
ATOM     24  H   UNL     1      34.424  -3.735 -29.488  0.00  0.00    -0.080 HD
ENDBRANCH  11  17
ENDBRANCH   3  14
BRANCH   7  26
ATOM     25  O   UNL     1      34.420 -14.308 -21.472  0.00  0.00    -0.270 OA
ATOM     26  N   UNL     1      32.682 -13.194 -22.603  0.00  0.00    -0.279 N 
ATOM     27  C   UNL     1      33.700 -14.147 -22.453  0.00  0.00    +0.251 C 
ATOM     28  H   UNL     1      32.200 -13.205 -23.461  0.00  0.00    +0.155 HD
BRANCH  27  30
ATOM     29  N   UNL     1      33.390 -15.600 -25.880  0.00  0.00    -0.242 NA
ATOM     30  C   UNL     1      33.891 -15.065 -23.606  0.00  0.00    +0.073 C 
ATOM     31  C   UNL     1      34.697 -16.168 -23.476  0.00  0.00    +0.008 C 
ATOM     32  C   UNL     1      33.260 -14.806 -24.793  0.00  0.00    +0.103 C 
ATOM     33  C   UNL     1      34.855 -17.009 -24.572  0.00  0.00    +0.021 C 
ATOM     34  C   UNL     1      34.186 -16.684 -25.740  0.00  0.00    +0.099 C 
ENDBRANCH  27  30
ENDBRANCH   7  26
TORSDOF 4
ENDMDL
MODEL 6
REMARK VINA RESULT:      -9.9      5.343     13.717
REMARK  Name = 6914568
REMARK  4 active torsions:
REMARK  status: ('A' for Active; 'I' for Inactive)
REMARK    1  A    between atoms: C_3  and  C_14
REMARK    2  A    between atoms: C_7  and  N_26
REMARK    3  A    between atoms: C_11  and  N_17
REMARK    4  A    between atoms: C_27  and  C_30
REMARK                            x       y       z     vdW  Elec       q    Type
REMARK                         _______ _______ _______ _____ _____    ______ ____
ROOT
ATOM      1  N   UNL     1      31.542 -11.268 -19.726  0.00  0.00    -0.296 N 
ATOM      2  N   UNL     1      31.642  -8.926 -20.284  0.00  0.00    -0.229 NA
ATOM      3  C   UNL     1      32.415  -8.509 -22.562  0.00  0.00    +0.019 C 
ATOM      4  C   UNL     1      32.236 -10.769 -21.789  0.00  0.00    +0.046 C 
ATOM      5  C   UNL     1      32.557  -9.871 -22.820  0.00  0.00    +0.006 C 
ATOM      6  C   UNL     1      31.798 -10.230 -20.584  0.00  0.00    +0.133 C 
ATOM      7  C   UNL     1      32.239 -12.180 -21.633  0.00  0.00    +0.068 C 
ATOM      8  C   UNL     1      31.965  -8.108 -21.313  0.00  0.00    +0.100 C 
ATOM      9  C   UNL     1      31.807 -12.458 -20.353  0.00  0.00    +0.078 C 
ATOM     10  H   UNL     1      31.218 -11.173 -18.801  0.00  0.00    +0.154 HD
ENDROOT
BRANCH   3  14
ATOM     11  C   UNL     1      33.342  -5.633 -25.570  0.00  0.00    +0.048 C 
ATOM     12  C   UNL     1      32.050  -5.709 -25.014  0.00  0.00    +0.015 C 
ATOM     13  C   UNL     1      34.318  -6.533 -25.103  0.00  0.00    +0.015 C 
ATOM     14  C   UNL     1      32.729  -7.533 -23.582  0.00  0.00    +0.002 C 
ATOM     15  C   UNL     1      31.747  -6.650 -24.030  0.00  0.00    +0.001 C 
ATOM     16  C   UNL     1      34.015  -7.474 -24.119  0.00  0.00    +0.001 C 
BRANCH  11  17
ATOM     17  N   UNL     1      33.645  -4.689 -26.558  0.00  0.00    -0.312 N 
ATOM     18  N   UNL     1      34.373  -2.619 -28.387  0.00  0.00    +0.388 N 
ATOM     19  C   UNL     1      34.963  -4.706 -27.201  0.00  0.00    +0.068 C 
ATOM     20  C   UNL     1      32.993  -3.375 -26.481  0.00  0.00    +0.068 C 
ATOM     21  C   UNL     1      34.916  -3.974 -28.544  0.00  0.00    -0.056 C 
ATOM     22  C   UNL     1      33.009  -2.687 -27.848  0.00  0.00    -0.056 C 
ATOM     23  C   UNL     1      34.383  -1.912 -29.667  0.00  0.00    -0.101 C 
ATOM     24  H   UNL     1      34.961  -2.102 -27.733  0.00  0.00    -0.080 HD
ENDBRANCH  11  17
ENDBRANCH   3  14
BRANCH   7  26
ATOM     25  O   UNL     1      34.349 -14.283 -21.495  0.00  0.00    -0.270 OA
ATOM     26  N   UNL     1      32.599 -13.127 -22.564  0.00  0.00    -0.279 N 
ATOM     27  C   UNL     1      33.604 -14.100 -22.453  0.00  0.00    +0.251 C 
ATOM     28  H   UNL     1      32.093 -13.121 -23.407  0.00  0.00    +0.155 HD
BRANCH  27  30
ATOM     29  N   UNL     1      34.516 -17.099 -24.485  0.00  0.00    -0.242 NA
ATOM     30  C   UNL     1      33.745 -15.009 -23.620  0.00  0.00    +0.073 C 
ATOM     31  C   UNL     1      33.262 -14.627 -24.847  0.00  0.00    +0.008 C 
ATOM     32  C   UNL     1      34.355 -16.224 -23.466  0.00  0.00    +0.103 C 
ATOM     33  C   UNL     1      33.408 -15.499 -25.920  0.00  0.00    +0.021 C 
ATOM     34  C   UNL     1      34.036 -16.711 -25.688  0.00  0.00    +0.099 C 
ENDBRANCH  27  30
ENDBRANCH   7  26
TORSDOF 4
ENDMDL
MODEL 7
REMARK VINA RESULT:      -9.4      4.835      9.088
REMARK  Name = 6914568
REMARK  4 active torsions:
REMARK  status: ('A' for Active; 'I' for Inactive)
REMARK    1  A    between atoms: C_3  and  C_14
REMARK    2  A    between atoms: C_7  and  N_26
REMARK    3  A    between atoms: C_11  and  N_17
REMARK    4  A    between atoms: C_27  and  C_30
REMARK                            x       y       z     vdW  Elec       q    Type
REMARK                         _______ _______ _______ _____ _____    ______ ____
ROOT
ATOM      1  N   UNL     1      31.537  -6.740 -20.779  0.00  0.00    -0.296 N 
ATOM      2  N   UNL     1      31.509  -9.097 -20.279  0.00  0.00    -0.229 NA
ATOM      3  C   UNL     1      32.486 -10.469 -22.046  0.00  0.00    +0.019 C 
ATOM      4  C   UNL     1      32.407  -8.092 -22.327  0.00  0.00    +0.046 C 
ATOM      5  C   UNL     1      32.765  -9.354 -22.832  0.00  0.00    +0.006 C 
ATOM      6  C   UNL     1      31.799  -8.052 -21.077  0.00  0.00    +0.133 C 
ATOM      7  C   UNL     1      32.505  -6.751 -22.782  0.00  0.00    +0.068 C 
ATOM      8  C   UNL     1      31.875 -10.285 -20.813  0.00  0.00    +0.100 C 
ATOM      9  C   UNL     1      31.961  -5.941 -21.808  0.00  0.00    +0.078 C 
ATOM     10  H   UNL     1      31.108  -6.421 -19.951  0.00  0.00    +0.154 HD
ENDROOT
BRANCH   3  14
ATOM     11  C   UNL     1      33.499 -14.381 -23.407  0.00  0.00    +0.048 C 
ATOM     12  C   UNL     1      32.707 -14.196 -22.257  0.00  0.00    +0.015 C 
ATOM     13  C   UNL     1      33.946 -13.236 -24.094  0.00  0.00    +0.015 C 
ATOM     14  C   UNL     1      32.829 -11.796 -22.508  0.00  0.00    +0.002 C 
ATOM     15  C   UNL     1      32.375 -12.917 -21.812  0.00  0.00    +0.001 C 
ATOM     16  C   UNL     1      33.614 -11.957 -23.650  0.00  0.00    +0.001 C 
BRANCH  11  17
ATOM     17  N   UNL     1      33.832 -15.666 -23.852  0.00  0.00    -0.312 N 
ATOM     18  N   UNL     1      34.732 -18.184 -24.855  0.00  0.00    +0.388 N 
ATOM     19  C   UNL     1      34.688 -16.523 -23.025  0.00  0.00    +0.068 C 
ATOM     20  C   UNL     1      33.915 -15.895 -25.300  0.00  0.00    +0.068 C 
ATOM     21  C   UNL     1      34.515 -17.992 -23.416  0.00  0.00    -0.056 C 
ATOM     22  C   UNL     1      33.765 -17.385 -25.617  0.00  0.00    -0.056 C 
ATOM     23  C   UNL     1      34.617 -19.599 -25.207  0.00  0.00    -0.101 C 
ATOM     24  H   UNL     1      35.675 -17.874 -25.090  0.00  0.00    -0.080 HD
ENDBRANCH  11  17
ENDBRANCH   3  14
BRANCH   7  26
ATOM     25  O   UNL     1      31.236  -5.158 -24.961  0.00  0.00    -0.270 OA
ATOM     26  N   UNL     1      33.037  -6.304 -23.970  0.00  0.00    -0.279 N 
ATOM     27  C   UNL     1      32.397  -5.555 -24.968  0.00  0.00    +0.251 C 
ATOM     28  H   UNL     1      33.977  -6.538 -24.139  0.00  0.00    +0.155 HD
BRANCH  27  30
ATOM     29  N   UNL     1      33.421  -4.098 -28.252  0.00  0.00    -0.242 NA
ATOM     30  C   UNL     1      33.242  -5.192 -26.136  0.00  0.00    +0.073 C 
ATOM     31  C   UNL     1      34.555  -5.591 -26.179  0.00  0.00    +0.008 C 
ATOM     32  C   UNL     1      32.708  -4.461 -27.162  0.00  0.00    +0.103 C 
ATOM     33  C   UNL     1      35.321  -5.236 -27.285  0.00  0.00    +0.021 C 
ATOM     34  C   UNL     1      34.712  -4.497 -28.284  0.00  0.00    +0.099 C 
ENDBRANCH  27  30
ENDBRANCH   7  26
TORSDOF 4
ENDMDL
MODEL 8
REMARK VINA RESULT:      -9.4      3.478     10.050
REMARK  Name = 6914568
REMARK  4 active torsions:
REMARK  status: ('A' for Active; 'I' for Inactive)
REMARK    1  A    between atoms: C_3  and  C_14
REMARK    2  A    between atoms: C_7  and  N_26
REMARK    3  A    between atoms: C_11  and  N_17
REMARK    4  A    between atoms: C_27  and  C_30
REMARK                            x       y       z     vdW  Elec       q    Type
REMARK                         _______ _______ _______ _____ _____    ______ ____
ROOT
ATOM      1  N   UNL     1      35.612 -22.408 -20.318  0.00  0.00    -0.296 N 
ATOM      2  N   UNL     1      36.078 -20.325 -21.435  0.00  0.00    -0.229 NA
ATOM      3  C   UNL     1      34.409 -18.600 -20.995  0.00  0.00    +0.019 C 
ATOM      4  C   UNL     1      34.148 -20.756 -19.986  0.00  0.00    +0.046 C 
ATOM      5  C   UNL     1      33.670 -19.448 -20.175  0.00  0.00    +0.006 C 
ATOM      6  C   UNL     1      35.328 -21.105 -20.635  0.00  0.00    +0.133 C 
ATOM      7  C   UNL     1      33.721 -21.899 -19.260  0.00  0.00    +0.068 C 
ATOM      8  C   UNL     1      35.572 -19.079 -21.581  0.00  0.00    +0.100 C 
ATOM      9  C   UNL     1      34.642 -22.900 -19.484  0.00  0.00    +0.078 C 
ATOM     10  H   UNL     1      36.393 -22.914 -20.641  0.00  0.00    +0.154 HD
ENDROOT
BRANCH   3  14
ATOM     11  C   UNL     1      33.117 -14.595 -21.686  0.00  0.00    +0.048 C 
ATOM     12  C   UNL     1      34.310 -15.081 -22.257  0.00  0.00    +0.015 C 
ATOM     13  C   UNL     1      32.363 -15.472 -20.882  0.00  0.00    +0.015 C 
ATOM     14  C   UNL     1      33.970 -17.241 -21.231  0.00  0.00    +0.002 C 
ATOM     15  C   UNL     1      34.732 -16.390 -22.031  0.00  0.00    +0.001 C 
ATOM     16  C   UNL     1      32.785 -16.781 -20.657  0.00  0.00    +0.001 C 
BRANCH  11  17
ATOM     17  N   UNL     1      32.694 -13.280 -21.913  0.00  0.00    -0.312 N 
ATOM     18  N   UNL     1      31.642 -10.696 -22.522  0.00  0.00    +0.388 N 
ATOM     19  C   UNL     1      31.632 -12.705 -21.081  0.00  0.00    +0.068 C 
ATOM     20  C   UNL     1      32.790 -12.750 -23.279  0.00  0.00    +0.068 C 
ATOM     21  C   UNL     1      31.675 -11.176 -21.136  0.00  0.00    -0.056 C 
ATOM     22  C   UNL     1      32.797 -11.219 -23.261  0.00  0.00    -0.056 C 
ATOM     23  C   UNL     1      31.630  -9.234 -22.559  0.00  0.00    -0.101 C 
ATOM     24  H   UNL     1      30.787 -11.032 -22.967  0.00  0.00    -0.080 HD
ENDBRANCH  11  17
ENDBRANCH   3  14
BRANCH   7  26
ATOM     25  O   UNL     1      33.300 -23.513 -16.788  0.00  0.00    -0.270 OA
ATOM     26  N   UNL     1      32.601 -22.022 -18.470  0.00  0.00    -0.279 N 
ATOM     27  C   UNL     1      32.451 -22.798 -17.311  0.00  0.00    +0.251 C 
ATOM     28  H   UNL     1      31.813 -21.505 -18.751  0.00  0.00    +0.155 HD
BRANCH  27  30
ATOM     29  N   UNL     1      28.767 -22.372 -16.862  0.00  0.00    -0.242 NA
ATOM     30  C   UNL     1      31.123 -22.708 -16.650  0.00  0.00    +0.073 C 
ATOM     31  C   UNL     1      31.025 -22.866 -15.290  0.00  0.00    +0.008 C 
ATOM     32  C   UNL     1      30.004 -22.467 -17.400  0.00  0.00    +0.103 C 
ATOM     33  C   UNL     1      29.769 -22.775 -14.699  0.00  0.00    +0.021 C 
ATOM     34  C   UNL     1      28.682 -22.529 -15.522  0.00  0.00    +0.099 C 
ENDBRANCH  27  30
ENDBRANCH   7  26
TORSDOF 4
ENDMDL
MODEL 9
REMARK VINA RESULT:      -8.7      5.669     10.425
REMARK  Name = 6914568
REMARK  4 active torsions:
REMARK  status: ('A' for Active; 'I' for Inactive)
REMARK    1  A    between atoms: C_3  and  C_14
REMARK    2  A    between atoms: C_7  and  N_26
REMARK    3  A    between atoms: C_11  and  N_17
REMARK    4  A    between atoms: C_27  and  C_30
REMARK                            x       y       z     vdW  Elec       q    Type
REMARK                         _______ _______ _______ _____ _____    ______ ____
ROOT
ATOM      1  N   UNL     1      30.979  -4.921 -23.020  0.00  0.00    -0.296 N 
ATOM      2  N   UNL     1      30.829  -7.126 -22.060  0.00  0.00    -0.229 NA
ATOM      3  C   UNL     1      32.157  -8.790 -23.252  0.00  0.00    +0.019 C 
ATOM      4  C   UNL     1      32.157  -6.525 -24.032  0.00  0.00    +0.046 C 
ATOM      5  C   UNL     1      32.608  -7.848 -24.174  0.00  0.00    +0.006 C 
ATOM      6  C   UNL     1      31.292  -6.255 -22.976  0.00  0.00    +0.133 C 
ATOM      7  C   UNL     1      32.359  -5.302 -24.723  0.00  0.00    +0.068 C 
ATOM      8  C   UNL     1      31.295  -8.382 -22.245  0.00  0.00    +0.100 C 
ATOM      9  C   UNL     1      31.622  -4.333 -24.078  0.00  0.00    +0.078 C 
ATOM     10  H   UNL     1      30.384  -4.456 -22.388  0.00  0.00    +0.154 HD
ENDROOT
BRANCH   3  14
ATOM     11  C   UNL     1      33.418 -12.855 -23.523  0.00  0.00    +0.048 C 
ATOM     12  C   UNL     1      32.571 -12.426 -22.482  0.00  0.00    +0.015 C 
ATOM     13  C   UNL     1      33.836 -11.901 -24.472  0.00  0.00    +0.015 C 
ATOM     14  C   UNL     1      32.584 -10.169 -23.344  0.00  0.00    +0.002 C 
ATOM     15  C   UNL     1      32.158 -11.097 -22.394  0.00  0.00    +0.001 C 
ATOM     16  C   UNL     1      33.423 -10.572 -24.384  0.00  0.00    +0.001 C 
BRANCH  11  17
ATOM     17  N   UNL     1      33.832 -14.188 -23.611  0.00  0.00    -0.312 N 
ATOM     18  N   UNL     1      34.447 -16.977 -23.689  0.00  0.00    +0.388 N 
ATOM     19  C   UNL     1      33.459 -14.991 -24.780  0.00  0.00    +0.068 C 
ATOM     20  C   UNL     1      34.019 -14.937 -22.361  0.00  0.00    +0.068 C 
ATOM     21  C   UNL     1      34.395 -16.192 -24.929  0.00  0.00    -0.056 C 
ATOM     22  C   UNL     1      34.938 -16.140 -22.588  0.00  0.00    -0.056 C 
ATOM     23  C   UNL     1      35.301 -18.151 -23.860  0.00  0.00    -0.101 C 
ATOM     24  H   UNL     1      33.505 -17.299 -23.463  0.00  0.00    -0.080 HD
ENDBRANCH  11  17
ENDBRANCH   3  14
BRANCH   7  26
ATOM     25  O   UNL     1      32.762  -2.813 -26.317  0.00  0.00    -0.270 OA
ATOM     26  N   UNL     1      33.140  -5.086 -25.836  0.00  0.00    -0.279 N 
ATOM     27  C   UNL     1      33.296  -3.892 -26.555  0.00  0.00    +0.251 C 
ATOM     28  H   UNL     1      33.647  -5.862 -26.167  0.00  0.00    +0.155 HD
BRANCH  27  30
ATOM     29  N   UNL     1      36.460  -3.674 -28.529  0.00  0.00    -0.242 NA
ATOM     30  C   UNL     1      34.236  -3.957 -27.705  0.00  0.00    +0.073 C 
ATOM     31  C   UNL     1      33.777  -4.339 -28.941  0.00  0.00    +0.008 C 
ATOM     32  C   UNL     1      35.554  -3.635 -27.526  0.00  0.00    +0.103 C 
ATOM     33  C   UNL     1      34.679  -4.391 -29.998  0.00  0.00    +0.021 C 
ATOM     34  C   UNL     1      35.997  -4.051 -29.742  0.00  0.00    +0.099 C 
ENDBRANCH  27  30
ENDBRANCH   7  26
TORSDOF 4
ENDMDL
