MODEL 1
REMARK VINA RESULT:      -8.4      0.000      0.000
REMARK  Name = 5742673
REMARK  9 active torsions:
REMARK  status: ('A' for Active; 'I' for Inactive)
REMARK    1  A    between atoms: CA_5  and  N_11
REMARK    2  A    between atoms: CA_7  and  C_27
REMARK    3  A    between atoms: C_8  and  C_30
REMARK    4  A    between atoms: C_12  and  C_15
REMARK    5  A    between atoms: N_14  and  O_24
REMARK    6  A    between atoms: C_15  and  C_19
REMARK    7  A    between atoms: C_27  and  O_28
REMARK    8  A    between atoms: C_30  and  O_31
REMARK    9  A    between atoms: O_31  and  C_33
REMARK                            x       y       z     vdW  Elec       q    Type
REMARK                         _______ _______ _______ _____ _____    ______ ____
ROOT
ATOM      1  S   UNL     1      33.602 -12.154 -24.267  0.00  0.00    -0.114 S 
ATOM      2  O   UNL     1      31.980 -12.420 -19.917  0.00  0.00    -0.273 OA
ATOM      3  N   UNL     1      32.686 -13.228 -22.017  0.00  0.00    -0.242 N 
ATOM      4  C   UNL     1      32.192 -12.574 -23.215  0.00  0.00    +0.155 C 
ATOM      5  CA  UNL     1      31.679 -11.458 -22.278  0.00  0.00    +0.179 C 
ATOM      6  C   UNL     1      32.079 -12.418 -21.122  0.00  0.00    +0.251 C 
ATOM      7  CA  UNL     1      33.502 -14.312 -22.032  0.00  0.00    +0.127 C 
ATOM      8  C   UNL     1      34.155 -14.692 -23.157  0.00  0.00    +0.030 C 
ATOM      9  C   UNL     1      34.117 -13.894 -24.459  0.00  0.00    +0.086 C 
ENDROOT
BRANCH   5  11
ATOM     10  O   UNL     1      30.759  -8.837 -23.266  0.00  0.00    -0.268 OA
ATOM     11  N   UNL     1      32.394 -10.182 -22.251  0.00  0.00    -0.291 N 
ATOM     12  C   UNL     1      31.852  -9.011 -22.749  0.00  0.00    +0.269 C 
ATOM     13  H   UNL     1      33.298 -10.155 -21.861  0.00  0.00    +0.150 HD
BRANCH  12  15
ATOM     14  N   UNL     1      33.253  -7.505 -21.449  0.00  0.00    -0.076 NA
ATOM     15  C   UNL     1      32.776  -7.829 -22.613  0.00  0.00    +0.198 C 
BRANCH  15  19
ATOM     16  S   UNL     1      34.417  -6.009 -25.727  0.00  0.00    -0.060 S 
ATOM     17  N   UNL     1      32.277  -6.075 -24.280  0.00  0.00    -0.383 NA
ATOM     18  N   UNL     1      32.249  -4.503 -26.045  0.00  0.00    -0.328 N 
ATOM     19  C   UNL     1      33.152  -7.016 -23.774  0.00  0.00    +0.148 C 
ATOM     20  C   UNL     1      34.363  -7.125 -24.427  0.00  0.00    +0.127 C 
ATOM     21  C   UNL     1      32.838  -5.483 -25.311  0.00  0.00    +0.204 C 
ATOM     22  H   UNL     1      32.728  -4.102 -26.807  0.00  0.00    +0.145 HD
ATOM     23  H   UNL     1      31.343  -4.193 -25.816  0.00  0.00    +0.145 HD
ENDBRANCH  15  19
BRANCH  14  24
ATOM     24  O   UNL     1      32.801  -8.367 -20.442  0.00  0.00    -0.373 OA
ATOM     25  C   UNL     1      32.013  -7.612 -19.534  0.00  0.00    +0.288 C 
ENDBRANCH  14  24
ENDBRANCH  12  15
ENDBRANCH   5  11
BRANCH   7  27
ATOM     26  OXT UNL     1      34.759 -15.098 -20.173  0.00  0.00    -0.244 OA
ATOM     27  C   UNL     1      33.696 -15.019 -20.756  0.00  0.00    +0.352 C 
BRANCH  27  28
ATOM     28  O   UNL     1      32.525 -15.551 -20.357  0.00  0.00    -0.476 OA
ATOM     29  H   UNL     1      31.725 -15.082 -20.498  0.00  0.00    +0.295 HD
ENDBRANCH  27  28
ENDBRANCH   7  27
BRANCH   8  30
ATOM     30  C   UNL     1      35.013 -15.929 -23.274  0.00  0.00    +0.233 C 
BRANCH  30  31
ATOM     31  O   UNL     1      34.207 -17.021 -23.665  0.00  0.00    -0.444 OA
BRANCH  31  33
ATOM     32  O   UNL     1      34.759 -17.049 -25.909  0.00  0.00    -0.250 OA
ATOM     33  C   UNL     1      34.541 -17.623 -24.851  0.00  0.00    +0.318 C 
ATOM     34  C   UNL     1      34.605 -19.111 -24.676  0.00  0.00    +0.121 C 
ENDBRANCH  31  33
ENDBRANCH  30  31
ENDBRANCH   8  30
TORSDOF 9
ENDMDL
MODEL 2
REMARK VINA RESULT:      -8.2      6.365     11.116
REMARK  Name = 5742673
REMARK  9 active torsions:
REMARK  status: ('A' for Active; 'I' for Inactive)
REMARK    1  A    between atoms: CA_5  and  N_11
REMARK    2  A    between atoms: CA_7  and  C_27
REMARK    3  A    between atoms: C_8  and  C_30
REMARK    4  A    between atoms: C_12  and  C_15
REMARK    5  A    between atoms: N_14  and  O_24
REMARK    6  A    between atoms: C_15  and  C_19
REMARK    7  A    between atoms: C_27  and  O_28
REMARK    8  A    between atoms: C_30  and  O_31
REMARK    9  A    between atoms: O_31  and  C_33
REMARK                            x       y       z     vdW  Elec       q    Type
REMARK                         _______ _______ _______ _____ _____    ______ ____
ROOT
ATOM      1  S   UNL     1      34.894 -19.413 -23.369  0.00  0.00    -0.114 S 
ATOM      2  O   UNL     1      35.120 -15.991 -20.229  0.00  0.00    -0.273 OA
ATOM      3  N   UNL     1      35.108 -16.958 -22.380  0.00  0.00    -0.242 N 
ATOM      4  C   UNL     1      35.926 -18.133 -22.618  0.00  0.00    +0.155 C 
ATOM      5  CA  UNL     1      36.100 -18.204 -21.085  0.00  0.00    +0.179 C 
ATOM      6  C   UNL     1      35.392 -16.819 -21.067  0.00  0.00    +0.251 C 
ATOM      7  CA  UNL     1      34.364 -16.351 -23.340  0.00  0.00    +0.127 C 
ATOM      8  C   UNL     1      34.095 -16.960 -24.519  0.00  0.00    +0.030 C 
ATOM      9  C   UNL     1      34.506 -18.397 -24.834  0.00  0.00    +0.086 C 
ENDROOT
BRANCH   5  11
ATOM     10  O   UNL     1      37.022 -20.913 -20.379  0.00  0.00    -0.268 OA
ATOM     11  N   UNL     1      35.378 -19.238 -20.344  0.00  0.00    -0.291 N 
ATOM     12  C   UNL     1      35.922 -20.481 -20.073  0.00  0.00    +0.269 C 
ATOM     13  H   UNL     1      34.468 -19.042 -20.025  0.00  0.00    +0.150 HD
BRANCH  12  15
ATOM     14  N   UNL     1      33.777 -21.577 -19.723  0.00  0.00    -0.076 NA
ATOM     15  C   UNL     1      34.989 -21.377 -19.301  0.00  0.00    +0.198 C 
BRANCH  15  19
ATOM     16  S   UNL     1      36.763 -22.785 -16.048  0.00  0.00    -0.060 S 
ATOM     17  N   UNL     1      34.564 -22.899 -17.401  0.00  0.00    -0.383 NA
ATOM     18  N   UNL     1      34.614 -24.230 -15.449  0.00  0.00    -0.328 N 
ATOM     19  C   UNL     1      35.415 -22.034 -18.060  0.00  0.00    +0.148 C 
ATOM     20  C   UNL     1      36.652 -21.846 -17.479  0.00  0.00    +0.127 C 
ATOM     21  C   UNL     1      35.169 -23.355 -16.327  0.00  0.00    +0.204 C 
ATOM     22  H   UNL     1      35.125 -24.530 -14.662  0.00  0.00    +0.145 HD
ATOM     23  H   UNL     1      33.700 -24.564 -15.598  0.00  0.00    +0.145 HD
ENDBRANCH  15  19
BRANCH  14  24
ATOM     24  O   UNL     1      33.519 -20.881 -20.911  0.00  0.00    -0.373 OA
ATOM     25  C   UNL     1      32.433 -19.997 -20.677  0.00  0.00    +0.288 C 
ENDBRANCH  14  24
ENDBRANCH  12  15
ENDBRANCH   5  11
BRANCH   7  27
ATOM     26  OXT UNL     1      32.718 -14.848 -22.512  0.00  0.00    -0.244 OA
ATOM     27  C   UNL     1      33.809 -15.027 -23.015  0.00  0.00    +0.352 C 
BRANCH  27  28
ATOM     28  O   UNL     1      34.694 -14.074 -23.363  0.00  0.00    -0.476 OA
ATOM     29  H   UNL     1      35.606 -14.189 -23.177  0.00  0.00    +0.295 HD
ENDBRANCH  27  28
ENDBRANCH   7  27
BRANCH   8  30
ATOM     30  C   UNL     1      33.346 -16.321 -25.663  0.00  0.00    +0.233 C 
BRANCH  30  31
ATOM     31  O   UNL     1      34.191 -15.396 -26.316  0.00  0.00    -0.444 OA
BRANCH  31  33
ATOM     32  O   UNL     1      33.949 -13.676 -27.840  0.00  0.00    -0.250 OA
ATOM     33  C   UNL     1      33.579 -14.290 -26.848  0.00  0.00    +0.318 C 
ATOM     34  C   UNL     1      32.372 -13.925 -26.038  0.00  0.00    +0.121 C 
ENDBRANCH  31  33
ENDBRANCH  30  31
ENDBRANCH   8  30
TORSDOF 9
ENDMDL
MODEL 3
REMARK VINA RESULT:      -8.2     11.193     15.705
REMARK  Name = 5742673
REMARK  9 active torsions:
REMARK  status: ('A' for Active; 'I' for Inactive)
REMARK    1  A    between atoms: CA_5  and  N_11
REMARK    2  A    between atoms: CA_7  and  C_27
REMARK    3  A    between atoms: C_8  and  C_30
REMARK    4  A    between atoms: C_12  and  C_15
REMARK    5  A    between atoms: N_14  and  O_24
REMARK    6  A    between atoms: C_15  and  C_19
REMARK    7  A    between atoms: C_27  and  O_28
REMARK    8  A    between atoms: C_30  and  O_31
REMARK    9  A    between atoms: O_31  and  C_33
REMARK                            x       y       z     vdW  Elec       q    Type
REMARK                         _______ _______ _______ _____ _____    ______ ____
ROOT
ATOM      1  S   UNL     1      37.132 -22.037 -16.288  0.00  0.00    -0.114 S 
ATOM      2  O   UNL     1      33.007 -24.181 -16.383  0.00  0.00    -0.273 OA
ATOM      3  N   UNL     1      34.641 -22.601 -17.014  0.00  0.00    -0.242 N 
ATOM      4  C   UNL     1      35.359 -21.890 -15.972  0.00  0.00    +0.155 C 
ATOM      5  CA  UNL     1      34.750 -22.913 -14.988  0.00  0.00    +0.179 C 
ATOM      6  C   UNL     1      33.899 -23.385 -16.202  0.00  0.00    +0.251 C 
ATOM      7  CA  UNL     1      34.824 -22.380 -18.341  0.00  0.00    +0.127 C 
ATOM      8  C   UNL     1      35.894 -21.690 -18.803  0.00  0.00    +0.030 C 
ATOM      9  C   UNL     1      37.026 -21.196 -17.905  0.00  0.00    +0.086 C 
ENDROOT
BRANCH   5  11
ATOM     10  O   UNL     1      36.607 -22.725 -12.706  0.00  0.00    -0.268 OA
ATOM     11  N   UNL     1      35.614 -23.958 -14.439  0.00  0.00    -0.291 N 
ATOM     12  C   UNL     1      36.449 -23.746 -13.356  0.00  0.00    +0.269 C 
ATOM     13  H   UNL     1      35.602 -24.849 -14.858  0.00  0.00    +0.150 HD
BRANCH  12  15
ATOM     14  N   UNL     1      36.830 -25.743 -12.019  0.00  0.00    -0.076 NA
ATOM     15  C   UNL     1      37.243 -24.968 -12.976  0.00  0.00    +0.198 C 
BRANCH  15  19
ATOM     16  S   UNL     1      40.400 -25.409 -15.331  0.00  0.00    -0.060 S 
ATOM     17  N   UNL     1      39.361 -26.234 -13.113  0.00  0.00    -0.383 NA
ATOM     18  N   UNL     1      41.446 -27.198 -13.666  0.00  0.00    -0.328 N 
ATOM     19  C   UNL     1      38.494 -25.309 -13.662  0.00  0.00    +0.148 C 
ATOM     20  C   UNL     1      38.886 -24.754 -14.863  0.00  0.00    +0.127 C 
ATOM     21  C   UNL     1      40.400 -26.366 -13.907  0.00  0.00    +0.204 C 
ATOM     22  H   UNL     1      42.194 -27.247 -14.305  0.00  0.00    +0.145 HD
ATOM     23  H   UNL     1      41.458 -27.752 -12.852  0.00  0.00    +0.145 HD
ENDBRANCH  15  19
BRANCH  14  24
ATOM     24  O   UNL     1      35.630 -25.285 -11.459  0.00  0.00    -0.373 OA
ATOM     25  C   UNL     1      35.937 -24.610 -10.249  0.00  0.00    +0.288 C 
ENDBRANCH  14  24
ENDBRANCH  12  15
ENDBRANCH   5  11
BRANCH   7  27
ATOM     26  OXT UNL     1      33.966 -24.068 -19.779  0.00  0.00    -0.244 OA
ATOM     27  C   UNL     1      33.841 -22.978 -19.258  0.00  0.00    +0.352 C 
BRANCH  27  28
ATOM     28  O   UNL     1      32.806 -22.130 -19.419  0.00  0.00    -0.476 OA
ATOM     29  H   UNL     1      31.936 -22.408 -19.208  0.00  0.00    +0.295 HD
ENDBRANCH  27  28
ENDBRANCH   7  27
BRANCH   8  30
ATOM     30  C   UNL     1      36.124 -21.334 -20.252  0.00  0.00    +0.233 C 
BRANCH  30  31
ATOM     31  O   UNL     1      35.877 -19.956 -20.439  0.00  0.00    -0.444 OA
BRANCH  31  33
ATOM     32  O   UNL     1      33.591 -19.698 -20.648  0.00  0.00    -0.250 OA
ATOM     33  C   UNL     1      34.723 -19.635 -21.107  0.00  0.00    +0.318 C 
ATOM     34  C   UNL     1      35.039 -19.185 -22.501  0.00  0.00    +0.121 C 
ENDBRANCH  31  33
ENDBRANCH  30  31
ENDBRANCH   8  30
TORSDOF 9
ENDMDL
MODEL 4
REMARK VINA RESULT:      -8.0      2.229      2.753
REMARK  Name = 5742673
REMARK  9 active torsions:
REMARK  status: ('A' for Active; 'I' for Inactive)
REMARK    1  A    between atoms: CA_5  and  N_11
REMARK    2  A    between atoms: CA_7  and  C_27
REMARK    3  A    between atoms: C_8  and  C_30
REMARK    4  A    between atoms: C_12  and  C_15
REMARK    5  A    between atoms: N_14  and  O_24
REMARK    6  A    between atoms: C_15  and  C_19
REMARK    7  A    between atoms: C_27  and  O_28
REMARK    8  A    between atoms: C_30  and  O_31
REMARK    9  A    between atoms: O_31  and  C_33
REMARK                            x       y       z     vdW  Elec       q    Type
REMARK                         _______ _______ _______ _____ _____    ______ ____
ROOT
ATOM      1  S   UNL     1      33.588 -13.381 -24.541  0.00  0.00    -0.114 S 
ATOM      2  O   UNL     1      32.439 -13.652 -20.044  0.00  0.00    -0.273 OA
ATOM      3  N   UNL     1      32.968 -14.460 -22.195  0.00  0.00    -0.242 N 
ATOM      4  C   UNL     1      32.319 -13.855 -23.343  0.00  0.00    +0.155 C 
ATOM      5  CA  UNL     1      31.846 -12.751 -22.373  0.00  0.00    +0.179 C 
ATOM      6  C   UNL     1      32.414 -13.667 -21.252  0.00  0.00    +0.251 C 
ATOM      7  CA  UNL     1      33.836 -15.500 -22.281  0.00  0.00    +0.127 C 
ATOM      8  C   UNL     1      34.389 -15.865 -23.462  0.00  0.00    +0.030 C 
ATOM      9  C   UNL     1      34.175 -15.095 -24.763  0.00  0.00    +0.086 C 
ENDROOT
BRANCH   5  11
ATOM     10  O   UNL     1      30.597 -10.138 -22.922  0.00  0.00    -0.268 OA
ATOM     11  N   UNL     1      32.489 -11.438 -22.436  0.00  0.00    -0.291 N 
ATOM     12  C   UNL     1      31.790 -10.275 -22.705  0.00  0.00    +0.269 C 
ATOM     13  H   UNL     1      33.460 -11.380 -22.281  0.00  0.00    +0.150 HD
BRANCH  12  15
ATOM     14  N   UNL     1      33.696  -8.995 -23.512  0.00  0.00    -0.076 NA
ATOM     15  C   UNL     1      32.667  -9.050 -22.721  0.00  0.00    +0.198 C 
BRANCH  15  19
ATOM     16  S   UNL     1      32.374  -6.286 -19.896  0.00  0.00    -0.060 S 
ATOM     17  N   UNL     1      31.546  -6.895 -22.267  0.00  0.00    -0.383 NA
ATOM     18  N   UNL     1      30.712  -4.860 -21.403  0.00  0.00    -0.328 N 
ATOM     19  C   UNL     1      32.392  -7.904 -21.848  0.00  0.00    +0.148 C 
ATOM     20  C   UNL     1      32.937  -7.749 -20.590  0.00  0.00    +0.127 C 
ATOM     21  C   UNL     1      31.462  -5.990 -21.318  0.00  0.00    +0.204 C 
ATOM     22  H   UNL     1      30.695  -4.222 -20.652  0.00  0.00    +0.145 HD
ATOM     23  H   UNL     1      30.185  -4.679 -22.214  0.00  0.00    +0.145 HD
ENDBRANCH  15  19
BRANCH  14  24
ATOM     24  O   UNL     1      33.830 -10.162 -24.275  0.00  0.00    -0.373 OA
ATOM     25  C   UNL     1      35.070 -10.101 -24.961  0.00  0.00    +0.288 C 
ENDBRANCH  14  24
ENDBRANCH  12  15
ENDBRANCH   5  11
BRANCH   7  27
ATOM     26  OXT UNL     1      35.103 -15.817 -20.294  0.00  0.00    -0.244 OA
ATOM     27  C   UNL     1      34.198 -16.172 -21.023  0.00  0.00    +0.352 C 
BRANCH  27  28
ATOM     28  O   UNL     1      33.378 -17.222 -20.825  0.00  0.00    -0.476 OA
ATOM     29  H   UNL     1      33.069 -17.419 -19.962  0.00  0.00    +0.295 HD
ENDBRANCH  27  28
ENDBRANCH   7  27
BRANCH   8  30
ATOM     30  C   UNL     1      35.296 -17.058 -23.652  0.00  0.00    +0.233 C 
BRANCH  30  31
ATOM     31  O   UNL     1      34.685 -17.973 -24.538  0.00  0.00    -0.444 OA
BRANCH  31  33
ATOM     32  O   UNL     1      34.893 -20.220 -25.032  0.00  0.00    -0.250 OA
ATOM     33  C   UNL     1      34.829 -19.301 -24.227  0.00  0.00    +0.318 C 
ATOM     34  C   UNL     1      34.899 -19.481 -22.741  0.00  0.00    +0.121 C 
ENDBRANCH  31  33
ENDBRANCH  30  31
ENDBRANCH   8  30
TORSDOF 9
ENDMDL
MODEL 5
REMARK VINA RESULT:      -8.0      8.063     12.911
REMARK  Name = 5742673
REMARK  9 active torsions:
REMARK  status: ('A' for Active; 'I' for Inactive)
REMARK    1  A    between atoms: CA_5  and  N_11
REMARK    2  A    between atoms: CA_7  and  C_27
REMARK    3  A    between atoms: C_8  and  C_30
REMARK    4  A    between atoms: C_12  and  C_15
REMARK    5  A    between atoms: N_14  and  O_24
REMARK    6  A    between atoms: C_15  and  C_19
REMARK    7  A    between atoms: C_27  and  O_28
REMARK    8  A    between atoms: C_30  and  O_31
REMARK    9  A    between atoms: O_31  and  C_33
REMARK                            x       y       z     vdW  Elec       q    Type
REMARK                         _______ _______ _______ _____ _____    ______ ____
ROOT
ATOM      1  S   UNL     1      32.632 -20.163 -20.102  0.00  0.00    -0.114 S 
ATOM      2  O   UNL     1      36.675 -22.148 -18.947  0.00  0.00    -0.273 OA
ATOM      3  N   UNL     1      35.199 -20.834 -20.233  0.00  0.00    -0.242 N 
ATOM      4  C   UNL     1      33.892 -21.376 -20.560  0.00  0.00    +0.155 C 
ATOM      5  CA  UNL     1      34.195 -22.477 -19.521  0.00  0.00    +0.179 C 
ATOM      6  C   UNL     1      35.628 -21.873 -19.483  0.00  0.00    +0.251 C 
ATOM      7  CA  UNL     1      35.642 -19.624 -20.660  0.00  0.00    +0.127 C 
ATOM      8  C   UNL     1      34.796 -18.704 -21.181  0.00  0.00    +0.030 C 
ATOM      9  C   UNL     1      33.282 -18.893 -21.240  0.00  0.00    +0.086 C 
ENDROOT
BRANCH   5  11
ATOM     10  O   UNL     1      33.719 -24.692 -17.635  0.00  0.00    -0.268 OA
ATOM     11  N   UNL     1      33.508 -22.431 -18.230  0.00  0.00    -0.291 N 
ATOM     12  C   UNL     1      33.346 -23.548 -17.429  0.00  0.00    +0.269 C 
ATOM     13  H   UNL     1      33.145 -21.571 -17.919  0.00  0.00    +0.150 HD
BRANCH  12  15
ATOM     14  N   UNL     1      33.251 -22.851 -15.099  0.00  0.00    -0.076 NA
ATOM     15  C   UNL     1      32.604 -23.254 -16.151  0.00  0.00    +0.198 C 
BRANCH  15  19
ATOM     16  S   UNL     1      28.831 -24.183 -15.373  0.00  0.00    -0.060 S 
ATOM     17  N   UNL     1      30.311 -22.697 -16.884  0.00  0.00    -0.383 NA
ATOM     18  N   UNL     1      27.984 -22.491 -17.241  0.00  0.00    -0.328 N 
ATOM     19  C   UNL     1      31.150 -23.420 -16.058  0.00  0.00    +0.148 C 
ATOM     20  C   UNL     1      30.531 -24.278 -15.172  0.00  0.00    +0.127 C 
ATOM     21  C   UNL     1      29.066 -23.019 -16.611  0.00  0.00    +0.204 C 
ATOM     22  H   UNL     1      27.077 -22.777 -16.985  0.00  0.00    +0.145 HD
ATOM     23  H   UNL     1      28.106 -21.822 -17.953  0.00  0.00    +0.145 HD
ENDBRANCH  15  19
BRANCH  14  24
ATOM     24  O   UNL     1      34.627 -22.747 -15.342  0.00  0.00    -0.373 OA
ATOM     25  C   UNL     1      35.308 -23.506 -14.355  0.00  0.00    +0.288 C 
ENDBRANCH  14  24
ENDBRANCH  12  15
ENDBRANCH   5  11
BRANCH   7  27
ATOM     26  OXT UNL     1      37.841 -19.076 -21.377  0.00  0.00    -0.244 OA
ATOM     27  C   UNL     1      37.072 -19.334 -20.473  0.00  0.00    +0.352 C 
BRANCH  27  28
ATOM     28  O   UNL     1      37.374 -19.403 -19.162  0.00  0.00    -0.476 OA
ATOM     29  H   UNL     1      36.901 -18.880 -18.544  0.00  0.00    +0.295 HD
ENDBRANCH  27  28
ENDBRANCH   7  27
BRANCH   8  30
ATOM     30  C   UNL     1      35.223 -17.373 -21.752  0.00  0.00    +0.233 C 
BRANCH  30  31
ATOM     31  O   UNL     1      34.935 -16.351 -20.821  0.00  0.00    -0.444 OA
BRANCH  31  33
ATOM     32  O   UNL     1      34.571 -14.591 -22.273  0.00  0.00    -0.250 OA
ATOM     33  C   UNL     1      34.248 -15.267 -21.306  0.00  0.00    +0.318 C 
ATOM     34  C   UNL     1      33.024 -15.016 -20.479  0.00  0.00    +0.121 C 
ENDBRANCH  31  33
ENDBRANCH  30  31
ENDBRANCH   8  30
TORSDOF 9
ENDMDL
MODEL 6
REMARK VINA RESULT:      -7.7      9.715     13.524
REMARK  Name = 5742673
REMARK  9 active torsions:
REMARK  status: ('A' for Active; 'I' for Inactive)
REMARK    1  A    between atoms: CA_5  and  N_11
REMARK    2  A    between atoms: CA_7  and  C_27
REMARK    3  A    between atoms: C_8  and  C_30
REMARK    4  A    between atoms: C_12  and  C_15
REMARK    5  A    between atoms: N_14  and  O_24
REMARK    6  A    between atoms: C_15  and  C_19
REMARK    7  A    between atoms: C_27  and  O_28
REMARK    8  A    between atoms: C_30  and  O_31
REMARK    9  A    between atoms: O_31  and  C_33
REMARK                            x       y       z     vdW  Elec       q    Type
REMARK                         _______ _______ _______ _____ _____    ______ ____
ROOT
ATOM      1  S   UNL     1      35.586 -23.800 -16.009  0.00  0.00    -0.114 S 
ATOM      2  O   UNL     1      31.243 -22.398 -16.899  0.00  0.00    -0.273 OA
ATOM      3  N   UNL     1      32.941 -23.644 -15.836  0.00  0.00    -0.242 N 
ATOM      4  C   UNL     1      33.964 -24.265 -16.658  0.00  0.00    +0.155 C 
ATOM      5  CA  UNL     1      33.418 -23.406 -17.819  0.00  0.00    +0.179 C 
ATOM      6  C   UNL     1      32.269 -23.035 -16.838  0.00  0.00    +0.251 C 
ATOM      7  CA  UNL     1      32.877 -23.772 -14.487  0.00  0.00    +0.127 C 
ATOM      8  C   UNL     1      33.924 -24.245 -13.770  0.00  0.00    +0.030 C 
ATOM      9  C   UNL     1      35.282 -24.575 -14.385  0.00  0.00    +0.086 C 
ENDROOT
BRANCH   5  11
ATOM     10  O   UNL     1      35.029 -23.142 -20.273  0.00  0.00    -0.268 OA
ATOM     11  N   UNL     1      34.198 -22.253 -18.266  0.00  0.00    -0.291 N 
ATOM     12  C   UNL     1      34.919 -22.250 -19.447  0.00  0.00    +0.269 C 
ATOM     13  H   UNL     1      34.212 -21.445 -17.703  0.00  0.00    +0.150 HD
BRANCH  12  15
ATOM     14  N   UNL     1      36.703 -20.656 -19.000  0.00  0.00    -0.076 NA
ATOM     15  C   UNL     1      35.645 -20.953 -19.692  0.00  0.00    +0.198 C 
BRANCH  15  19
ATOM     16  S   UNL     1      33.720 -18.642 -22.273  0.00  0.00    -0.060 S 
ATOM     17  N   UNL     1      36.073 -19.161 -21.339  0.00  0.00    -0.383 NA
ATOM     18  N   UNL     1      35.997 -17.467 -22.985  0.00  0.00    -0.328 N 
ATOM     19  C   UNL     1      35.177 -19.996 -20.701  0.00  0.00    +0.148 C 
ATOM     20  C   UNL     1      33.856 -19.860 -21.075  0.00  0.00    +0.127 C 
ATOM     21  C   UNL     1      35.418 -18.404 -22.190  0.00  0.00    +0.204 C 
ATOM     22  H   UNL     1      35.444 -16.933 -23.600  0.00  0.00    +0.145 HD
ATOM     23  H   UNL     1      36.970 -17.321 -22.945  0.00  0.00    +0.145 HD
ENDBRANCH  15  19
BRANCH  14  24
ATOM     24  O   UNL     1      37.020 -21.661 -18.077  0.00  0.00    -0.373 OA
ATOM     25  C   UNL     1      37.414 -21.038 -16.864  0.00  0.00    +0.288 C 
ENDBRANCH  14  24
ENDBRANCH  12  15
ENDBRANCH   5  11
BRANCH   7  27
ATOM     26  OXT UNL     1      30.797 -24.053 -13.370  0.00  0.00    -0.244 OA
ATOM     27  C   UNL     1      31.642 -23.313 -13.831  0.00  0.00    +0.352 C 
BRANCH  27  28
ATOM     28  O   UNL     1      31.611 -21.966 -13.830  0.00  0.00    -0.476 OA
ATOM     29  H   UNL     1      31.829 -21.492 -13.051  0.00  0.00    +0.295 HD
ENDBRANCH  27  28
ENDBRANCH   7  27
BRANCH   8  30
ATOM     30  C   UNL     1      33.901 -24.493 -12.281  0.00  0.00    +0.233 C 
BRANCH  30  31
ATOM     31  O   UNL     1      35.165 -24.970 -11.867  0.00  0.00    -0.444 OA
BRANCH  31  33
ATOM     32  O   UNL     1      35.388 -24.448  -9.627  0.00  0.00    -0.250 OA
ATOM     33  C   UNL     1      35.731 -24.328 -10.795  0.00  0.00    +0.318 C 
ATOM     34  C   UNL     1      36.849 -23.441 -11.254  0.00  0.00    +0.121 C 
ENDBRANCH  31  33
ENDBRANCH  30  31
ENDBRANCH   8  30
TORSDOF 9
ENDMDL
MODEL 7
REMARK VINA RESULT:      -7.5      8.265     13.186
REMARK  Name = 5742673
REMARK  9 active torsions:
REMARK  status: ('A' for Active; 'I' for Inactive)
REMARK    1  A    between atoms: CA_5  and  N_11
REMARK    2  A    between atoms: CA_7  and  C_27
REMARK    3  A    between atoms: C_8  and  C_30
REMARK    4  A    between atoms: C_12  and  C_15
REMARK    5  A    between atoms: N_14  and  O_24
REMARK    6  A    between atoms: C_15  and  C_19
REMARK    7  A    between atoms: C_27  and  O_28
REMARK    8  A    between atoms: C_30  and  O_31
REMARK    9  A    between atoms: O_31  and  C_33
REMARK                            x       y       z     vdW  Elec       q    Type
REMARK                         _______ _______ _______ _____ _____    ______ ____
ROOT
ATOM      1  S   UNL     1      32.628 -20.437 -19.815  0.00  0.00    -0.114 S 
ATOM      2  O   UNL     1      37.038 -21.803 -19.258  0.00  0.00    -0.273 OA
ATOM      3  N   UNL     1      35.212 -20.766 -20.333  0.00  0.00    -0.242 N 
ATOM      4  C   UNL     1      33.960 -21.494 -20.431  0.00  0.00    +0.155 C 
ATOM      5  CA  UNL     1      34.569 -22.489 -19.420  0.00  0.00    +0.179 C 
ATOM      6  C   UNL     1      35.892 -21.699 -19.630  0.00  0.00    +0.251 C 
ATOM      7  CA  UNL     1      35.411 -19.532 -20.862  0.00  0.00    +0.127 C 
ATOM      8  C   UNL     1      34.375 -18.761 -21.270  0.00  0.00    +0.030 C 
ATOM      9  C   UNL     1      32.912 -19.153 -21.081  0.00  0.00    +0.086 C 
ENDROOT
BRANCH   5  11
ATOM     10  O   UNL     1      33.197 -24.637 -17.939  0.00  0.00    -0.268 OA
ATOM     11  N   UNL     1      34.089 -22.468 -18.038  0.00  0.00    -0.291 N 
ATOM     12  C   UNL     1      33.454 -23.548 -17.451  0.00  0.00    +0.269 C 
ATOM     13  H   UNL     1      34.223 -21.652 -17.505  0.00  0.00    +0.150 HD
BRANCH  12  15
ATOM     14  N   UNL     1      31.858 -22.843 -15.754  0.00  0.00    -0.076 NA
ATOM     15  C   UNL     1      33.048 -23.288 -16.024  0.00  0.00    +0.198 C 
BRANCH  15  19
ATOM     16  S   UNL     1      34.981 -24.214 -12.690  0.00  0.00    -0.060 S 
ATOM     17  N   UNL     1      35.296 -23.120 -15.010  0.00  0.00    -0.383 NA
ATOM     18  N   UNL     1      37.234 -23.185 -13.658  0.00  0.00    -0.328 N 
ATOM     19  C   UNL     1      33.977 -23.519 -14.912  0.00  0.00    +0.148 C 
ATOM     20  C   UNL     1      33.619 -24.131 -13.728  0.00  0.00    +0.127 C 
ATOM     21  C   UNL     1      35.920 -23.435 -13.897  0.00  0.00    +0.204 C 
ATOM     22  H   UNL     1      37.638 -23.449 -12.800  0.00  0.00    +0.145 HD
ATOM     23  H   UNL     1      37.782 -22.739 -14.344  0.00  0.00    +0.145 HD
ENDBRANCH  15  19
BRANCH  14  24
ATOM     24  O   UNL     1      31.093 -22.667 -16.915  0.00  0.00    -0.373 OA
ATOM     25  C   UNL     1      29.726 -22.841 -16.573  0.00  0.00    +0.288 C 
ENDBRANCH  14  24
ENDBRANCH  12  15
ENDBRANCH   5  11
BRANCH   7  27
ATOM     26  OXT UNL     1      37.364 -18.698 -21.932  0.00  0.00    -0.244 OA
ATOM     27  C   UNL     1      36.799 -19.045 -20.914  0.00  0.00    +0.352 C 
BRANCH  27  28
ATOM     28  O   UNL     1      37.321 -19.051 -19.673  0.00  0.00    -0.476 OA
ATOM     29  H   UNL     1      36.822 -19.389 -18.955  0.00  0.00    +0.295 HD
ENDBRANCH  27  28
ENDBRANCH   7  27
BRANCH   8  30
ATOM     30  C   UNL     1      34.520 -17.417 -21.941  0.00  0.00    +0.233 C 
BRANCH  30  31
ATOM     31  O   UNL     1      34.571 -16.405 -20.957  0.00  0.00    -0.444 OA
BRANCH  31  33
ATOM     32  O   UNL     1      34.510 -14.462 -22.206  0.00  0.00    -0.250 OA
ATOM     33  C   UNL     1      34.068 -15.183 -21.321  0.00  0.00    +0.318 C 
ATOM     34  C   UNL     1      32.881 -14.837 -20.473  0.00  0.00    +0.121 C 
ENDBRANCH  31  33
ENDBRANCH  30  31
ENDBRANCH   8  30
TORSDOF 9
ENDMDL
MODEL 8
REMARK VINA RESULT:      -7.5     11.873     15.309
REMARK  Name = 5742673
REMARK  9 active torsions:
REMARK  status: ('A' for Active; 'I' for Inactive)
REMARK    1  A    between atoms: CA_5  and  N_11
REMARK    2  A    between atoms: CA_7  and  C_27
REMARK    3  A    between atoms: C_8  and  C_30
REMARK    4  A    between atoms: C_12  and  C_15
REMARK    5  A    between atoms: N_14  and  O_24
REMARK    6  A    between atoms: C_15  and  C_19
REMARK    7  A    between atoms: C_27  and  O_28
REMARK    8  A    between atoms: C_30  and  O_31
REMARK    9  A    between atoms: O_31  and  C_33
REMARK                            x       y       z     vdW  Elec       q    Type
REMARK                         _______ _______ _______ _____ _____    ______ ____
ROOT
ATOM      1  S   UNL     1      35.452 -25.062 -15.638  0.00  0.00    -0.114 S 
ATOM      2  O   UNL     1      33.472 -23.036 -11.951  0.00  0.00    -0.273 OA
ATOM      3  N   UNL     1      35.009 -24.403 -13.103  0.00  0.00    -0.242 N 
ATOM      4  C   UNL     1      34.506 -25.312 -14.117  0.00  0.00    +0.155 C 
ATOM      5  CA  UNL     1      33.171 -24.545 -14.006  0.00  0.00    +0.179 C 
ATOM      6  C   UNL     1      33.826 -23.833 -12.787  0.00  0.00    +0.251 C 
ATOM      7  CA  UNL     1      36.316 -24.321 -12.746  0.00  0.00    +0.127 C 
ATOM      8  C   UNL     1      37.294 -24.870 -13.506  0.00  0.00    +0.030 C 
ATOM      9  C   UNL     1      37.036 -25.527 -14.860  0.00  0.00    +0.086 C 
ENDROOT
BRANCH   5  11
ATOM     10  O   UNL     1      30.960 -24.818 -15.937  0.00  0.00    -0.268 OA
ATOM     11  N   UNL     1      32.796 -23.630 -15.084  0.00  0.00    -0.291 N 
ATOM     12  C   UNL     1      31.729 -23.870 -15.931  0.00  0.00    +0.269 C 
ATOM     13  H   UNL     1      33.324 -22.809 -15.212  0.00  0.00    +0.150 HD
BRANCH  12  15
ATOM     14  N   UNL     1      30.409 -22.157 -17.048  0.00  0.00    -0.076 NA
ATOM     15  C   UNL     1      31.541 -22.788 -16.963  0.00  0.00    +0.198 C 
BRANCH  15  19
ATOM     16  S   UNL     1      34.819 -22.341 -19.145  0.00  0.00    -0.060 S 
ATOM     17  N   UNL     1      32.428 -21.417 -18.818  0.00  0.00    -0.383 NA
ATOM     18  N   UNL     1      33.681 -20.378 -20.531  0.00  0.00    -0.328 N 
ATOM     19  C   UNL     1      32.615 -22.427 -17.894  0.00  0.00    +0.148 C 
ATOM     20  C   UNL     1      33.849 -23.045 -17.919  0.00  0.00    +0.127 C 
ATOM     21  C   UNL     1      33.524 -21.284 -19.530  0.00  0.00    +0.204 C 
ATOM     22  H   UNL     1      34.532 -20.333 -21.026  0.00  0.00    +0.145 HD
ATOM     23  H   UNL     1      32.945 -19.767 -20.762  0.00  0.00    +0.145 HD
ENDBRANCH  15  19
BRANCH  14  24
ATOM     24  O   UNL     1      29.485 -22.616 -16.100  0.00  0.00    -0.373 OA
ATOM     25  C   UNL     1      28.204 -22.644 -16.710  0.00  0.00    +0.288 C 
ENDBRANCH  14  24
ENDBRANCH  12  15
ENDBRANCH   5  11
BRANCH   7  27
ATOM     26  OXT UNL     1      37.080 -22.429 -11.527  0.00  0.00    -0.244 OA
ATOM     27  C   UNL     1      36.628 -23.556 -11.528  0.00  0.00    +0.352 C 
BRANCH  27  28
ATOM     28  O   UNL     1      36.333 -24.300 -10.445  0.00  0.00    -0.476 OA
ATOM     29  H   UNL     1      35.484 -24.239 -10.050  0.00  0.00    +0.295 HD
ENDBRANCH  27  28
ENDBRANCH   7  27
BRANCH   8  30
ATOM     30  C   UNL     1      38.757 -24.892 -13.134  0.00  0.00    +0.233 C 
BRANCH  30  31
ATOM     31  O   UNL     1      39.302 -26.154 -13.457  0.00  0.00    -0.444 OA
BRANCH  31  33
ATOM     32  O   UNL     1      41.430 -26.886 -13.984  0.00  0.00    -0.250 OA
ATOM     33  C   UNL     1      40.476 -26.142 -14.166  0.00  0.00    +0.318 C 
ATOM     34  C   UNL     1      40.435 -25.073 -15.217  0.00  0.00    +0.121 C 
ENDBRANCH  31  33
ENDBRANCH  30  31
ENDBRANCH   8  30
TORSDOF 9
ENDMDL
MODEL 9
REMARK VINA RESULT:      -7.4     10.746     14.474
REMARK  Name = 5742673
REMARK  9 active torsions:
REMARK  status: ('A' for Active; 'I' for Inactive)
REMARK    1  A    between atoms: CA_5  and  N_11
REMARK    2  A    between atoms: CA_7  and  C_27
REMARK    3  A    between atoms: C_8  and  C_30
REMARK    4  A    between atoms: C_12  and  C_15
REMARK    5  A    between atoms: N_14  and  O_24
REMARK    6  A    between atoms: C_15  and  C_19
REMARK    7  A    between atoms: C_27  and  O_28
REMARK    8  A    between atoms: C_30  and  O_31
REMARK    9  A    between atoms: O_31  and  C_33
REMARK                            x       y       z     vdW  Elec       q    Type
REMARK                         _______ _______ _______ _____ _____    ______ ____
ROOT
ATOM      1  S   UNL     1      36.445 -22.845 -15.905  0.00  0.00    -0.114 S 
ATOM      2  O   UNL     1      32.737 -24.857 -13.950  0.00  0.00    -0.273 OA
ATOM      3  N   UNL     1      35.017 -24.323 -14.222  0.00  0.00    -0.242 N 
ATOM      4  C   UNL     1      35.596 -24.402 -15.551  0.00  0.00    +0.155 C 
ATOM      5  CA  UNL     1      34.147 -24.526 -16.070  0.00  0.00    +0.179 C 
ATOM      6  C   UNL     1      33.753 -24.649 -14.570  0.00  0.00    +0.251 C 
ATOM      7  CA  UNL     1      35.725 -23.998 -13.110  0.00  0.00    +0.127 C 
ATOM      8  C   UNL     1      36.956 -23.440 -13.192  0.00  0.00    +0.030 C 
ATOM      9  C   UNL     1      37.608 -23.035 -14.512  0.00  0.00    +0.086 C 
ENDROOT
BRANCH   5  11
ATOM     10  O   UNL     1      33.833 -24.066 -18.965  0.00  0.00    -0.268 OA
ATOM     11  N   UNL     1      33.540 -23.376 -16.741  0.00  0.00    -0.291 N 
ATOM     12  C   UNL     1      33.452 -23.275 -18.117  0.00  0.00    +0.269 C 
ATOM     13  H   UNL     1      33.181 -22.643 -16.189  0.00  0.00    +0.150 HD
BRANCH  12  15
ATOM     14  N   UNL     1      31.607 -21.688 -18.141  0.00  0.00    -0.076 NA
ATOM     15  C   UNL     1      32.791 -22.000 -18.573  0.00  0.00    +0.198 C 
BRANCH  15  19
ATOM     16  S   UNL     1      33.915 -19.422 -21.366  0.00  0.00    -0.060 S 
ATOM     17  N   UNL     1      34.826 -20.916 -19.464  0.00  0.00    -0.383 NA
ATOM     18  N   UNL     1      36.457 -19.662 -20.626  0.00  0.00    -0.328 N 
ATOM     19  C   UNL     1      33.456 -21.089 -19.511  0.00  0.00    +0.148 C 
ATOM     20  C   UNL     1      32.790 -20.363 -20.477  0.00  0.00    +0.127 C 
ATOM     21  C   UNL     1      35.179 -20.060 -20.396  0.00  0.00    +0.204 C 
ATOM     22  H   UNL     1      36.651 -19.015 -21.342  0.00  0.00    +0.145 HD
ATOM     23  H   UNL     1      37.191 -20.020 -20.076  0.00  0.00    +0.145 HD
ENDBRANCH  15  19
BRANCH  14  24
ATOM     24  O   UNL     1      31.103 -22.654 -17.260  0.00  0.00    -0.373 OA
ATOM     25  C   UNL     1      29.800 -22.252 -16.863  0.00  0.00    +0.288 C 
ENDBRANCH  14  24
ENDBRANCH  12  15
ENDBRANCH   5  11
BRANCH   7  27
ATOM     26  OXT UNL     1      35.355 -25.118 -11.045  0.00  0.00    -0.244 OA
ATOM     27  C   UNL     1      35.067 -24.221 -11.813  0.00  0.00    +0.352 C 
BRANCH  27  28
ATOM     28  O   UNL     1      34.115 -23.286 -11.627  0.00  0.00    -0.476 OA
ATOM     29  H   UNL     1      33.499 -23.102 -12.310  0.00  0.00    +0.295 HD
ENDBRANCH  27  28
ENDBRANCH   7  27
BRANCH   8  30
ATOM     30  C   UNL     1      37.836 -23.127 -12.005  0.00  0.00    +0.233 C 
BRANCH  30  31
ATOM     31  O   UNL     1      39.036 -23.864 -12.107  0.00  0.00    -0.444 OA
BRANCH  31  33
ATOM     32  O   UNL     1      38.195 -26.005 -11.881  0.00  0.00    -0.250 OA
ATOM     33  C   UNL     1      38.906 -25.186 -12.448  0.00  0.00    +0.318 C 
ATOM     34  C   UNL     1      39.768 -25.503 -13.633  0.00  0.00    +0.121 C 
ENDBRANCH  31  33
ENDBRANCH  30  31
ENDBRANCH   8  30
TORSDOF 9
ENDMDL
