MODEL 1
REMARK VINA RESULT:      -8.5      0.000      0.000
REMARK  Name = 5326
REMARK  4 active torsions:
REMARK  status: ('A' for Active; 'I' for Inactive)
REMARK    1  A    between atoms: S_1  and  N_4
REMARK    2  A    between atoms: S_1  and  C_14
REMARK    3  A    between atoms: C_8  and  O_12
REMARK    4  A    between atoms: C_17  and  N_20
REMARK                            x       y       z     vdW  Elec       q    Type
REMARK                         _______ _______ _______ _____ _____    ______ ____
ROOT
ATOM      1  S   UNL     1      35.337 -18.476 -22.838  0.00  0.00    +0.081 S 
ATOM      2  O   UNL     1      36.768 -18.280 -22.646  0.00  0.00    -0.149 OA
ATOM      3  O   UNL     1      34.882 -19.632 -23.601  0.00  0.00    -0.149 OA
ENDROOT
BRANCH   1   4
ATOM      4  N   UNL     1      34.586 -18.478 -21.287  0.00  0.00    -0.158 N 
ATOM      5  N   UNL     1      35.653 -20.257 -20.164  0.00  0.00    -0.199 NA
ATOM      6  N   UNL     1      33.256 -20.222 -20.419  0.00  0.00    -0.176 NA
ATOM      7  C   UNL     1      34.493 -19.727 -20.581  0.00  0.00    +0.106 C 
ATOM      8  C   UNL     1      34.319 -22.051 -19.269  0.00  0.00    +0.161 C 
ATOM      9  C   UNL     1      35.528 -21.429 -19.506  0.00  0.00    +0.203 C 
ATOM     10  C   UNL     1      33.205 -21.394 -19.754  0.00  0.00    +0.145 C 
ATOM     11  H   UNL     1      34.231 -17.646 -20.895  0.00  0.00    +0.186 HD
BRANCH   8  12
ATOM     12  O   UNL     1      34.231 -23.224 -18.607  0.00  0.00    -0.472 OA
ATOM     13  C   UNL     1      33.377 -23.271 -17.459  0.00  0.00    +0.252 C 
ENDBRANCH   8  12
ENDBRANCH   1   4
BRANCH   1  14
ATOM     14  C   UNL     1      34.695 -17.030 -23.577  0.00  0.00    +0.126 C 
ATOM     15  C   UNL     1      34.554 -15.866 -22.822  0.00  0.00    +0.021 C 
ATOM     16  C   UNL     1      34.323 -17.041 -24.921  0.00  0.00    +0.021 C 
ATOM     17  C   UNL     1      33.667 -14.721 -24.757  0.00  0.00    +0.042 C 
ATOM     18  C   UNL     1      34.039 -14.711 -23.412  0.00  0.00    +0.015 C 
ATOM     19  C   UNL     1      33.809 -15.886 -25.511  0.00  0.00    +0.015 C 
BRANCH  17  20
ATOM     20  N   UNL     1      33.150 -13.553 -25.354  0.00  0.00    -0.357 N 
ATOM     21  H   UNL     1      33.700 -13.039 -25.988  0.00  0.00    +0.142 HD
ATOM     22  H   UNL     1      32.237 -13.252 -25.137  0.00  0.00    +0.142 HD
ENDBRANCH  17  20
ENDBRANCH   1  14
TORSDOF 4
ENDMDL
MODEL 2
REMARK VINA RESULT:      -8.5      2.721      7.531
REMARK  Name = 5326
REMARK  4 active torsions:
REMARK  status: ('A' for Active; 'I' for Inactive)
REMARK    1  A    between atoms: S_1  and  N_4
REMARK    2  A    between atoms: S_1  and  C_14
REMARK    3  A    between atoms: C_8  and  O_12
REMARK    4  A    between atoms: C_17  and  N_20
REMARK                            x       y       z     vdW  Elec       q    Type
REMARK                         _______ _______ _______ _____ _____    ______ ____
ROOT
ATOM      1  S   UNL     1      35.039 -17.443 -21.493  0.00  0.00    +0.081 S 
ATOM      2  O   UNL     1      36.063 -17.634 -22.513  0.00  0.00    -0.149 OA
ATOM      3  O   UNL     1      35.320 -16.552 -20.374  0.00  0.00    -0.149 OA
ENDROOT
BRANCH   1   4
ATOM      4  N   UNL     1      33.589 -16.942 -22.278  0.00  0.00    -0.158 N 
ATOM      5  N   UNL     1      34.236 -14.983 -23.423  0.00  0.00    -0.199 NA
ATOM      6  N   UNL     1      32.422 -14.941 -21.836  0.00  0.00    -0.176 NA
ATOM      7  C   UNL     1      33.405 -15.538 -22.527  0.00  0.00    +0.106 C 
ATOM      8  C   UNL     1      33.062 -12.927 -22.989  0.00  0.00    +0.161 C 
ATOM      9  C   UNL     1      34.034 -13.665 -23.631  0.00  0.00    +0.203 C 
ATOM     10  C   UNL     1      32.277 -13.625 -22.093  0.00  0.00    +0.145 C 
ATOM     11  H   UNL     1      32.907 -17.599 -22.550  0.00  0.00    +0.186 HD
BRANCH   8  12
ATOM     12  O   UNL     1      32.889 -11.608 -23.222  0.00  0.00    -0.472 OA
ATOM     13  C   UNL     1      33.744 -10.991 -24.190  0.00  0.00    +0.252 C 
ENDBRANCH   8  12
ENDBRANCH   1   4
BRANCH   1  14
ATOM     14  C   UNL     1      34.614 -19.015 -20.863  0.00  0.00    +0.126 C 
ATOM     15  C   UNL     1      35.616 -19.912 -20.493  0.00  0.00    +0.021 C 
ATOM     16  C   UNL     1      33.273 -19.375 -20.732  0.00  0.00    +0.021 C 
ATOM     17  C   UNL     1      33.935 -21.528 -19.860  0.00  0.00    +0.042 C 
ATOM     18  C   UNL     1      35.277 -21.169 -19.992  0.00  0.00    +0.015 C 
ATOM     19  C   UNL     1      32.934 -20.631 -20.230  0.00  0.00    +0.015 C 
BRANCH  17  20
ATOM     20  N   UNL     1      33.592 -22.798 -19.351  0.00  0.00    -0.357 N 
ATOM     21  H   UNL     1      32.656 -23.100 -19.372  0.00  0.00    +0.142 HD
ATOM     22  H   UNL     1      34.290 -23.383 -18.974  0.00  0.00    +0.142 HD
ENDBRANCH  17  20
ENDBRANCH   1  14
TORSDOF 4
ENDMDL
MODEL 3
REMARK VINA RESULT:      -8.4      5.126      8.702
REMARK  Name = 5326
REMARK  4 active torsions:
REMARK  status: ('A' for Active; 'I' for Inactive)
REMARK    1  A    between atoms: S_1  and  N_4
REMARK    2  A    between atoms: S_1  and  C_14
REMARK    3  A    between atoms: C_8  and  O_12
REMARK    4  A    between atoms: C_17  and  N_20
REMARK                            x       y       z     vdW  Elec       q    Type
REMARK                         _______ _______ _______ _____ _____    ______ ____
ROOT
ATOM      1  S   UNL     1      33.139 -13.443 -23.591  0.00  0.00    +0.081 S 
ATOM      2  O   UNL     1      32.674 -13.929 -24.885  0.00  0.00    -0.149 OA
ATOM      3  O   UNL     1      34.058 -12.312 -23.554  0.00  0.00    -0.149 OA
ENDROOT
BRANCH   1   4
ATOM      4  N   UNL     1      31.756 -13.093 -22.624  0.00  0.00    -0.158 N 
ATOM      5  N   UNL     1      31.791 -10.741 -22.450  0.00  0.00    -0.199 NA
ATOM      6  N   UNL     1      31.807 -12.123 -20.475  0.00  0.00    -0.176 NA
ATOM      7  C   UNL     1      31.787 -11.915 -21.800  0.00  0.00    +0.106 C 
ATOM      8  C   UNL     1      31.844  -9.724 -20.268  0.00  0.00    +0.161 C 
ATOM      9  C   UNL     1      31.820  -9.657 -21.646  0.00  0.00    +0.203 C 
ATOM     10  C   UNL     1      31.836 -10.997 -19.732  0.00  0.00    +0.145 C 
ATOM     11  H   UNL     1      30.967 -13.683 -22.637  0.00  0.00    +0.186 HD
BRANCH   8  12
ATOM     12  O   UNL     1      31.873  -8.618 -19.494  0.00  0.00    -0.472 OA
ATOM     13  C   UNL     1      32.317  -7.400 -20.101  0.00  0.00    +0.252 C 
ENDBRANCH   8  12
ENDBRANCH   1   4
BRANCH   1  14
ATOM     14  C   UNL     1      33.870 -14.786 -22.749  0.00  0.00    +0.126 C 
ATOM     15  C   UNL     1      34.324 -15.894 -23.464  0.00  0.00    +0.021 C 
ATOM     16  C   UNL     1      33.998 -14.752 -21.360  0.00  0.00    +0.021 C 
ATOM     17  C   UNL     1      35.035 -16.934 -21.402  0.00  0.00    +0.042 C 
ATOM     18  C   UNL     1      34.907 -16.968 -22.791  0.00  0.00    +0.015 C 
ATOM     19  C   UNL     1      34.581 -15.825 -20.687  0.00  0.00    +0.015 C 
BRANCH  17  20
ATOM     20  N   UNL     1      35.626 -18.018 -20.722  0.00  0.00    -0.357 N 
ATOM     21  H   UNL     1      35.274 -18.929 -20.846  0.00  0.00    +0.142 HD
ATOM     22  H   UNL     1      36.393 -17.864 -20.122  0.00  0.00    +0.142 HD
ENDBRANCH  17  20
ENDBRANCH   1  14
TORSDOF 4
ENDMDL
MODEL 4
REMARK VINA RESULT:      -8.2      2.902      7.068
REMARK  Name = 5326
REMARK  4 active torsions:
REMARK  status: ('A' for Active; 'I' for Inactive)
REMARK    1  A    between atoms: S_1  and  N_4
REMARK    2  A    between atoms: S_1  and  C_14
REMARK    3  A    between atoms: C_8  and  O_12
REMARK    4  A    between atoms: C_17  and  N_20
REMARK                            x       y       z     vdW  Elec       q    Type
REMARK                         _______ _______ _______ _____ _____    ______ ____
ROOT
ATOM      1  S   UNL     1      35.500 -18.442 -21.710  0.00  0.00    +0.081 S 
ATOM      2  O   UNL     1      34.578 -18.224 -22.818  0.00  0.00    -0.149 OA
ATOM      3  O   UNL     1      36.913 -18.656 -22.003  0.00  0.00    -0.149 OA
ENDROOT
BRANCH   1   4
ATOM      4  N   UNL     1      35.334 -17.126 -20.610  0.00  0.00    -0.158 N 
ATOM      5  N   UNL     1      33.128 -16.377 -20.982  0.00  0.00    -0.199 NA
ATOM      6  N   UNL     1      34.996 -14.874 -21.222  0.00  0.00    -0.176 NA
ATOM      7  C   UNL     1      34.432 -16.062 -20.959  0.00  0.00    +0.106 C 
ATOM      8  C   UNL     1      32.755 -14.083 -21.609  0.00  0.00    +0.161 C 
ATOM      9  C   UNL     1      32.311 -15.355 -21.313  0.00  0.00    +0.203 C 
ATOM     10  C   UNL     1      34.122 -13.898 -21.546  0.00  0.00    +0.145 C 
ATOM     11  H   UNL     1      35.841 -17.105 -19.766  0.00  0.00    +0.186 HD
BRANCH   8  12
ATOM     12  O   UNL     1      31.909 -13.083 -21.937  0.00  0.00    -0.472 OA
ATOM     13  C   UNL     1      31.685 -12.061 -20.960  0.00  0.00    +0.252 C 
ENDBRANCH   8  12
ENDBRANCH   1   4
BRANCH   1  14
ATOM     14  C   UNL     1      34.909 -19.798 -20.784  0.00  0.00    +0.126 C 
ATOM     15  C   UNL     1      33.538 -19.971 -20.598  0.00  0.00    +0.021 C 
ATOM     16  C   UNL     1      35.809 -20.709 -20.229  0.00  0.00    +0.021 C 
ATOM     17  C   UNL     1      33.965 -21.964 -19.301  0.00  0.00    +0.042 C 
ATOM     18  C   UNL     1      33.065 -21.054 -19.856  0.00  0.00    +0.015 C 
ATOM     19  C   UNL     1      35.336 -21.791 -19.487  0.00  0.00    +0.015 C 
BRANCH  17  20
ATOM     20  N   UNL     1      33.487 -23.060 -18.553  0.00  0.00    -0.357 N 
ATOM     21  H   UNL     1      33.400 -22.989 -17.575  0.00  0.00    +0.142 HD
ATOM     22  H   UNL     1      33.241 -23.898 -19.010  0.00  0.00    +0.142 HD
ENDBRANCH  17  20
ENDBRANCH   1  14
TORSDOF 4
ENDMDL
MODEL 5
REMARK VINA RESULT:      -8.0      4.243      6.373
REMARK  Name = 5326
REMARK  4 active torsions:
REMARK  status: ('A' for Active; 'I' for Inactive)
REMARK    1  A    between atoms: S_1  and  N_4
REMARK    2  A    between atoms: S_1  and  C_14
REMARK    3  A    between atoms: C_8  and  O_12
REMARK    4  A    between atoms: C_17  and  N_20
REMARK                            x       y       z     vdW  Elec       q    Type
REMARK                         _______ _______ _______ _____ _____    ______ ____
ROOT
ATOM      1  S   UNL     1      33.833 -22.804 -18.186  0.00  0.00    +0.081 S 
ATOM      2  O   UNL     1      33.822 -24.051 -18.941  0.00  0.00    -0.149 OA
ATOM      3  O   UNL     1      32.725 -22.520 -17.282  0.00  0.00    -0.149 OA
ENDROOT
BRANCH   1   4
ATOM      4  N   UNL     1      35.320 -22.718 -17.318  0.00  0.00    -0.158 N 
ATOM      5  N   UNL     1      35.308 -24.686 -16.016  0.00  0.00    -0.199 NA
ATOM      6  N   UNL     1      35.521 -22.522 -14.977  0.00  0.00    -0.176 NA
ATOM      7  C   UNL     1      35.387 -23.346 -16.026  0.00  0.00    +0.106 C 
ATOM      8  C   UNL     1      35.511 -24.514 -13.624  0.00  0.00    +0.161 C 
ATOM      9  C   UNL     1      35.375 -25.241 -14.788  0.00  0.00    +0.203 C 
ATOM     10  C   UNL     1      35.581 -23.144 -13.781  0.00  0.00    +0.145 C 
ATOM     11  H   UNL     1      36.101 -22.254 -17.697  0.00  0.00    +0.186 HD
BRANCH   8  12
ATOM     12  O   UNL     1      35.574 -25.103 -12.411  0.00  0.00    -0.472 OA
ATOM     13  C   UNL     1      35.692 -24.249 -11.268  0.00  0.00    +0.252 C 
ENDBRANCH   8  12
ENDBRANCH   1   4
BRANCH   1  14
ATOM     14  C   UNL     1      33.975 -21.491 -19.327  0.00  0.00    +0.126 C 
ATOM     15  C   UNL     1      35.231 -21.105 -19.794  0.00  0.00    +0.021 C 
ATOM     16  C   UNL     1      32.831 -20.826 -19.771  0.00  0.00    +0.021 C 
ATOM     17  C   UNL     1      34.201 -19.390 -21.149  0.00  0.00    +0.042 C 
ATOM     18  C   UNL     1      35.345 -20.054 -20.705  0.00  0.00    +0.015 C 
ATOM     19  C   UNL     1      32.945 -19.776 -20.682  0.00  0.00    +0.015 C 
BRANCH  17  20
ATOM     20  N   UNL     1      34.315 -18.330 -22.071  0.00  0.00    -0.357 N 
ATOM     21  H   UNL     1      34.041 -17.421 -21.813  0.00  0.00    +0.142 HD
ATOM     22  H   UNL     1      34.671 -18.499 -22.975  0.00  0.00    +0.142 HD
ENDBRANCH  17  20
ENDBRANCH   1  14
TORSDOF 4
ENDMDL
MODEL 6
REMARK VINA RESULT:      -7.9      4.252      5.833
REMARK  Name = 5326
REMARK  4 active torsions:
REMARK  status: ('A' for Active; 'I' for Inactive)
REMARK    1  A    between atoms: S_1  and  N_4
REMARK    2  A    between atoms: S_1  and  C_14
REMARK    3  A    between atoms: C_8  and  O_12
REMARK    4  A    between atoms: C_17  and  N_20
REMARK                            x       y       z     vdW  Elec       q    Type
REMARK                         _______ _______ _______ _____ _____    ______ ____
ROOT
ATOM      1  S   UNL     1      33.196 -13.110 -23.776  0.00  0.00    +0.081 S 
ATOM      2  O   UNL     1      33.154 -13.568 -25.159  0.00  0.00    -0.149 OA
ATOM      3  O   UNL     1      32.035 -13.341 -22.924  0.00  0.00    -0.149 OA
ENDROOT
BRANCH   1   4
ATOM      4  N   UNL     1      34.597 -13.783 -23.033  0.00  0.00    -0.158 N 
ATOM      5  N   UNL     1      34.700 -15.963 -23.930  0.00  0.00    -0.199 NA
ATOM      6  N   UNL     1      34.604 -15.615 -21.547  0.00  0.00    -0.176 NA
ATOM      7  C   UNL     1      34.636 -15.205 -22.824  0.00  0.00    +0.106 C 
ATOM      8  C   UNL     1      34.708 -17.850 -22.436  0.00  0.00    +0.161 C 
ATOM      9  C   UNL     1      34.735 -17.292 -23.697  0.00  0.00    +0.203 C 
ATOM     10  C   UNL     1      34.642 -16.954 -21.388  0.00  0.00    +0.145 C 
ATOM     11  H   UNL     1      35.350 -13.210 -22.760  0.00  0.00    +0.186 HD
BRANCH   8  12
ATOM     12  O   UNL     1      34.744 -19.186 -22.240  0.00  0.00    -0.472 OA
ATOM     13  C   UNL     1      34.022 -19.707 -21.119  0.00  0.00    +0.252 C 
ENDBRANCH   8  12
ENDBRANCH   1   4
BRANCH   1  14
ATOM     14  C   UNL     1      33.548 -11.401 -23.790  0.00  0.00    +0.126 C 
ATOM     15  C   UNL     1      34.647 -10.922 -24.503  0.00  0.00    +0.021 C 
ATOM     16  C   UNL     1      32.732 -10.514 -23.088  0.00  0.00    +0.021 C 
ATOM     17  C   UNL     1      34.114  -8.669 -23.812  0.00  0.00    +0.042 C 
ATOM     18  C   UNL     1      34.931  -9.556 -24.514  0.00  0.00    +0.015 C 
ATOM     19  C   UNL     1      33.015  -9.149 -23.099  0.00  0.00    +0.015 C 
BRANCH  17  20
ATOM     20  N   UNL     1      34.398  -7.288 -23.824  0.00  0.00    -0.357 N 
ATOM     21  H   UNL     1      35.016  -6.918 -24.495  0.00  0.00    +0.142 HD
ATOM     22  H   UNL     1      33.978  -6.693 -23.160  0.00  0.00    +0.142 HD
ENDBRANCH  17  20
ENDBRANCH   1  14
TORSDOF 4
ENDMDL
MODEL 7
REMARK VINA RESULT:      -7.8      1.682      2.234
REMARK  Name = 5326
REMARK  4 active torsions:
REMARK  status: ('A' for Active; 'I' for Inactive)
REMARK    1  A    between atoms: S_1  and  N_4
REMARK    2  A    between atoms: S_1  and  C_14
REMARK    3  A    between atoms: C_8  and  O_12
REMARK    4  A    between atoms: C_17  and  N_20
REMARK                            x       y       z     vdW  Elec       q    Type
REMARK                         _______ _______ _______ _____ _____    ______ ____
ROOT
ATOM      1  S   UNL     1      34.147 -16.587 -21.497  0.00  0.00    +0.081 S 
ATOM      2  O   UNL     1      32.868 -17.042 -20.965  0.00  0.00    -0.149 OA
ATOM      3  O   UNL     1      35.002 -15.757 -20.656  0.00  0.00    -0.149 OA
ENDROOT
BRANCH   1   4
ATOM      4  N   UNL     1      35.028 -17.970 -22.027  0.00  0.00    -0.158 N 
ATOM      5  N   UNL     1      33.871 -19.770 -21.032  0.00  0.00    -0.199 NA
ATOM      6  N   UNL     1      36.224 -19.442 -20.626  0.00  0.00    -0.176 NA
ATOM      7  C   UNL     1      35.042 -19.130 -21.177  0.00  0.00    +0.106 C 
ATOM      8  C   UNL     1      35.068 -21.287 -19.597  0.00  0.00    +0.161 C 
ATOM      9  C   UNL     1      33.921 -20.853 -20.229  0.00  0.00    +0.203 C 
ATOM     10  C   UNL     1      36.202 -20.535 -19.835  0.00  0.00    +0.145 C 
ATOM     11  H   UNL     1      35.507 -17.966 -22.887  0.00  0.00    +0.186 HD
BRANCH   8  12
ATOM     12  O   UNL     1      35.082 -22.376 -18.799  0.00  0.00    -0.472 OA
ATOM     13  C   UNL     1      33.819 -22.895 -18.369  0.00  0.00    +0.252 C 
ENDBRANCH   8  12
ENDBRANCH   1   4
BRANCH   1  14
ATOM     14  C   UNL     1      33.831 -15.735 -22.987  0.00  0.00    +0.126 C 
ATOM     15  C   UNL     1      33.283 -14.453 -22.954  0.00  0.00    +0.021 C 
ATOM     16  C   UNL     1      34.126 -16.337 -24.210  0.00  0.00    +0.021 C 
ATOM     17  C   UNL     1      33.323 -14.374 -25.369  0.00  0.00    +0.042 C 
ATOM     18  C   UNL     1      33.028 -13.772 -24.146  0.00  0.00    +0.015 C 
ATOM     19  C   UNL     1      33.872 -15.656 -25.401  0.00  0.00    +0.015 C 
BRANCH  17  20
ATOM     20  N   UNL     1      33.069 -13.686 -26.573  0.00  0.00    -0.357 N 
ATOM     21  H   UNL     1      32.199 -13.786 -27.023  0.00  0.00    +0.142 HD
ATOM     22  H   UNL     1      33.761 -13.104 -26.964  0.00  0.00    +0.142 HD
ENDBRANCH  17  20
ENDBRANCH   1  14
TORSDOF 4
ENDMDL
MODEL 8
REMARK VINA RESULT:      -7.7      9.162     10.601
REMARK  Name = 5326
REMARK  4 active torsions:
REMARK  status: ('A' for Active; 'I' for Inactive)
REMARK    1  A    between atoms: S_1  and  N_4
REMARK    2  A    between atoms: S_1  and  C_14
REMARK    3  A    between atoms: C_8  and  O_12
REMARK    4  A    between atoms: C_17  and  N_20
REMARK                            x       y       z     vdW  Elec       q    Type
REMARK                         _______ _______ _______ _____ _____    ______ ____
ROOT
ATOM      1  S   UNL     1      33.730 -23.799 -14.150  0.00  0.00    +0.081 S 
ATOM      2  O   UNL     1      33.589 -23.713 -12.702  0.00  0.00    -0.149 OA
ATOM      3  O   UNL     1      34.462 -22.748 -14.848  0.00  0.00    -0.149 OA
ENDROOT
BRANCH   1   4
ATOM      4  N   UNL     1      34.421 -25.331 -14.530  0.00  0.00    -0.158 N 
ATOM      5  N   UNL     1      36.169 -25.548 -12.961  0.00  0.00    -0.199 NA
ATOM      6  N   UNL     1      36.614 -25.677 -15.326  0.00  0.00    -0.176 NA
ATOM      7  C   UNL     1      35.819 -25.530 -14.256  0.00  0.00    +0.106 C 
ATOM      8  C   UNL     1      38.417 -25.901 -13.746  0.00  0.00    +0.161 C 
ATOM      9  C   UNL     1      37.487 -25.737 -12.741  0.00  0.00    +0.203 C 
ATOM     10  C   UNL     1      37.918 -25.862 -15.033  0.00  0.00    +0.145 C 
ATOM     11  H   UNL     1      33.874 -26.050 -14.923  0.00  0.00    +0.186 HD
BRANCH   8  12
ATOM     12  O   UNL     1      39.730 -26.088 -13.489  0.00  0.00    -0.472 OA
ATOM     13  C   UNL     1      40.658 -25.774 -14.533  0.00  0.00    +0.252 C 
ENDBRANCH   8  12
ENDBRANCH   1   4
BRANCH   1  14
ATOM     14  C   UNL     1      32.129 -23.915 -14.836  0.00  0.00    +0.126 C 
ATOM     15  C   UNL     1      31.728 -23.018 -15.825  0.00  0.00    +0.021 C 
ATOM     16  C   UNL     1      31.252 -24.905 -14.393  0.00  0.00    +0.021 C 
ATOM     17  C   UNL     1      29.570 -24.100 -15.930  0.00  0.00    +0.042 C 
ATOM     18  C   UNL     1      30.447 -23.110 -16.372  0.00  0.00    +0.015 C 
ATOM     19  C   UNL     1      29.972 -24.997 -14.940  0.00  0.00    +0.015 C 
BRANCH  17  20
ATOM     20  N   UNL     1      28.276 -24.194 -16.484  0.00  0.00    -0.357 N 
ATOM     21  H   UNL     1      28.156 -24.176 -17.461  0.00  0.00    +0.142 HD
ATOM     22  H   UNL     1      27.492 -24.279 -15.893  0.00  0.00    +0.142 HD
ENDBRANCH  17  20
ENDBRANCH   1  14
TORSDOF 4
ENDMDL
MODEL 9
REMARK VINA RESULT:      -7.6      2.853      7.571
REMARK  Name = 5326
REMARK  4 active torsions:
REMARK  status: ('A' for Active; 'I' for Inactive)
REMARK    1  A    between atoms: S_1  and  N_4
REMARK    2  A    between atoms: S_1  and  C_14
REMARK    3  A    between atoms: C_8  and  O_12
REMARK    4  A    between atoms: C_17  and  N_20
REMARK                            x       y       z     vdW  Elec       q    Type
REMARK                         _______ _______ _______ _____ _____    ______ ____
ROOT
ATOM      1  S   UNL     1      34.361 -16.550 -21.256  0.00  0.00    +0.081 S 
ATOM      2  O   UNL     1      35.060 -15.745 -20.261  0.00  0.00    -0.149 OA
ATOM      3  O   UNL     1      32.928 -16.353 -21.438  0.00  0.00    -0.149 OA
ENDROOT
BRANCH   1   4
ATOM      4  N   UNL     1      35.166 -16.351 -22.766  0.00  0.00    -0.158 N 
ATOM      5  N   UNL     1      34.180 -14.402 -23.659  0.00  0.00    -0.199 NA
ATOM      6  N   UNL     1      34.138 -16.477 -24.885  0.00  0.00    -0.176 NA
ATOM      7  C   UNL     1      34.452 -15.705 -23.834  0.00  0.00    +0.106 C 
ATOM      8  C   UNL     1      33.123 -14.503 -25.819  0.00  0.00    +0.161 C 
ATOM      9  C   UNL     1      33.510 -13.828 -24.680  0.00  0.00    +0.203 C 
ATOM     10  C   UNL     1      33.468 -15.839 -25.868  0.00  0.00    +0.145 C 
ATOM     11  H   UNL     1      36.089 -16.669 -22.894  0.00  0.00    +0.186 HD
BRANCH   8  12
ATOM     12  O   UNL     1      32.452 -13.897 -26.822  0.00  0.00    -0.472 OA
ATOM     13  C   UNL     1      33.064 -12.754 -27.429  0.00  0.00    +0.252 C 
ENDBRANCH   8  12
ENDBRANCH   1   4
BRANCH   1  14
ATOM     14  C   UNL     1      34.652 -18.230 -20.881  0.00  0.00    +0.126 C 
ATOM     15  C   UNL     1      35.959 -18.700 -20.757  0.00  0.00    +0.021 C 
ATOM     16  C   UNL     1      33.576 -19.101 -20.706  0.00  0.00    +0.021 C 
ATOM     17  C   UNL     1      35.116 -20.915 -20.285  0.00  0.00    +0.042 C 
ATOM     18  C   UNL     1      36.191 -20.044 -20.459  0.00  0.00    +0.015 C 
ATOM     19  C   UNL     1      33.809 -20.444 -20.408  0.00  0.00    +0.015 C 
BRANCH  17  20
ATOM     20  N   UNL     1      35.350 -22.272 -19.981  0.00  0.00    -0.357 N 
ATOM     21  H   UNL     1      35.961 -22.804 -20.541  0.00  0.00    +0.142 HD
ATOM     22  H   UNL     1      34.903 -22.688 -19.208  0.00  0.00    +0.142 HD
ENDBRANCH  17  20
ENDBRANCH   1  14
TORSDOF 4
ENDMDL
