MODEL 1
REMARK VINA RESULT:      -8.4      0.000      0.000
REMARK  Name = 5311067
REMARK  4 active torsions:
REMARK  status: ('A' for Active; 'I' for Inactive)
REMARK    1  A    between atoms: C_7  and  C_26
REMARK    2  A    between atoms: C_11  and  O_23
REMARK    3  A    between atoms: C_26  and  C_27
REMARK    4  A    between atoms: C_27  and  O_28
REMARK                            x       y       z     vdW  Elec       q    Type
REMARK                         _______ _______ _______ _____ _____    ______ ____
ROOT
ATOM      1  F   UNL     1      35.848 -25.415 -14.888  0.00  0.00    -0.237 F 
ATOM      2  O   UNL     1      40.692 -25.884 -15.218  0.00  0.00    -0.287 OA
ATOM      3  C   UNL     1      32.786 -23.961 -13.991  0.00  0.00    +0.009 C 
ATOM      4  C   UNL     1      33.659 -23.655 -15.223  0.00  0.00    +0.003 C 
ATOM      5  C   UNL     1      35.075 -23.188 -14.861  0.00  0.00    +0.033 C 
ATOM      6  C   UNL     1      35.789 -24.319 -14.040  0.00  0.00    +0.164 C 
ATOM      7  C   UNL     1      31.477 -24.361 -14.713  0.00  0.00    +0.060 C 
ATOM      8  C   UNL     1      32.770 -22.753 -16.078  0.00  0.00    +0.001 C 
ATOM      9  C   UNL     1      33.455 -25.110 -13.216  0.00  0.00    +0.032 C 
ATOM     10  C   UNL     1      31.345 -23.319 -15.858  0.00  0.00    +0.007 C 
ATOM     11  C   UNL     1      34.924 -24.807 -12.837  0.00  0.00    +0.141 C 
ATOM     12  C   UNL     1      37.290 -23.954 -13.712  0.00  0.00    +0.064 C 
ATOM     13  C   UNL     1      35.867 -22.837 -16.133  0.00  0.00    +0.007 C 
ATOM     14  C   UNL     1      32.549 -22.737 -13.068  0.00  0.00    +0.001 C 
ATOM     15  C   UNL     1      37.318 -22.484 -15.831  0.00  0.00    +0.023 C 
ATOM     16  C   UNL     1      37.972 -23.585 -15.035  0.00  0.00    -0.035 C 
ATOM     17  C   UNL     1      30.776 -23.948 -17.127  0.00  0.00    +0.000 C 
ATOM     18  C   UNL     1      37.452 -22.761 -12.743  0.00  0.00    +0.011 C 
ATOM     19  C   UNL     1      37.984 -25.136 -13.048  0.00  0.00    -0.017 C 
ATOM     20  C   UNL     1      39.060 -24.209 -15.514  0.00  0.00    +0.034 C 
ATOM     21  C   UNL     1      39.066 -25.762 -13.520  0.00  0.00    +0.038 C 
ATOM     22  C   UNL     1      39.689 -25.329 -14.784  0.00  0.00    +0.195 C 
ENDROOT
BRANCH  11  23
ATOM     23  O   UNL     1      34.959 -23.881 -11.762  0.00  0.00    -0.382 OA
ATOM     24  H   UNL     1      34.059 -23.572 -11.573  0.00  0.00    +0.210 HD
ENDBRANCH  11  23
BRANCH   7  26
ATOM     25  O   UNL     1      30.382 -24.330 -12.597  0.00  0.00    -0.293 OA
ATOM     26  C   UNL     1      30.273 -24.386 -13.821  0.00  0.00    +0.180 C 
BRANCH  26  27
ATOM     27  C   UNL     1      28.929 -24.483 -14.513  0.00  0.00    +0.202 C 
BRANCH  27  28
ATOM     28  O   UNL     1      28.320 -25.728 -14.245  0.00  0.00    -0.375 OA
ATOM     29  H   UNL     1      28.421 -26.310 -15.014  0.00  0.00    +0.211 HD
ENDBRANCH  27  28
ENDBRANCH  26  27
ENDBRANCH   7  26
TORSDOF 4
ENDMDL
MODEL 2
REMARK VINA RESULT:      -8.3     19.283     20.918
REMARK  Name = 5311067
REMARK  4 active torsions:
REMARK  status: ('A' for Active; 'I' for Inactive)
REMARK    1  A    between atoms: C_7  and  C_26
REMARK    2  A    between atoms: C_11  and  O_23
REMARK    3  A    between atoms: C_26  and  C_27
REMARK    4  A    between atoms: C_27  and  O_28
REMARK                            x       y       z     vdW  Elec       q    Type
REMARK                         _______ _______ _______ _____ _____    ______ ____
ROOT
ATOM      1  F   UNL     1      31.462  -7.938 -24.511  0.00  0.00    -0.237 F 
ATOM      2  O   UNL     1      32.802 -12.479 -23.339  0.00  0.00    -0.287 OA
ATOM      3  C   UNL     1      31.330  -4.440 -24.300  0.00  0.00    +0.009 C 
ATOM      4  C   UNL     1      32.373  -5.310 -25.028  0.00  0.00    +0.003 C 
ATOM      5  C   UNL     1      33.098  -6.292 -24.098  0.00  0.00    +0.033 C 
ATOM      6  C   UNL     1      32.041  -7.255 -23.452  0.00  0.00    +0.164 C 
ATOM      7  C   UNL     1      30.841  -3.592 -25.498  0.00  0.00    +0.060 C 
ATOM      8  C   UNL     1      33.189  -4.297 -25.829  0.00  0.00    +0.001 C 
ATOM      9  C   UNL     1      30.262  -5.381 -23.714  0.00  0.00    +0.032 C 
ATOM     10  C   UNL     1      32.144  -3.241 -26.268  0.00  0.00    +0.007 C 
ATOM     11  C   UNL     1      30.858  -6.477 -22.800  0.00  0.00    +0.141 C 
ATOM     12  C   UNL     1      32.721  -8.362 -22.555  0.00  0.00    +0.064 C 
ATOM     13  C   UNL     1      34.168  -7.078 -24.877  0.00  0.00    +0.007 C 
ATOM     14  C   UNL     1      31.930  -3.532 -23.195  0.00  0.00    +0.001 C 
ATOM     15  C   UNL     1      34.831  -8.151 -24.022  0.00  0.00    +0.023 C 
ATOM     16  C   UNL     1      33.791  -9.053 -23.410  0.00  0.00    -0.035 C 
ATOM     17  C   UNL     1      31.922  -3.246 -27.778  0.00  0.00    +0.000 C 
ATOM     18  C   UNL     1      33.410  -7.811 -21.285  0.00  0.00    +0.011 C 
ATOM     19  C   UNL     1      31.678  -9.359 -22.070  0.00  0.00    -0.017 C 
ATOM     20  C   UNL     1      33.810 -10.373 -23.660  0.00  0.00    +0.034 C 
ATOM     21  C   UNL     1      31.690 -10.673 -22.317  0.00  0.00    +0.038 C 
ATOM     22  C   UNL     1      32.771 -11.273 -23.121  0.00  0.00    +0.195 C 
ENDROOT
BRANCH  11  23
ATOM     23  O   UNL     1      31.233  -5.908 -21.555  0.00  0.00    -0.382 OA
ATOM     24  H   UNL     1      30.548  -5.285 -21.266  0.00  0.00    +0.210 HD
ENDBRANCH  11  23
BRANCH   7  26
ATOM     25  O   UNL     1      30.168  -1.884 -23.979  0.00  0.00    -0.293 OA
ATOM     26  C   UNL     1      30.065  -2.372 -25.103  0.00  0.00    +0.180 C 
BRANCH  26  27
ATOM     27  C   UNL     1      29.154  -1.786 -26.162  0.00  0.00    +0.202 C 
BRANCH  27  28
ATOM     28  O   UNL     1      27.810  -1.803 -25.728  0.00  0.00    -0.375 OA
ATOM     29  H   UNL     1      27.352  -2.560 -26.126  0.00  0.00    +0.211 HD
ENDBRANCH  27  28
ENDBRANCH  26  27
ENDBRANCH   7  26
TORSDOF 4
ENDMDL
MODEL 3
REMARK VINA RESULT:      -7.9      2.045      7.128
REMARK  Name = 5311067
REMARK  4 active torsions:
REMARK  status: ('A' for Active; 'I' for Inactive)
REMARK    1  A    between atoms: C_7  and  C_26
REMARK    2  A    between atoms: C_11  and  O_23
REMARK    3  A    between atoms: C_26  and  C_27
REMARK    4  A    between atoms: C_27  and  O_28
REMARK                            x       y       z     vdW  Elec       q    Type
REMARK                         _______ _______ _______ _____ _____    ______ ____
ROOT
ATOM      1  F   UNL     1      32.123 -22.221 -14.601  0.00  0.00    -0.237 F 
ATOM      2  O   UNL     1      27.345 -21.616 -15.375  0.00  0.00    -0.287 OA
ATOM      3  C   UNL     1      35.227 -23.853 -14.606  0.00  0.00    +0.009 C 
ATOM      4  C   UNL     1      34.573 -23.049 -15.747  0.00  0.00    +0.003 C 
ATOM      5  C   UNL     1      33.207 -23.604 -16.172  0.00  0.00    +0.033 C 
ATOM      6  C   UNL     1      32.235 -23.560 -14.941  0.00  0.00    +0.164 C 
ATOM      7  C   UNL     1      36.544 -23.052 -14.467  0.00  0.00    +0.060 C 
ATOM      8  C   UNL     1      35.688 -22.928 -16.785  0.00  0.00    +0.001 C 
ATOM      9  C   UNL     1      34.301 -23.763 -13.379  0.00  0.00    +0.032 C 
ATOM     10  C   UNL     1      36.973 -22.776 -15.934  0.00  0.00    +0.007 C 
ATOM     11  C   UNL     1      32.857 -24.230 -13.678  0.00  0.00    +0.141 C 
ATOM     12  C   UNL     1      30.775 -24.025 -15.324  0.00  0.00    +0.064 C 
ATOM     13  C   UNL     1      32.645 -22.797 -17.355  0.00  0.00    +0.007 C 
ATOM     14  C   UNL     1      35.522 -25.332 -14.967  0.00  0.00    +0.001 C 
ATOM     15  C   UNL     1      31.235 -23.234 -17.735  0.00  0.00    +0.023 C 
ATOM     16  C   UNL     1      30.330 -23.190 -16.531  0.00  0.00    -0.035 C 
ATOM     17  C   UNL     1      37.600 -21.393 -16.086  0.00  0.00    +0.000 C 
ATOM     18  C   UNL     1      30.669 -25.517 -15.712  0.00  0.00    +0.011 C 
ATOM     19  C   UNL     1      29.835 -23.827 -14.143  0.00  0.00    -0.017 C 
ATOM     20  C   UNL     1      29.231 -22.417 -16.540  0.00  0.00    +0.034 C 
ATOM     21  C   UNL     1      28.741 -23.059 -14.145  0.00  0.00    +0.038 C 
ATOM     22  C   UNL     1      28.356 -22.310 -15.356  0.00  0.00    +0.195 C 
ENDROOT
BRANCH  11  23
ATOM     23  O   UNL     1      32.823 -25.646 -13.769  0.00  0.00    -0.382 OA
ATOM     24  H   UNL     1      32.800 -25.909 -14.702  0.00  0.00    +0.210 HD
ENDBRANCH  11  23
BRANCH   7  26
ATOM     25  O   UNL     1      38.534 -24.342 -14.244  0.00  0.00    -0.293 OA
ATOM     26  C   UNL     1      37.607 -23.759 -13.683  0.00  0.00    +0.180 C 
BRANCH  26  27
ATOM     27  C   UNL     1      37.469 -23.715 -12.176  0.00  0.00    +0.202 C 
BRANCH  27  28
ATOM     28  O   UNL     1      38.368 -22.777 -11.622  0.00  0.00    -0.375 OA
ATOM     29  H   UNL     1      38.367 -22.861 -10.655  0.00  0.00    +0.211 HD
ENDBRANCH  27  28
ENDBRANCH  26  27
ENDBRANCH   7  26
TORSDOF 4
ENDMDL
MODEL 4
REMARK VINA RESULT:      -7.3     19.823     21.542
REMARK  Name = 5311067
REMARK  4 active torsions:
REMARK  status: ('A' for Active; 'I' for Inactive)
REMARK    1  A    between atoms: C_7  and  C_26
REMARK    2  A    between atoms: C_11  and  O_23
REMARK    3  A    between atoms: C_26  and  C_27
REMARK    4  A    between atoms: C_27  and  O_28
REMARK                            x       y       z     vdW  Elec       q    Type
REMARK                         _______ _______ _______ _____ _____    ______ ____
ROOT
ATOM      1  F   UNL     1      31.757  -7.781 -25.056  0.00  0.00    -0.237 F 
ATOM      2  O   UNL     1      32.257 -11.992 -22.645  0.00  0.00    -0.287 OA
ATOM      3  C   UNL     1      31.973  -4.328 -25.629  0.00  0.00    +0.009 C 
ATOM      4  C   UNL     1      33.054  -5.400 -25.863  0.00  0.00    +0.003 C 
ATOM      5  C   UNL     1      33.421  -6.178 -24.592  0.00  0.00    +0.033 C 
ATOM      6  C   UNL     1      32.139  -6.904 -24.052  0.00  0.00    +0.164 C 
ATOM      7  C   UNL     1      31.883  -3.756 -27.064  0.00  0.00    +0.060 C 
ATOM      8  C   UNL     1      34.147  -4.649 -26.621  0.00  0.00    +0.001 C 
ATOM      9  C   UNL     1      30.696  -5.046 -25.154  0.00  0.00    +0.032 C 
ATOM     10  C   UNL     1      33.363  -3.668 -27.527  0.00  0.00    +0.007 C 
ATOM     11  C   UNL     1      30.930  -5.930 -23.907  0.00  0.00    +0.141 C 
ATOM     12  C   UNL     1      32.456  -7.808 -22.797  0.00  0.00    +0.064 C 
ATOM     13  C   UNL     1      34.550  -7.182 -24.883  0.00  0.00    +0.007 C 
ATOM     14  C   UNL     1      32.390  -3.223 -24.624  0.00  0.00    +0.001 C 
ATOM     15  C   UNL     1      34.865  -8.062 -23.680  0.00  0.00    +0.023 C 
ATOM     16  C   UNL     1      33.613  -8.737 -23.181  0.00  0.00    -0.035 C 
ATOM     17  C   UNL     1      33.509  -4.012 -29.007  0.00  0.00    +0.000 C 
ATOM     18  C   UNL     1      32.879  -7.016 -21.539  0.00  0.00    +0.011 C 
ATOM     19  C   UNL     1      31.221  -8.605 -22.399  0.00  0.00    -0.017 C 
ATOM     20  C   UNL     1      33.543 -10.078 -23.133  0.00  0.00    +0.034 C 
ATOM     21  C   UNL     1      31.143  -9.938 -22.351  0.00  0.00    +0.038 C 
ATOM     22  C   UNL     1      32.310 -10.769 -22.703  0.00  0.00    +0.195 C 
ENDROOT
BRANCH  11  23
ATOM     23  O   UNL     1      31.058  -5.109 -22.757  0.00  0.00    -0.382 OA
ATOM     24  H   UNL     1      31.500  -4.280 -22.999  0.00  0.00    +0.210 HD
ENDBRANCH  11  23
BRANCH   7  26
ATOM     25  O   UNL     1      30.662  -1.921 -26.159  0.00  0.00    -0.293 OA
ATOM     26  C   UNL     1      31.177  -2.437 -27.149  0.00  0.00    +0.180 C 
BRANCH  26  27
ATOM     27  C   UNL     1      31.137  -1.786 -28.517  0.00  0.00    +0.202 C 
BRANCH  27  28
ATOM     28  O   UNL     1      30.398  -2.576 -29.423  0.00  0.00    -0.375 OA
ATOM     29  H   UNL     1      30.067  -3.366 -28.968  0.00  0.00    +0.211 HD
ENDBRANCH  27  28
ENDBRANCH  26  27
ENDBRANCH   7  26
TORSDOF 4
ENDMDL
MODEL 5
REMARK VINA RESULT:      -7.1     14.505     16.317
REMARK  Name = 5311067
REMARK  4 active torsions:
REMARK  status: ('A' for Active; 'I' for Inactive)
REMARK    1  A    between atoms: C_7  and  C_26
REMARK    2  A    between atoms: C_11  and  O_23
REMARK    3  A    between atoms: C_26  and  C_27
REMARK    4  A    between atoms: C_27  and  O_28
REMARK                            x       y       z     vdW  Elec       q    Type
REMARK                         _______ _______ _______ _____ _____    ______ ____
ROOT
ATOM      1  F   UNL     1      34.685 -12.526 -22.333  0.00  0.00    -0.237 F 
ATOM      2  O   UNL     1      35.243 -17.338 -21.760  0.00  0.00    -0.287 OA
ATOM      3  C   UNL     1      33.227  -9.543 -23.462  0.00  0.00    +0.009 C 
ATOM      4  C   UNL     1      32.855 -10.371 -22.217  0.00  0.00    +0.003 C 
ATOM      5  C   UNL     1      32.449 -11.814 -22.549  0.00  0.00    +0.033 C 
ATOM      6  C   UNL     1      33.651 -12.531 -23.257  0.00  0.00    +0.164 C 
ATOM      7  C   UNL     1      33.544  -8.195 -22.771  0.00  0.00    +0.060 C 
ATOM      8  C   UNL     1      31.874  -9.472 -21.467  0.00  0.00    +0.001 C 
ATOM      9  C   UNL     1      34.443 -10.214 -24.125  0.00  0.00    +0.032 C 
ATOM     10  C   UNL     1      32.421  -8.043 -21.709  0.00  0.00    +0.007 C 
ATOM     11  C   UNL     1      34.202 -11.705 -24.459  0.00  0.00    +0.141 C 
ATOM     12  C   UNL     1      33.346 -14.053 -23.544  0.00  0.00    +0.064 C 
ATOM     13  C   UNL     1      32.027 -12.560 -21.271  0.00  0.00    +0.007 C 
ATOM     14  C   UNL     1      32.067  -9.378 -24.477  0.00  0.00    +0.001 C 
ATOM     15  C   UNL     1      31.730 -14.032 -21.533  0.00  0.00    +0.023 C 
ATOM     16  C   UNL     1      32.900 -14.689 -22.221  0.00  0.00    -0.035 C 
ATOM     17  C   UNL     1      32.945  -7.405 -20.425  0.00  0.00    +0.000 C 
ATOM     18  C   UNL     1      32.228 -14.288 -24.585  0.00  0.00    +0.011 C 
ATOM     19  C   UNL     1      34.587 -14.743 -24.093  0.00  0.00    -0.017 C 
ATOM     20  C   UNL     1      33.514 -15.740 -21.653  0.00  0.00    +0.034 C 
ATOM     21  C   UNL     1      35.203 -15.787 -23.532  0.00  0.00    +0.038 C 
ATOM     22  C   UNL     1      34.697 -16.368 -22.275  0.00  0.00    +0.195 C 
ENDROOT
BRANCH  11  23
ATOM     23  O   UNL     1      33.356 -11.809 -25.593  0.00  0.00    -0.382 OA
ATOM     24  H   UNL     1      32.430 -11.739 -25.313  0.00  0.00    +0.210 HD
ENDBRANCH  11  23
BRANCH   7  26
ATOM     25  O   UNL     1      34.557  -6.868 -24.471  0.00  0.00    -0.293 OA
ATOM     26  C   UNL     1      33.604  -7.029 -23.711  0.00  0.00    +0.180 C 
BRANCH  26  27
ATOM     27  C   UNL     1      32.430  -6.072 -23.666  0.00  0.00    +0.202 C 
BRANCH  27  28
ATOM     28  O   UNL     1      31.963  -5.797 -24.969  0.00  0.00    -0.375 OA
ATOM     29  H   UNL     1      31.902  -6.624 -25.472  0.00  0.00    +0.211 HD
ENDBRANCH  27  28
ENDBRANCH  26  27
ENDBRANCH   7  26
TORSDOF 4
ENDMDL
MODEL 6
REMARK VINA RESULT:      -7.1     11.073     12.862
REMARK  Name = 5311067
REMARK  4 active torsions:
REMARK  status: ('A' for Active; 'I' for Inactive)
REMARK    1  A    between atoms: C_7  and  C_26
REMARK    2  A    between atoms: C_11  and  O_23
REMARK    3  A    between atoms: C_26  and  C_27
REMARK    4  A    between atoms: C_27  and  O_28
REMARK                            x       y       z     vdW  Elec       q    Type
REMARK                         _______ _______ _______ _____ _____    ______ ____
ROOT
ATOM      1  F   UNL     1      35.269 -15.854 -21.300  0.00  0.00    -0.237 F 
ATOM      2  O   UNL     1      37.120 -20.247 -20.264  0.00  0.00    -0.287 OA
ATOM      3  C   UNL     1      33.204 -13.494 -22.869  0.00  0.00    +0.009 C 
ATOM      4  C   UNL     1      32.893 -14.356 -21.631  0.00  0.00    +0.003 C 
ATOM      5  C   UNL     1      32.991 -15.863 -21.901  0.00  0.00    +0.033 C 
ATOM      6  C   UNL     1      34.451 -16.203 -22.363  0.00  0.00    +0.164 C 
ATOM      7  C   UNL     1      32.991 -12.092 -22.250  0.00  0.00    +0.060 C 
ATOM      8  C   UNL     1      31.580 -13.773 -21.109  0.00  0.00    +0.001 C 
ATOM      9  C   UNL     1      34.657 -13.784 -23.289  0.00  0.00    +0.032 C 
ATOM     10  C   UNL     1      31.714 -12.254 -21.381  0.00  0.00    +0.007 C 
ATOM     11  C   UNL     1      34.925 -15.288 -23.533  0.00  0.00    +0.141 C 
ATOM     12  C   UNL     1      34.660 -17.755 -22.568  0.00  0.00    +0.064 C 
ATOM     13  C   UNL     1      32.603 -16.661 -20.644  0.00  0.00    +0.007 C 
ATOM     14  C   UNL     1      32.232 -13.722 -24.055  0.00  0.00    +0.001 C 
ATOM     15  C   UNL     1      32.801 -18.160 -20.828  0.00  0.00    +0.023 C 
ATOM     16  C   UNL     1      34.209 -18.452 -21.280  0.00  0.00    -0.035 C 
ATOM     17  C   UNL     1      31.806 -11.446 -20.090  0.00  0.00    +0.000 C 
ATOM     18  C   UNL     1      33.850 -18.351 -23.741  0.00  0.00    +0.011 C 
ATOM     19  C   UNL     1      36.123 -18.052 -22.870  0.00  0.00    -0.017 C 
ATOM     20  C   UNL     1      35.003 -19.248 -20.543  0.00  0.00    +0.034 C 
ATOM     21  C   UNL     1      36.918 -18.840 -22.141  0.00  0.00    +0.038 C 
ATOM     22  C   UNL     1      36.404 -19.507 -20.930  0.00  0.00    +0.195 C 
ENDROOT
BRANCH  11  23
ATOM     23  O   UNL     1      34.347 -15.681 -24.768  0.00  0.00    -0.382 OA
ATOM     24  H   UNL     1      34.390 -16.646 -24.852  0.00  0.00    +0.210 HD
ENDBRANCH  11  23
BRANCH   7  26
ATOM     25  O   UNL     1      31.941 -10.177 -23.203  0.00  0.00    -0.293 OA
ATOM     26  C   UNL     1      32.858 -10.994 -23.262  0.00  0.00    +0.180 C 
BRANCH  26  27
ATOM     27  C   UNL     1      33.913 -10.954 -24.349  0.00  0.00    +0.202 C 
BRANCH  27  28
ATOM     28  O   UNL     1      35.022 -10.183 -23.939  0.00  0.00    -0.375 OA
ATOM     29  H   UNL     1      35.265 -10.424 -23.031  0.00  0.00    +0.211 HD
ENDBRANCH  27  28
ENDBRANCH  26  27
ENDBRANCH   7  26
TORSDOF 4
ENDMDL
MODEL 7
REMARK VINA RESULT:      -7.1      4.037      6.235
REMARK  Name = 5311067
REMARK  4 active torsions:
REMARK  status: ('A' for Active; 'I' for Inactive)
REMARK    1  A    between atoms: C_7  and  C_26
REMARK    2  A    between atoms: C_11  and  O_23
REMARK    3  A    between atoms: C_26  and  C_27
REMARK    4  A    between atoms: C_27  and  O_28
REMARK                            x       y       z     vdW  Elec       q    Type
REMARK                         _______ _______ _______ _____ _____    ______ ____
ROOT
ATOM      1  F   UNL     1      35.299 -21.729 -15.203  0.00  0.00    -0.237 F 
ATOM      2  O   UNL     1      35.185 -23.781 -10.779  0.00  0.00    -0.287 OA
ATOM      3  C   UNL     1      35.943 -21.468 -18.640  0.00  0.00    +0.009 C 
ATOM      4  C   UNL     1      34.718 -22.094 -17.947  0.00  0.00    +0.003 C 
ATOM      5  C   UNL     1      35.082 -23.242 -16.996  0.00  0.00    +0.033 C 
ATOM      6  C   UNL     1      36.033 -22.693 -15.876  0.00  0.00    +0.164 C 
ATOM      7  C   UNL     1      35.217 -20.408 -19.504  0.00  0.00    +0.060 C 
ATOM      8  C   UNL     1      33.748 -22.356 -19.099  0.00  0.00    +0.001 C 
ATOM      9  C   UNL     1      36.849 -20.877 -17.545  0.00  0.00    +0.032 C 
ATOM     10  C   UNL     1      33.973 -21.157 -20.053  0.00  0.00    +0.007 C 
ATOM     11  C   UNL     1      37.247 -21.913 -16.468  0.00  0.00    +0.141 C 
ATOM     12  C   UNL     1      36.376 -23.795 -14.798  0.00  0.00    +0.064 C 
ATOM     13  C   UNL     1      33.810 -23.864 -16.392  0.00  0.00    +0.007 C 
ATOM     14  C   UNL     1      36.733 -22.456 -19.536  0.00  0.00    +0.001 C 
ATOM     15  C   UNL     1      34.126 -24.928 -15.349  0.00  0.00    +0.023 C 
ATOM     16  C   UNL     1      35.048 -24.372 -14.294  0.00  0.00    -0.035 C 
ATOM     17  C   UNL     1      32.752 -20.243 -20.122  0.00  0.00    +0.000 C 
ATOM     18  C   UNL     1      37.228 -24.965 -15.340  0.00  0.00    +0.011 C 
ATOM     19  C   UNL     1      37.176 -23.182 -13.657  0.00  0.00    -0.017 C 
ATOM     20  C   UNL     1      34.670 -24.362 -13.005  0.00  0.00    +0.034 C 
ATOM     21  C   UNL     1      36.806 -23.167 -12.373  0.00  0.00    +0.038 C 
ATOM     22  C   UNL     1      35.527 -23.773 -11.957  0.00  0.00    +0.195 C 
ENDROOT
BRANCH  11  23
ATOM     23  O   UNL     1      38.227 -22.795 -16.992  0.00  0.00    -0.382 OA
ATOM     24  H   UNL     1      38.588 -22.425 -17.813  0.00  0.00    +0.210 HD
ENDBRANCH  11  23
BRANCH   7  26
ATOM     25  O   UNL     1      37.202 -19.416 -20.373  0.00  0.00    -0.293 OA
ATOM     26  C   UNL     1      36.065 -19.830 -20.596  0.00  0.00    +0.180 C 
BRANCH  26  27
ATOM     27  C   UNL     1      35.442 -19.787 -21.976  0.00  0.00    +0.202 C 
BRANCH  27  28
ATOM     28  O   UNL     1      34.985 -18.486 -22.276  0.00  0.00    -0.375 OA
ATOM     29  H   UNL     1      34.401 -18.177 -21.565  0.00  0.00    +0.211 HD
ENDBRANCH  27  28
ENDBRANCH  26  27
ENDBRANCH   7  26
TORSDOF 4
ENDMDL
MODEL 8
REMARK VINA RESULT:      -6.9     11.052     12.783
REMARK  Name = 5311067
REMARK  4 active torsions:
REMARK  status: ('A' for Active; 'I' for Inactive)
REMARK    1  A    between atoms: C_7  and  C_26
REMARK    2  A    between atoms: C_11  and  O_23
REMARK    3  A    between atoms: C_26  and  C_27
REMARK    4  A    between atoms: C_27  and  O_28
REMARK                            x       y       z     vdW  Elec       q    Type
REMARK                         _______ _______ _______ _____ _____    ______ ____
ROOT
ATOM      1  F   UNL     1      35.227 -15.837 -21.194  0.00  0.00    -0.237 F 
ATOM      2  O   UNL     1      37.111 -20.244 -20.289  0.00  0.00    -0.287 OA
ATOM      3  C   UNL     1      33.152 -13.445 -22.702  0.00  0.00    +0.009 C 
ATOM      4  C   UNL     1      32.839 -14.351 -21.495  0.00  0.00    +0.003 C 
ATOM      5  C   UNL     1      32.954 -15.847 -21.815  0.00  0.00    +0.033 C 
ATOM      6  C   UNL     1      34.421 -16.158 -22.275  0.00  0.00    +0.164 C 
ATOM      7  C   UNL     1      32.920 -12.067 -22.038  0.00  0.00    +0.060 C 
ATOM      8  C   UNL     1      31.517 -13.798 -20.965  0.00  0.00    +0.001 C 
ATOM      9  C   UNL     1      34.610 -13.708 -23.119  0.00  0.00    +0.032 C 
ATOM     10  C   UNL     1      31.638 -12.270 -21.186  0.00  0.00    +0.007 C 
ATOM     11  C   UNL     1      34.895 -15.200 -23.411  0.00  0.00    +0.141 C 
ATOM     12  C   UNL     1      34.646 -17.700 -22.530  0.00  0.00    +0.064 C 
ATOM     13  C   UNL     1      32.563 -16.690 -20.588  0.00  0.00    +0.007 C 
ATOM     14  C   UNL     1      32.192 -13.643 -23.903  0.00  0.00    +0.001 C 
ATOM     15  C   UNL     1      32.777 -18.181 -20.820  0.00  0.00    +0.023 C 
ATOM     16  C   UNL     1      34.192 -18.445 -21.269  0.00  0.00    -0.035 C 
ATOM     17  C   UNL     1      31.712 -11.504 -19.868  0.00  0.00    +0.000 C 
ATOM     18  C   UNL     1      33.851 -18.265 -23.729  0.00  0.00    +0.011 C 
ATOM     19  C   UNL     1      36.114 -17.973 -22.830  0.00  0.00    -0.017 C 
ATOM     20  C   UNL     1      34.987 -19.256 -20.553  0.00  0.00    +0.034 C 
ATOM     21  C   UNL     1      36.911 -18.778 -22.121  0.00  0.00    +0.038 C 
ATOM     22  C   UNL     1      36.394 -19.490 -20.937  0.00  0.00    +0.195 C 
ENDROOT
BRANCH  11  23
ATOM     23  O   UNL     1      34.331 -15.557 -24.663  0.00  0.00    -0.382 OA
ATOM     24  H   UNL     1      33.719 -14.862 -24.951  0.00  0.00    +0.210 HD
ENDBRANCH  11  23
BRANCH   7  26
ATOM     25  O   UNL     1      33.637 -10.733 -23.878  0.00  0.00    -0.293 OA
ATOM     26  C   UNL     1      32.786 -10.937 -23.014  0.00  0.00    +0.180 C 
BRANCH  26  27
ATOM     27  C   UNL     1      31.550 -10.072 -22.871  0.00  0.00    +0.202 C 
BRANCH  27  28
ATOM     28  O   UNL     1      31.868  -8.851 -22.237  0.00  0.00    -0.375 OA
ATOM     29  H   UNL     1      31.586  -8.886 -21.310  0.00  0.00    +0.211 HD
ENDBRANCH  27  28
ENDBRANCH  26  27
ENDBRANCH   7  26
TORSDOF 4
ENDMDL
MODEL 9
REMARK VINA RESULT:      -6.7      3.695      6.380
REMARK  Name = 5311067
REMARK  4 active torsions:
REMARK  status: ('A' for Active; 'I' for Inactive)
REMARK    1  A    between atoms: C_7  and  C_26
REMARK    2  A    between atoms: C_11  and  O_23
REMARK    3  A    between atoms: C_26  and  C_27
REMARK    4  A    between atoms: C_27  and  O_28
REMARK                            x       y       z     vdW  Elec       q    Type
REMARK                         _______ _______ _______ _____ _____    ______ ____
ROOT
ATOM      1  F   UNL     1      34.464 -20.972 -17.255  0.00  0.00    -0.237 F 
ATOM      2  O   UNL     1      33.938 -18.631 -21.501  0.00  0.00    -0.287 OA
ATOM      3  C   UNL     1      35.069 -23.664 -15.090  0.00  0.00    +0.009 C 
ATOM      4  C   UNL     1      36.098 -22.735 -15.762  0.00  0.00    +0.003 C 
ATOM      5  C   UNL     1      36.013 -22.747 -17.295  0.00  0.00    +0.033 C 
ATOM      6  C   UNL     1      34.584 -22.269 -17.730  0.00  0.00    +0.164 C 
ATOM      7  C   UNL     1      35.452 -23.420 -13.610  0.00  0.00    +0.060 C 
ATOM      8  C   UNL     1      37.415 -23.105 -15.083  0.00  0.00    +0.001 C 
ATOM      9  C   UNL     1      33.664 -23.161 -15.469  0.00  0.00    +0.032 C 
ATOM     10  C   UNL     1      37.005 -23.410 -13.620  0.00  0.00    +0.007 C 
ATOM     11  C   UNL     1      33.454 -23.056 -16.998  0.00  0.00    +0.141 C 
ATOM     12  C   UNL     1      34.449 -22.161 -19.299  0.00  0.00    +0.064 C 
ATOM     13  C   UNL     1      37.109 -21.852 -17.900  0.00  0.00    +0.007 C 
ATOM     14  C   UNL     1      35.237 -25.161 -15.459  0.00  0.00    +0.001 C 
ATOM     15  C   UNL     1      36.990 -21.738 -19.415  0.00  0.00    +0.023 C 
ATOM     16  C   UNL     1      35.604 -21.286 -19.800  0.00  0.00    -0.035 C 
ATOM     17  C   UNL     1      37.566 -22.382 -12.642  0.00  0.00    +0.000 C 
ATOM     18  C   UNL     1      34.526 -23.518 -20.035  0.00  0.00    +0.011 C 
ATOM     19  C   UNL     1      33.102 -21.555 -19.669  0.00  0.00    -0.017 C 
ATOM     20  C   UNL     1      35.435 -20.154 -20.502  0.00  0.00    +0.034 C 
ATOM     21  C   UNL     1      32.926 -20.428 -20.367  0.00  0.00    +0.038 C 
ATOM     22  C   UNL     1      34.087 -19.656 -20.845  0.00  0.00    +0.195 C 
ENDROOT
BRANCH  11  23
ATOM     23  O   UNL     1      33.285 -24.354 -17.546  0.00  0.00    -0.382 OA
ATOM     24  H   UNL     1      32.405 -24.691 -17.313  0.00  0.00    +0.210 HD
ENDBRANCH  11  23
BRANCH   7  26
ATOM     25  O   UNL     1      33.691 -24.697 -12.638  0.00  0.00    -0.293 OA
ATOM     26  C   UNL     1      34.893 -24.437 -12.662  0.00  0.00    +0.180 C 
BRANCH  26  27
ATOM     27  C   UNL     1      35.888 -25.115 -11.744  0.00  0.00    +0.202 C 
BRANCH  27  28
ATOM     28  O   UNL     1      35.403 -25.145 -10.418  0.00  0.00    -0.375 OA
ATOM     29  H   UNL     1      34.660 -25.766 -10.360  0.00  0.00    +0.211 HD
ENDBRANCH  27  28
ENDBRANCH  26  27
ENDBRANCH   7  26
TORSDOF 4
ENDMDL
