MODEL 1
REMARK VINA RESULT:     -10.7      0.000      0.000
REMARK  Name = 5327160
REMARK  3 active torsions:
REMARK  status: ('A' for Active; 'I' for Inactive)
REMARK    1  A    between atoms: C_5  and  C_12
REMARK    2  A    between atoms: C_8  and  C_19
REMARK    3  A    between atoms: C_19  and  O_20
REMARK                            x       y       z     vdW  Elec       q    Type
REMARK                         _______ _______ _______ _____ _____    ______ ____
ROOT
ATOM      1  O   UNL     1      33.723 -19.003 -21.417  0.00  0.00    -0.425 OA
ATOM      2  N   UNL     1      35.988 -18.925 -21.437  0.00  0.00    -0.368 NA
ATOM      3  C   UNL     1      34.186 -20.001 -20.608  0.00  0.00    +0.174 C 
ATOM      4  C   UNL     1      35.572 -19.951 -20.623  0.00  0.00    +0.151 C 
ATOM      5  C   UNL     1      34.860 -18.407 -21.873  0.00  0.00    +0.283 C 
ATOM      6  C   UNL     1      33.436 -20.920 -19.884  0.00  0.00    +0.046 C 
ATOM      7  C   UNL     1      36.293 -20.882 -19.862  0.00  0.00    +0.088 C 
ATOM      8  C   UNL     1      34.170 -21.843 -19.132  0.00  0.00    +0.075 C 
ATOM      9  C   UNL     1      35.570 -21.826 -19.119  0.00  0.00    -0.012 C 
ENDROOT
BRANCH   5  12
ATOM     10 CL   UNL     1      34.619 -19.092 -24.838  0.00  0.00    -0.082 Cl
ATOM     11 CL   UNL     1      34.712 -15.650 -20.574  0.00  0.00    -0.082 Cl
ATOM     12  C   UNL     1      34.653 -17.300 -22.763  0.00  0.00    +0.087 C 
ATOM     13  C   UNL     1      34.532 -17.509 -24.145  0.00  0.00    +0.064 C 
ATOM     14  C   UNL     1      34.572 -15.992 -22.265  0.00  0.00    +0.064 C 
ATOM     15  C   UNL     1      34.332 -16.432 -25.009  0.00  0.00    +0.012 C 
ATOM     16  C   UNL     1      34.373 -14.915 -23.129  0.00  0.00    +0.012 C 
ATOM     17  C   UNL     1      34.252 -15.136 -24.502  0.00  0.00    +0.002 C 
ENDBRANCH   5  12
BRANCH   8  19
ATOM     18  O   UNL     1      33.936 -23.923 -18.008  0.00  0.00    -0.245 OA
ATOM     19  C   UNL     1      33.461 -22.840 -18.345  0.00  0.00    +0.338 C 
BRANCH  19  20
ATOM     20  O   UNL     1      32.192 -22.480 -17.995  0.00  0.00    -0.477 OA
ATOM     21  H   UNL     1      31.461 -22.971 -18.316  0.00  0.00    +0.295 HD
ENDBRANCH  19  20
ENDBRANCH   8  19
TORSDOF 3
ENDMDL
MODEL 2
REMARK VINA RESULT:     -10.7      0.009      2.042
REMARK  Name = 5327160
REMARK  3 active torsions:
REMARK  status: ('A' for Active; 'I' for Inactive)
REMARK    1  A    between atoms: C_5  and  C_12
REMARK    2  A    between atoms: C_8  and  C_19
REMARK    3  A    between atoms: C_19  and  O_20
REMARK                            x       y       z     vdW  Elec       q    Type
REMARK                         _______ _______ _______ _____ _____    ______ ____
ROOT
ATOM      1  O   UNL     1      33.724 -19.005 -21.413  0.00  0.00    -0.425 OA
ATOM      2  N   UNL     1      35.990 -18.925 -21.431  0.00  0.00    -0.368 NA
ATOM      3  C   UNL     1      34.187 -20.002 -20.604  0.00  0.00    +0.174 C 
ATOM      4  C   UNL     1      35.574 -19.950 -20.617  0.00  0.00    +0.151 C 
ATOM      5  C   UNL     1      34.861 -18.408 -21.868  0.00  0.00    +0.283 C 
ATOM      6  C   UNL     1      33.437 -20.922 -19.881  0.00  0.00    +0.046 C 
ATOM      7  C   UNL     1      36.294 -20.880 -19.854  0.00  0.00    +0.088 C 
ATOM      8  C   UNL     1      34.171 -21.843 -19.126  0.00  0.00    +0.075 C 
ATOM      9  C   UNL     1      35.571 -21.825 -19.112  0.00  0.00    -0.012 C 
ENDROOT
BRANCH   5  12
ATOM     10 CL   UNL     1      34.700 -15.650 -20.570  0.00  0.00    -0.082 Cl
ATOM     11 CL   UNL     1      34.637 -19.094 -24.833  0.00  0.00    -0.082 Cl
ATOM     12  C   UNL     1      34.654 -17.301 -22.759  0.00  0.00    +0.087 C 
ATOM     13  C   UNL     1      34.564 -15.993 -22.261  0.00  0.00    +0.064 C 
ATOM     14  C   UNL     1      34.537 -17.512 -24.140  0.00  0.00    +0.064 C 
ATOM     15  C   UNL     1      34.362 -14.918 -23.127  0.00  0.00    +0.012 C 
ATOM     16  C   UNL     1      34.334 -16.436 -25.006  0.00  0.00    +0.012 C 
ATOM     17  C   UNL     1      34.247 -15.140 -24.499  0.00  0.00    +0.002 C 
ENDBRANCH   5  12
BRANCH   8  19
ATOM     18  O   UNL     1      33.942 -23.918 -17.992  0.00  0.00    -0.245 OA
ATOM     19  C   UNL     1      33.462 -22.841 -18.340  0.00  0.00    +0.338 C 
BRANCH  19  20
ATOM     20  O   UNL     1      32.188 -22.489 -18.004  0.00  0.00    -0.477 OA
ATOM     21  H   UNL     1      31.744 -21.822 -18.490  0.00  0.00    +0.295 HD
ENDBRANCH  19  20
ENDBRANCH   8  19
TORSDOF 3
ENDMDL
MODEL 3
REMARK VINA RESULT:      -9.6      2.826      6.998
REMARK  Name = 5327160
REMARK  3 active torsions:
REMARK  status: ('A' for Active; 'I' for Inactive)
REMARK    1  A    between atoms: C_5  and  C_12
REMARK    2  A    between atoms: C_8  and  C_19
REMARK    3  A    between atoms: C_19  and  O_20
REMARK                            x       y       z     vdW  Elec       q    Type
REMARK                         _______ _______ _______ _____ _____    ______ ____
ROOT
ATOM      1  O   UNL     1      34.475 -17.323 -21.186  0.00  0.00    -0.425 OA
ATOM      2  N   UNL     1      34.778 -18.455 -23.127  0.00  0.00    -0.368 NA
ATOM      3  C   UNL     1      34.270 -16.453 -22.219  0.00  0.00    +0.174 C 
ATOM      4  C   UNL     1      34.456 -17.149 -23.404  0.00  0.00    +0.151 C 
ATOM      5  C   UNL     1      34.774 -18.496 -21.811  0.00  0.00    +0.283 C 
ATOM      6  C   UNL     1      33.933 -15.107 -22.137  0.00  0.00    +0.046 C 
ATOM      7  C   UNL     1      34.300 -16.470 -24.621  0.00  0.00    +0.088 C 
ATOM      8  C   UNL     1      33.781 -14.445 -23.360  0.00  0.00    +0.075 C 
ATOM      9  C   UNL     1      33.961 -15.110 -24.579  0.00  0.00    -0.012 C 
ENDROOT
BRANCH   5  12
ATOM     10 CL   UNL     1      37.715 -19.109 -21.272  0.00  0.00    -0.082 Cl
ATOM     11 CL   UNL     1      32.329 -19.953 -20.712  0.00  0.00    -0.082 Cl
ATOM     12  C   UNL     1      35.039 -19.602 -20.936  0.00  0.00    +0.087 C 
ATOM     13  C   UNL     1      36.358 -19.966 -20.626  0.00  0.00    +0.064 C 
ATOM     14  C   UNL     1      33.983 -20.338 -20.379  0.00  0.00    +0.064 C 
ATOM     15  C   UNL     1      36.614 -21.043 -19.777  0.00  0.00    +0.012 C 
ATOM     16  C   UNL     1      34.240 -21.415 -19.530  0.00  0.00    +0.012 C 
ATOM     17  C   UNL     1      35.556 -21.766 -19.228  0.00  0.00    +0.002 C 
ENDBRANCH   5  12
BRANCH   8  19
ATOM     18  O   UNL     1      32.434 -12.565 -22.813  0.00  0.00    -0.245 OA
ATOM     19  C   UNL     1      33.430 -13.033 -23.363  0.00  0.00    +0.338 C 
BRANCH  19  20
ATOM     20  O   UNL     1      34.309 -12.238 -24.038  0.00  0.00    -0.477 OA
ATOM     21  H   UNL     1      35.193 -12.522 -24.166  0.00  0.00    +0.295 HD
ENDBRANCH  19  20
ENDBRANCH   8  19
TORSDOF 3
ENDMDL
MODEL 4
REMARK VINA RESULT:      -9.6      2.826      6.988
REMARK  Name = 5327160
REMARK  3 active torsions:
REMARK  status: ('A' for Active; 'I' for Inactive)
REMARK    1  A    between atoms: C_5  and  C_12
REMARK    2  A    between atoms: C_8  and  C_19
REMARK    3  A    between atoms: C_19  and  O_20
REMARK                            x       y       z     vdW  Elec       q    Type
REMARK                         _______ _______ _______ _____ _____    ______ ____
ROOT
ATOM      1  O   UNL     1      34.477 -17.323 -21.188  0.00  0.00    -0.425 OA
ATOM      2  N   UNL     1      34.779 -18.454 -23.129  0.00  0.00    -0.368 NA
ATOM      3  C   UNL     1      34.271 -16.452 -22.220  0.00  0.00    +0.174 C 
ATOM      4  C   UNL     1      34.456 -17.148 -23.405  0.00  0.00    +0.151 C 
ATOM      5  C   UNL     1      34.776 -18.495 -21.814  0.00  0.00    +0.283 C 
ATOM      6  C   UNL     1      33.933 -15.107 -22.136  0.00  0.00    +0.046 C 
ATOM      7  C   UNL     1      34.298 -16.469 -24.622  0.00  0.00    +0.088 C 
ATOM      8  C   UNL     1      33.781 -14.444 -23.359  0.00  0.00    +0.075 C 
ATOM      9  C   UNL     1      33.959 -15.109 -24.578  0.00  0.00    -0.012 C 
ENDROOT
BRANCH   5  12
ATOM     10 CL   UNL     1      32.332 -19.955 -20.712  0.00  0.00    -0.082 Cl
ATOM     11 CL   UNL     1      37.717 -19.109 -21.280  0.00  0.00    -0.082 Cl
ATOM     12  C   UNL     1      35.042 -19.603 -20.939  0.00  0.00    +0.087 C 
ATOM     13  C   UNL     1      33.987 -20.338 -20.378  0.00  0.00    +0.064 C 
ATOM     14  C   UNL     1      36.360 -19.964 -20.630  0.00  0.00    +0.064 C 
ATOM     15  C   UNL     1      34.246 -21.412 -19.528  0.00  0.00    +0.012 C 
ATOM     16  C   UNL     1      36.620 -21.039 -19.779  0.00  0.00    +0.012 C 
ATOM     17  C   UNL     1      35.562 -21.764 -19.228  0.00  0.00    +0.002 C 
ENDBRANCH   5  12
BRANCH   8  19
ATOM     18  O   UNL     1      32.434 -12.565 -22.810  0.00  0.00    -0.245 OA
ATOM     19  C   UNL     1      33.429 -13.032 -23.361  0.00  0.00    +0.338 C 
BRANCH  19  20
ATOM     20  O   UNL     1      34.307 -12.237 -24.037  0.00  0.00    -0.477 OA
ATOM     21  H   UNL     1      34.794 -11.582 -23.576  0.00  0.00    +0.295 HD
ENDBRANCH  19  20
ENDBRANCH   8  19
TORSDOF 3
ENDMDL
MODEL 5
REMARK VINA RESULT:      -9.4      4.759      6.993
REMARK  Name = 5327160
REMARK  3 active torsions:
REMARK  status: ('A' for Active; 'I' for Inactive)
REMARK    1  A    between atoms: C_5  and  C_12
REMARK    2  A    between atoms: C_8  and  C_19
REMARK    3  A    between atoms: C_19  and  O_20
REMARK                            x       y       z     vdW  Elec       q    Type
REMARK                         _______ _______ _______ _____ _____    ______ ____
ROOT
ATOM      1  O   UNL     1      34.206 -13.472 -23.060  0.00  0.00    -0.425 OA
ATOM      2  N   UNL     1      33.149 -13.324 -25.060  0.00  0.00    -0.368 NA
ATOM      3  C   UNL     1      34.264 -14.698 -23.659  0.00  0.00    +0.174 C 
ATOM      4  C   UNL     1      33.617 -14.604 -24.882  0.00  0.00    +0.151 C 
ATOM      5  C   UNL     1      33.525 -12.709 -23.960  0.00  0.00    +0.283 C 
ATOM      6  C   UNL     1      34.858 -15.853 -23.165  0.00  0.00    +0.046 C 
ATOM      7  C   UNL     1      33.541 -15.741 -25.698  0.00  0.00    +0.088 C 
ATOM      8  C   UNL     1      34.772 -16.979 -23.991  0.00  0.00    +0.075 C 
ATOM      9  C   UNL     1      34.127 -16.927 -25.233  0.00  0.00    -0.012 C 
ENDROOT
BRANCH   5  12
ATOM     10 CL   UNL     1      31.470 -12.236 -21.752  0.00  0.00    -0.082 Cl
ATOM     11 CL   UNL     1      35.197 -10.625 -25.434  0.00  0.00    -0.082 Cl
ATOM     12  C   UNL     1      33.320 -11.342 -23.568  0.00  0.00    +0.087 C 
ATOM     13  C   UNL     1      32.396 -11.019 -22.564  0.00  0.00    +0.064 C 
ATOM     14  C   UNL     1      34.039 -10.310 -24.186  0.00  0.00    +0.064 C 
ATOM     15  C   UNL     1      32.197  -9.692 -22.185  0.00  0.00    +0.012 C 
ATOM     16  C   UNL     1      33.840  -8.982 -23.808  0.00  0.00    +0.012 C 
ATOM     17  C   UNL     1      32.919  -8.673 -22.807  0.00  0.00    +0.002 C 
ENDBRANCH   5  12
BRANCH   8  19
ATOM     18  O   UNL     1      34.914 -19.344 -23.809  0.00  0.00    -0.245 OA
ATOM     19  C   UNL     1      35.366 -18.231 -23.547  0.00  0.00    +0.338 C 
BRANCH  19  20
ATOM     20  O   UNL     1      36.497 -18.080 -22.799  0.00  0.00    -0.477 OA
ATOM     21  H   UNL     1      36.747 -17.229 -22.496  0.00  0.00    +0.295 HD
ENDBRANCH  19  20
ENDBRANCH   8  19
TORSDOF 3
ENDMDL
MODEL 6
REMARK VINA RESULT:      -9.4      4.796      6.973
REMARK  Name = 5327160
REMARK  3 active torsions:
REMARK  status: ('A' for Active; 'I' for Inactive)
REMARK    1  A    between atoms: C_5  and  C_12
REMARK    2  A    between atoms: C_8  and  C_19
REMARK    3  A    between atoms: C_19  and  O_20
REMARK                            x       y       z     vdW  Elec       q    Type
REMARK                         _______ _______ _______ _____ _____    ______ ____
ROOT
ATOM      1  O   UNL     1      34.212 -13.385 -23.115  0.00  0.00    -0.425 OA
ATOM      2  N   UNL     1      33.177 -13.224 -25.126  0.00  0.00    -0.368 NA
ATOM      3  C   UNL     1      34.251 -14.614 -23.709  0.00  0.00    +0.174 C 
ATOM      4  C   UNL     1      33.617 -14.512 -24.939  0.00  0.00    +0.151 C 
ATOM      5  C   UNL     1      33.555 -12.612 -24.025  0.00  0.00    +0.283 C 
ATOM      6  C   UNL     1      34.816 -15.779 -23.204  0.00  0.00    +0.046 C 
ATOM      7  C   UNL     1      33.526 -15.651 -25.751  0.00  0.00    +0.088 C 
ATOM      8  C   UNL     1      34.715 -16.906 -24.026  0.00  0.00    +0.075 C 
ATOM      9  C   UNL     1      34.083 -16.847 -25.275  0.00  0.00    -0.012 C 
ENDROOT
BRANCH   5  12
ATOM     10 CL   UNL     1      35.295 -10.569 -25.481  0.00  0.00    -0.082 Cl
ATOM     11 CL   UNL     1      31.477 -12.086 -21.853  0.00  0.00    -0.082 Cl
ATOM     12  C   UNL     1      33.375 -11.240 -23.641  0.00  0.00    +0.087 C 
ATOM     13  C   UNL     1      34.128 -10.225 -24.250  0.00  0.00    +0.064 C 
ATOM     14  C   UNL     1      32.445 -10.894 -22.651  0.00  0.00    +0.064 C 
ATOM     15  C   UNL     1      33.953  -8.893 -23.875  0.00  0.00    +0.012 C 
ATOM     16  C   UNL     1      32.270  -9.561 -22.276  0.00  0.00    +0.012 C 
ATOM     17  C   UNL     1      33.025  -8.560 -22.890  0.00  0.00    +0.002 C 
ENDBRANCH   5  12
BRANCH   8  19
ATOM     18  O   UNL     1      34.778 -19.270 -23.788  0.00  0.00    -0.245 OA
ATOM     19  C   UNL     1      35.280 -18.168 -23.572  0.00  0.00    +0.338 C 
BRANCH  19  20
ATOM     20  O   UNL     1      36.442 -18.041 -22.869  0.00  0.00    -0.477 OA
ATOM     21  H   UNL     1      36.523 -18.441 -22.025  0.00  0.00    +0.295 HD
ENDBRANCH  19  20
ENDBRANCH   8  19
TORSDOF 3
ENDMDL
MODEL 7
REMARK VINA RESULT:      -9.3      5.424      9.250
REMARK  Name = 5327160
REMARK  3 active torsions:
REMARK  status: ('A' for Active; 'I' for Inactive)
REMARK    1  A    between atoms: C_5  and  C_12
REMARK    2  A    between atoms: C_8  and  C_19
REMARK    3  A    between atoms: C_19  and  O_20
REMARK                            x       y       z     vdW  Elec       q    Type
REMARK                         _______ _______ _______ _____ _____    ______ ____
ROOT
ATOM      1  O   UNL     1      33.939 -12.982 -23.856  0.00  0.00    -0.425 OA
ATOM      2  N   UNL     1      32.321 -13.769 -22.476  0.00  0.00    -0.368 NA
ATOM      3  C   UNL     1      33.206 -11.917 -23.415  0.00  0.00    +0.174 C 
ATOM      4  C   UNL     1      32.217 -12.403 -22.571  0.00  0.00    +0.151 C 
ATOM      5  C   UNL     1      33.347 -14.050 -23.250  0.00  0.00    +0.283 C 
ATOM      6  C   UNL     1      33.388 -10.576 -23.731  0.00  0.00    +0.046 C 
ATOM      7  C   UNL     1      31.324 -11.497 -21.982  0.00  0.00    +0.088 C 
ATOM      8  C   UNL     1      32.488  -9.686 -23.136  0.00  0.00    +0.075 C 
ATOM      9  C   UNL     1      31.476 -10.135 -22.278  0.00  0.00    -0.012 C 
ENDROOT
BRANCH   5  12
ATOM     10 CL   UNL     1      34.743 -15.463 -20.932  0.00  0.00    -0.082 Cl
ATOM     11 CL   UNL     1      33.054 -15.022 -26.128  0.00  0.00    -0.082 Cl
ATOM     12  C   UNL     1      33.937 -15.324 -23.550  0.00  0.00    +0.087 C 
ATOM     13  C   UNL     1      34.604 -16.053 -22.553  0.00  0.00    +0.064 C 
ATOM     14  C   UNL     1      33.858 -15.858 -24.843  0.00  0.00    +0.064 C 
ATOM     15  C   UNL     1      35.178 -17.290 -22.846  0.00  0.00    +0.012 C 
ATOM     16  C   UNL     1      34.433 -17.096 -25.136  0.00  0.00    +0.012 C 
ATOM     17  C   UNL     1      35.092 -17.812 -24.136  0.00  0.00    +0.002 C 
ENDBRANCH   5  12
BRANCH   8  19
ATOM     18  O   UNL     1      33.577  -7.575 -23.101  0.00  0.00    -0.245 OA
ATOM     19  C   UNL     1      32.608  -8.263 -23.415  0.00  0.00    +0.338 C 
BRANCH  19  20
ATOM     20  O   UNL     1      31.539  -7.729 -24.072  0.00  0.00    -0.477 OA
ATOM     21  H   UNL     1      30.704  -8.151 -24.027  0.00  0.00    +0.295 HD
ENDBRANCH  19  20
ENDBRANCH   8  19
TORSDOF 3
ENDMDL
MODEL 8
REMARK VINA RESULT:      -9.3      5.422      9.103
REMARK  Name = 5327160
REMARK  3 active torsions:
REMARK  status: ('A' for Active; 'I' for Inactive)
REMARK    1  A    between atoms: C_5  and  C_12
REMARK    2  A    between atoms: C_8  and  C_19
REMARK    3  A    between atoms: C_19  and  O_20
REMARK                            x       y       z     vdW  Elec       q    Type
REMARK                         _______ _______ _______ _____ _____    ______ ____
ROOT
ATOM      1  O   UNL     1      33.945 -12.982 -23.853  0.00  0.00    -0.425 OA
ATOM      2  N   UNL     1      32.323 -13.770 -22.479  0.00  0.00    -0.368 NA
ATOM      3  C   UNL     1      33.212 -11.918 -23.412  0.00  0.00    +0.174 C 
ATOM      4  C   UNL     1      32.220 -12.404 -22.572  0.00  0.00    +0.151 C 
ATOM      5  C   UNL     1      33.351 -14.051 -23.251  0.00  0.00    +0.283 C 
ATOM      6  C   UNL     1      33.395 -10.577 -23.726  0.00  0.00    +0.046 C 
ATOM      7  C   UNL     1      31.326 -11.498 -21.984  0.00  0.00    +0.088 C 
ATOM      8  C   UNL     1      32.495  -9.687 -23.132  0.00  0.00    +0.075 C 
ATOM      9  C   UNL     1      31.480 -10.135 -22.278  0.00  0.00    -0.012 C 
ENDROOT
BRANCH   5  12
ATOM     10 CL   UNL     1      33.061 -15.022 -26.130  0.00  0.00    -0.082 Cl
ATOM     11 CL   UNL     1      34.746 -15.463 -20.933  0.00  0.00    -0.082 Cl
ATOM     12  C   UNL     1      33.941 -15.325 -23.550  0.00  0.00    +0.087 C 
ATOM     13  C   UNL     1      33.861 -15.861 -24.845  0.00  0.00    +0.064 C 
ATOM     14  C   UNL     1      34.604 -16.054 -22.554  0.00  0.00    +0.064 C 
ATOM     15  C   UNL     1      34.433 -17.099 -25.134  0.00  0.00    +0.012 C 
ATOM     16  C   UNL     1      35.176 -17.294 -22.844  0.00  0.00    +0.012 C 
ATOM     17  C   UNL     1      35.090 -17.815 -24.135  0.00  0.00    +0.002 C 
ENDBRANCH   5  12
BRANCH   8  19
ATOM     18  O   UNL     1      31.782  -7.603 -24.024  0.00  0.00    -0.245 OA
ATOM     19  C   UNL     1      32.617  -8.263 -23.409  0.00  0.00    +0.338 C 
BRANCH  19  20
ATOM     20  O   UNL     1      33.757  -7.693 -22.922  0.00  0.00    -0.477 OA
ATOM     21  H   UNL     1      34.506  -8.227 -22.742  0.00  0.00    +0.295 HD
ENDBRANCH  19  20
ENDBRANCH   8  19
TORSDOF 3
ENDMDL
MODEL 9
REMARK VINA RESULT:      -9.1      1.515      2.902
REMARK  Name = 5327160
REMARK  3 active torsions:
REMARK  status: ('A' for Active; 'I' for Inactive)
REMARK    1  A    between atoms: C_5  and  C_12
REMARK    2  A    between atoms: C_8  and  C_19
REMARK    3  A    between atoms: C_19  and  O_20
REMARK                            x       y       z     vdW  Elec       q    Type
REMARK                         _______ _______ _______ _____ _____    ______ ____
ROOT
ATOM      1  O   UNL     1      35.756 -19.241 -21.087  0.00  0.00    -0.425 OA
ATOM      2  N   UNL     1      33.578 -19.776 -21.420  0.00  0.00    -0.368 NA
ATOM      3  C   UNL     1      35.417 -20.210 -20.186  0.00  0.00    +0.174 C 
ATOM      4  C   UNL     1      34.084 -20.535 -20.393  0.00  0.00    +0.151 C 
ATOM      5  C   UNL     1      34.604 -19.038 -21.786  0.00  0.00    +0.283 C 
ATOM      6  C   UNL     1      36.232 -20.791 -19.222  0.00  0.00    +0.046 C 
ATOM      7  C   UNL     1      33.492 -21.516 -19.585  0.00  0.00    +0.088 C 
ATOM      8  C   UNL     1      35.625 -21.767 -18.424  0.00  0.00    +0.075 C 
ATOM      9  C   UNL     1      34.283 -22.124 -18.600  0.00  0.00    -0.012 C 
ENDROOT
BRANCH   5  12
ATOM     10 CL   UNL     1      34.596 -16.128 -20.863  0.00  0.00    -0.082 Cl
ATOM     11 CL   UNL     1      34.768 -20.091 -24.645  0.00  0.00    -0.082 Cl
ATOM     12  C   UNL     1      34.687 -18.046 -22.821  0.00  0.00    +0.087 C 
ATOM     13  C   UNL     1      34.688 -16.680 -22.501  0.00  0.00    +0.064 C 
ATOM     14  C   UNL     1      34.764 -18.428 -24.167  0.00  0.00    +0.064 C 
ATOM     15  C   UNL     1      34.766 -15.718 -23.507  0.00  0.00    +0.012 C 
ATOM     16  C   UNL     1      34.843 -17.464 -25.174  0.00  0.00    +0.012 C 
ATOM     17  C   UNL     1      34.844 -16.109 -24.843  0.00  0.00    +0.002 C 
ENDBRANCH   5  12
BRANCH   8  19
ATOM     18  O   UNL     1      37.597 -22.198 -17.171  0.00  0.00    -0.245 OA
ATOM     19  C   UNL     1      36.409 -22.424 -17.389  0.00  0.00    +0.338 C 
BRANCH  19  20
ATOM     20  O   UNL     1      35.712 -23.337 -16.653  0.00  0.00    -0.477 OA
ATOM     21  H   UNL     1      35.390 -24.118 -17.060  0.00  0.00    +0.295 HD
ENDBRANCH  19  20
ENDBRANCH   8  19
TORSDOF 3
ENDMDL
