MODEL 1
REMARK VINA RESULT:     -10.2      0.000      0.000
REMARK  Name = 16122580
REMARK  13 active torsions:
REMARK  status: ('A' for Active; 'I' for Inactive)
REMARK    1  A    between atoms: S_1  and  C_4
REMARK    2  A    between atoms: S_1  and  N_19
REMARK    3  A    between atoms: C_12  and  O_14
REMARK    4  A    between atoms: O_14  and  C_15
REMARK    5  A    between atoms: C_15  and  C_16
REMARK    6  A    between atoms: C_16  and  C_17
REMARK    7  A    between atoms: N_19  and  C_21
REMARK    8  A    between atoms: C_21  and  C_23
REMARK    9  A    between atoms: C_21  and  C_26
REMARK   10  A    between atoms: C_23  and  O_24
REMARK   11  A    between atoms: C_26  and  C_27
REMARK   12  A    between atoms: C_27  and  C_29
REMARK   13  A    between atoms: C_29  and  O_30
REMARK                            x       y       z     vdW  Elec       q    Type
REMARK                         _______ _______ _______ _____ _____    ______ ____
ROOT
ATOM      1  S   UNL     1      36.304 -23.761 -15.315  0.00  0.00    +0.061 S 
ATOM      2  O   UNL     1      35.856 -22.990 -14.172  0.00  0.00    -0.153 OA
ATOM      3  O   UNL     1      35.730 -25.064 -15.587  0.00  0.00    -0.153 OA
ENDROOT
BRANCH   1   4
ATOM      4  C   UNL     1      36.060 -22.778 -16.764  0.00  0.00    +0.122 C 
ATOM      5  C   UNL     1      34.582 -21.920 -18.495  0.00  0.00    +0.002 C 
ATOM      6  C   UNL     1      35.670 -21.218 -19.066  0.00  0.00    +0.003 C 
ATOM      7  C   UNL     1      34.794 -22.696 -17.345  0.00  0.00    +0.020 C 
ATOM      8  C   UNL     1      37.130 -22.087 -17.326  0.00  0.00    +0.020 C 
ATOM      9  C   UNL     1      36.938 -21.312 -18.469  0.00  0.00    +0.001 C 
ATOM     10  C   UNL     1      35.459 -20.442 -20.217  0.00  0.00    +0.037 C 
ATOM     11  C   UNL     1      33.315 -21.825 -19.093  0.00  0.00    +0.003 C 
ATOM     12  C   UNL     1      34.193 -20.359 -20.798  0.00  0.00    +0.139 C 
ATOM     13  C   UNL     1      33.123 -21.050 -20.236  0.00  0.00    +0.037 C 
BRANCH  12  14
ATOM     14  O   UNL     1      34.003 -19.601 -21.913  0.00  0.00    -0.475 OA
BRANCH  14  15
ATOM     15  C   UNL     1      34.900 -18.511 -22.117  0.00  0.00    +0.205 C 
BRANCH  15  16
ATOM     16  C   UNL     1      35.548 -18.657 -23.486  0.00  0.00    +0.047 C 
BRANCH  16  17
ATOM     17  C   UNL     1      34.521 -18.549 -24.610  0.00  0.00    +0.004 C 
ATOM     18  C   UNL     1      34.430 -17.130 -25.146  0.00  0.00    +0.000 C 
ENDBRANCH  16  17
ENDBRANCH  15  16
ENDBRANCH  14  15
ENDBRANCH  12  14
ENDBRANCH   1   4
BRANCH   1  19
ATOM     19  N   UNL     1      37.998 -23.904 -15.271  0.00  0.00    -0.170 NA
ATOM     20  H   UNL     1      38.353 -23.056 -14.829  0.00  0.00    +0.149 HD
BRANCH  19  21
ATOM     21  C   UNL     1      38.624 -25.046 -14.568  0.00  0.00    +0.174 C 
BRANCH  21  23
ATOM     22  O   UNL     1      41.024 -24.679 -14.430  0.00  0.00    -0.249 OA
ATOM     23  C   UNL     1      40.060 -25.145 -15.024  0.00  0.00    +0.330 C 
BRANCH  23  24
ATOM     24  O   UNL     1      40.181 -25.840 -16.185  0.00  0.00    -0.479 OA
ATOM     25  H   UNL     1      40.513 -26.716 -16.174  0.00  0.00    +0.295 HD
ENDBRANCH  23  24
ENDBRANCH  21  23
BRANCH  21  26
ATOM     26  C   UNL     1      38.443 -24.906 -13.052  0.00  0.00    +0.040 C 
BRANCH  26  27
ATOM     27  C   UNL     1      37.303 -25.711 -12.424  0.00  0.00    +0.111 C 
BRANCH  27  29
ATOM     28  O   UNL     1      36.725 -24.170 -10.655  0.00  0.00    -0.250 OA
ATOM     29  C   UNL     1      36.363 -24.885 -11.582  0.00  0.00    +0.314 C 
BRANCH  29  30
ATOM     30  O   UNL     1      35.065 -25.030 -11.946  0.00  0.00    -0.480 OA
ATOM     31  H   UNL     1      34.388 -24.970 -11.300  0.00  0.00    +0.295 HD
ENDBRANCH  29  30
ENDBRANCH  27  29
ENDBRANCH  26  27
ENDBRANCH  21  26
ENDBRANCH  19  21
ENDBRANCH   1  19
TORSDOF 13
ENDMDL
MODEL 2
REMARK VINA RESULT:      -9.9      1.345      2.192
REMARK  Name = 16122580
REMARK  13 active torsions:
REMARK  status: ('A' for Active; 'I' for Inactive)
REMARK    1  A    between atoms: S_1  and  C_4
REMARK    2  A    between atoms: S_1  and  N_19
REMARK    3  A    between atoms: C_12  and  O_14
REMARK    4  A    between atoms: O_14  and  C_15
REMARK    5  A    between atoms: C_15  and  C_16
REMARK    6  A    between atoms: C_16  and  C_17
REMARK    7  A    between atoms: N_19  and  C_21
REMARK    8  A    between atoms: C_21  and  C_23
REMARK    9  A    between atoms: C_21  and  C_26
REMARK   10  A    between atoms: C_23  and  O_24
REMARK   11  A    between atoms: C_26  and  C_27
REMARK   12  A    between atoms: C_27  and  C_29
REMARK   13  A    between atoms: C_29  and  O_30
REMARK                            x       y       z     vdW  Elec       q    Type
REMARK                         _______ _______ _______ _____ _____    ______ ____
ROOT
ATOM      1  S   UNL     1      35.023 -24.188 -15.237  0.00  0.00    +0.061 S 
ATOM      2  O   UNL     1      34.016 -23.790 -14.273  0.00  0.00    -0.153 OA
ATOM      3  O   UNL     1      35.128 -25.574 -15.652  0.00  0.00    -0.153 OA
ENDROOT
BRANCH   1   4
ATOM      4  C   UNL     1      34.782 -23.229 -16.703  0.00  0.00    +0.122 C 
ATOM      5  C   UNL     1      35.684 -21.778 -18.434  0.00  0.00    +0.002 C 
ATOM      6  C   UNL     1      34.403 -21.704 -19.029  0.00  0.00    +0.003 C 
ATOM      7  C   UNL     1      35.857 -22.544 -17.270  0.00  0.00    +0.020 C 
ATOM      8  C   UNL     1      33.522 -23.156 -17.288  0.00  0.00    +0.020 C 
ATOM      9  C   UNL     1      33.332 -22.399 -18.444  0.00  0.00    +0.001 C 
ATOM     10  C   UNL     1      34.229 -20.937 -20.193  0.00  0.00    +0.037 C 
ATOM     11  C   UNL     1      36.754 -21.082 -19.020  0.00  0.00    +0.003 C 
ATOM     12  C   UNL     1      35.304 -20.253 -20.762  0.00  0.00    +0.139 C 
ATOM     13  C   UNL     1      36.564 -20.325 -20.176  0.00  0.00    +0.037 C 
BRANCH  12  14
ATOM     14  O   UNL     1      35.120 -19.515 -21.891  0.00  0.00    -0.475 OA
BRANCH  14  15
ATOM     15  C   UNL     1      35.920 -18.343 -22.038  0.00  0.00    +0.205 C 
BRANCH  15  16
ATOM     16  C   UNL     1      35.050 -17.219 -22.585  0.00  0.00    +0.047 C 
BRANCH  16  17
ATOM     17  C   UNL     1      34.039 -16.735 -21.548  0.00  0.00    +0.004 C 
ATOM     18  C   UNL     1      34.664 -15.740 -20.584  0.00  0.00    +0.000 C 
ENDBRANCH  16  17
ENDBRANCH  15  16
ENDBRANCH  14  15
ENDBRANCH  12  14
ENDBRANCH   1   4
BRANCH   1  19
ATOM     19  N   UNL     1      36.549 -23.653 -14.714  0.00  0.00    -0.170 NA
ATOM     20  H   UNL     1      36.393 -22.806 -14.168  0.00  0.00    +0.149 HD
BRANCH  19  21
ATOM     21  C   UNL     1      37.401 -24.541 -13.892  0.00  0.00    +0.174 C 
BRANCH  21  23
ATOM     22  O   UNL     1      39.651 -24.349 -14.795  0.00  0.00    -0.249 OA
ATOM     23  C   UNL     1      38.589 -24.954 -14.729  0.00  0.00    +0.330 C 
BRANCH  23  24
ATOM     24  O   UNL     1      38.360 -26.109 -15.407  0.00  0.00    -0.479 OA
ATOM     25  H   UNL     1      38.850 -26.880 -15.196  0.00  0.00    +0.295 HD
ENDBRANCH  23  24
ENDBRANCH  21  23
BRANCH  21  26
ATOM     26  C   UNL     1      37.759 -23.862 -12.566  0.00  0.00    +0.040 C 
BRANCH  26  27
ATOM     27  C   UNL     1      36.605 -23.212 -11.799  0.00  0.00    +0.111 C 
BRANCH  27  29
ATOM     28  O   UNL     1      35.990 -24.279  -9.722  0.00  0.00    -0.250 OA
ATOM     29  C   UNL     1      35.831 -24.171 -10.931  0.00  0.00    +0.314 C 
BRANCH  29  30
ATOM     30  O   UNL     1      34.946 -24.920 -11.635  0.00  0.00    -0.480 OA
ATOM     31  H   UNL     1      34.349 -25.486 -11.185  0.00  0.00    +0.295 HD
ENDBRANCH  29  30
ENDBRANCH  27  29
ENDBRANCH  26  27
ENDBRANCH  21  26
ENDBRANCH  19  21
ENDBRANCH   1  19
TORSDOF 13
ENDMDL
MODEL 3
REMARK VINA RESULT:      -9.9      3.979      6.028
REMARK  Name = 16122580
REMARK  13 active torsions:
REMARK  status: ('A' for Active; 'I' for Inactive)
REMARK    1  A    between atoms: S_1  and  C_4
REMARK    2  A    between atoms: S_1  and  N_19
REMARK    3  A    between atoms: C_12  and  O_14
REMARK    4  A    between atoms: O_14  and  C_15
REMARK    5  A    between atoms: C_15  and  C_16
REMARK    6  A    between atoms: C_16  and  C_17
REMARK    7  A    between atoms: N_19  and  C_21
REMARK    8  A    between atoms: C_21  and  C_23
REMARK    9  A    between atoms: C_21  and  C_26
REMARK   10  A    between atoms: C_23  and  O_24
REMARK   11  A    between atoms: C_26  and  C_27
REMARK   12  A    between atoms: C_27  and  C_29
REMARK   13  A    between atoms: C_29  and  O_30
REMARK                            x       y       z     vdW  Elec       q    Type
REMARK                         _______ _______ _______ _____ _____    ______ ____
ROOT
ATOM      1  S   UNL     1      33.837 -23.149 -17.905  0.00  0.00    +0.061 S 
ATOM      2  O   UNL     1      33.567 -24.346 -18.677  0.00  0.00    -0.153 OA
ATOM      3  O   UNL     1      35.005 -23.081 -17.048  0.00  0.00    -0.153 OA
ENDROOT
BRANCH   1   4
ATOM      4  C   UNL     1      33.944 -21.789 -19.029  0.00  0.00    +0.122 C 
ATOM      5  C   UNL     1      35.296 -20.229 -20.316  0.00  0.00    +0.002 C 
ATOM      6  C   UNL     1      34.115 -19.627 -20.813  0.00  0.00    +0.003 C 
ATOM      7  C   UNL     1      35.192 -21.309 -19.424  0.00  0.00    +0.020 C 
ATOM      8  C   UNL     1      32.783 -21.197 -19.517  0.00  0.00    +0.020 C 
ATOM      9  C   UNL     1      32.866 -20.123 -20.404  0.00  0.00    +0.001 C 
ATOM     10  C   UNL     1      34.218 -18.547 -21.705  0.00  0.00    +0.037 C 
ATOM     11  C   UNL     1      36.544 -19.732 -20.726  0.00  0.00    +0.003 C 
ATOM     12  C   UNL     1      35.466 -18.067 -22.102  0.00  0.00    +0.139 C 
ATOM     13  C   UNL     1      36.627 -18.659 -21.612  0.00  0.00    +0.037 C 
BRANCH  12  14
ATOM     14  O   UNL     1      35.549 -17.021 -22.968  0.00  0.00    -0.475 OA
BRANCH  14  15
ATOM     15  C   UNL     1      34.376 -16.229 -23.144  0.00  0.00    +0.205 C 
BRANCH  15  16
ATOM     16  C   UNL     1      34.600 -14.868 -22.502  0.00  0.00    +0.047 C 
BRANCH  16  17
ATOM     17  C   UNL     1      34.028 -14.812 -21.087  0.00  0.00    +0.004 C 
ATOM     18  C   UNL     1      32.623 -15.387 -21.032  0.00  0.00    +0.000 C 
ENDBRANCH  16  17
ENDBRANCH  15  16
ENDBRANCH  14  15
ENDBRANCH  12  14
ENDBRANCH   1   4
BRANCH   1  19
ATOM     19  N   UNL     1      32.460 -22.743 -16.994  0.00  0.00    -0.170 NA
ATOM     20  H   UNL     1      31.708 -22.568 -17.659  0.00  0.00    +0.149 HD
BRANCH  19  21
ATOM     21  C   UNL     1      31.932 -23.696 -15.992  0.00  0.00    +0.174 C 
BRANCH  21  23
ATOM     22  O   UNL     1      31.668 -23.249 -13.615  0.00  0.00    -0.249 OA
ATOM     23  C   UNL     1      32.362 -23.221 -14.624  0.00  0.00    +0.330 C 
BRANCH  23  24
ATOM     24  O   UNL     1      33.642 -22.765 -14.620  0.00  0.00    -0.479 OA
ATOM     25  H   UNL     1      33.829 -21.899 -14.315  0.00  0.00    +0.295 HD
ENDBRANCH  23  24
ENDBRANCH  21  23
BRANCH  21  26
ATOM     26  C   UNL     1      30.418 -23.866 -16.162  0.00  0.00    +0.040 C 
BRANCH  26  27
ATOM     27  C   UNL     1      29.624 -22.602 -16.500  0.00  0.00    +0.111 C 
BRANCH  27  29
ATOM     28  O   UNL     1      27.280 -22.135 -16.149  0.00  0.00    -0.250 OA
ATOM     29  C   UNL     1      28.143 -22.835 -16.663  0.00  0.00    +0.314 C 
BRANCH  29  30
ATOM     30  O   UNL     1      27.863 -23.920 -17.428  0.00  0.00    -0.480 OA
ATOM     31  H   UNL     1      28.464 -24.192 -18.093  0.00  0.00    +0.295 HD
ENDBRANCH  29  30
ENDBRANCH  27  29
ENDBRANCH  26  27
ENDBRANCH  21  26
ENDBRANCH  19  21
ENDBRANCH   1  19
TORSDOF 13
ENDMDL
MODEL 4
REMARK VINA RESULT:      -9.5      4.623     10.709
REMARK  Name = 16122580
REMARK  13 active torsions:
REMARK  status: ('A' for Active; 'I' for Inactive)
REMARK    1  A    between atoms: S_1  and  C_4
REMARK    2  A    between atoms: S_1  and  N_19
REMARK    3  A    between atoms: C_12  and  O_14
REMARK    4  A    between atoms: O_14  and  C_15
REMARK    5  A    between atoms: C_15  and  C_16
REMARK    6  A    between atoms: C_16  and  C_17
REMARK    7  A    between atoms: N_19  and  C_21
REMARK    8  A    between atoms: C_21  and  C_23
REMARK    9  A    between atoms: C_21  and  C_26
REMARK   10  A    between atoms: C_23  and  O_24
REMARK   11  A    between atoms: C_26  and  C_27
REMARK   12  A    between atoms: C_27  and  C_29
REMARK   13  A    between atoms: C_29  and  O_30
REMARK                            x       y       z     vdW  Elec       q    Type
REMARK                         _______ _______ _______ _____ _____    ______ ____
ROOT
ATOM      1  S   UNL     1      35.469 -18.162 -22.568  0.00  0.00    +0.061 S 
ATOM      2  O   UNL     1      36.911 -18.297 -22.508  0.00  0.00    -0.153 OA
ATOM      3  O   UNL     1      34.771 -18.339 -23.827  0.00  0.00    -0.153 OA
ENDROOT
BRANCH   1   4
ATOM      4  C   UNL     1      34.766 -19.313 -21.424  0.00  0.00    +0.122 C 
ATOM      5  C   UNL     1      35.055 -20.957 -19.655  0.00  0.00    +0.002 C 
ATOM      6  C   UNL     1      33.653 -21.142 -19.608  0.00  0.00    +0.003 C 
ATOM      7  C   UNL     1      35.596 -20.039 -20.569  0.00  0.00    +0.020 C 
ATOM      8  C   UNL     1      33.388 -19.495 -21.378  0.00  0.00    +0.020 C 
ATOM      9  C   UNL     1      32.833 -20.404 -20.476  0.00  0.00    +0.001 C 
ATOM     10  C   UNL     1      33.112 -22.061 -18.693  0.00  0.00    +0.037 C 
ATOM     11  C   UNL     1      35.874 -21.697 -18.786  0.00  0.00    +0.003 C 
ATOM     12  C   UNL     1      33.941 -22.786 -17.838  0.00  0.00    +0.139 C 
ATOM     13  C   UNL     1      35.320 -22.605 -17.885  0.00  0.00    +0.037 C 
BRANCH  12  14
ATOM     14  O   UNL     1      33.401 -23.672 -16.956  0.00  0.00    -0.475 OA
BRANCH  14  15
ATOM     15  C   UNL     1      33.693 -23.473 -15.574  0.00  0.00    +0.205 C 
BRANCH  15  16
ATOM     16  C   UNL     1      32.395 -23.187 -14.833  0.00  0.00    +0.047 C 
BRANCH  16  17
ATOM     17  C   UNL     1      31.175 -23.574 -15.665  0.00  0.00    +0.004 C 
ATOM     18  C   UNL     1      29.923 -22.856 -15.186  0.00  0.00    +0.000 C 
ENDBRANCH  16  17
ENDBRANCH  15  16
ENDBRANCH  14  15
ENDBRANCH  12  14
ENDBRANCH   1   4
BRANCH   1  19
ATOM     19  N   UNL     1      35.012 -16.672 -21.889  0.00  0.00    -0.170 NA
ATOM     20  H   UNL     1      35.829 -16.063 -21.939  0.00  0.00    +0.149 HD
BRANCH  19  21
ATOM     21  C   UNL     1      33.879 -15.914 -22.466  0.00  0.00    +0.174 C 
BRANCH  21  23
ATOM     22  O   UNL     1      33.373 -14.219 -20.797  0.00  0.00    -0.249 OA
ATOM     23  C   UNL     1      33.107 -15.290 -21.328  0.00  0.00    +0.330 C 
BRANCH  23  24
ATOM     24  O   UNL     1      32.044 -16.049 -20.954  0.00  0.00    -0.479 OA
ATOM     25  H   UNL     1      31.419 -15.711 -20.344  0.00  0.00    +0.295 HD
ENDBRANCH  23  24
ENDBRANCH  21  23
BRANCH  21  26
ATOM     26  C   UNL     1      34.381 -14.919 -23.519  0.00  0.00    +0.040 C 
BRANCH  26  27
ATOM     27  C   UNL     1      33.437 -14.631 -24.689  0.00  0.00    +0.111 C 
BRANCH  27  29
ATOM     28  O   UNL     1      32.643 -15.820 -26.636  0.00  0.00    -0.250 OA
ATOM     29  C   UNL     1      33.528 -15.636 -25.810  0.00  0.00    +0.314 C 
BRANCH  29  30
ATOM     30  O   UNL     1      34.691 -16.332 -25.799  0.00  0.00    -0.480 OA
ATOM     31  H   UNL     1      35.422 -16.032 -26.303  0.00  0.00    +0.295 HD
ENDBRANCH  29  30
ENDBRANCH  27  29
ENDBRANCH  26  27
ENDBRANCH  21  26
ENDBRANCH  19  21
ENDBRANCH   1  19
TORSDOF 13
ENDMDL
MODEL 5
REMARK VINA RESULT:      -9.5      2.813      4.122
REMARK  Name = 16122580
REMARK  13 active torsions:
REMARK  status: ('A' for Active; 'I' for Inactive)
REMARK    1  A    between atoms: S_1  and  C_4
REMARK    2  A    between atoms: S_1  and  N_19
REMARK    3  A    between atoms: C_12  and  O_14
REMARK    4  A    between atoms: O_14  and  C_15
REMARK    5  A    between atoms: C_15  and  C_16
REMARK    6  A    between atoms: C_16  and  C_17
REMARK    7  A    between atoms: N_19  and  C_21
REMARK    8  A    between atoms: C_21  and  C_23
REMARK    9  A    between atoms: C_21  and  C_26
REMARK   10  A    between atoms: C_23  and  O_24
REMARK   11  A    between atoms: C_26  and  C_27
REMARK   12  A    between atoms: C_27  and  C_29
REMARK   13  A    between atoms: C_29  and  O_30
REMARK                            x       y       z     vdW  Elec       q    Type
REMARK                         _______ _______ _______ _____ _____    ______ ____
ROOT
ATOM      1  S   UNL     1      33.614 -23.039 -18.367  0.00  0.00    +0.061 S 
ATOM      2  O   UNL     1      32.280 -22.632 -17.968  0.00  0.00    -0.153 OA
ATOM      3  O   UNL     1      33.807 -24.252 -19.138  0.00  0.00    -0.153 OA
ENDROOT
BRANCH   1   4
ATOM      4  C   UNL     1      34.329 -21.718 -19.299  0.00  0.00    +0.122 C 
ATOM      5  C   UNL     1      34.059 -19.696 -20.625  0.00  0.00    +0.002 C 
ATOM      6  C   UNL     1      35.463 -19.620 -20.781  0.00  0.00    +0.003 C 
ATOM      7  C   UNL     1      33.508 -20.752 -19.882  0.00  0.00    +0.020 C 
ATOM      8  C   UNL     1      35.710 -21.642 -19.453  0.00  0.00    +0.020 C 
ATOM      9  C   UNL     1      36.275 -20.600 -20.188  0.00  0.00    +0.001 C 
ATOM     10  C   UNL     1      36.016 -18.564 -21.525  0.00  0.00    +0.037 C 
ATOM     11  C   UNL     1      33.248 -18.715 -21.218  0.00  0.00    +0.003 C 
ATOM     12  C   UNL     1      35.195 -17.597 -22.107  0.00  0.00    +0.139 C 
ATOM     13  C   UNL     1      33.813 -17.674 -21.954  0.00  0.00    +0.037 C 
BRANCH  12  14
ATOM     14  O   UNL     1      35.745 -16.579 -22.824  0.00  0.00    -0.475 OA
BRANCH  14  15
ATOM     15  C   UNL     1      34.926 -15.971 -23.821  0.00  0.00    +0.205 C 
BRANCH  15  16
ATOM     16  C   UNL     1      34.451 -14.618 -23.310  0.00  0.00    +0.047 C 
BRANCH  16  17
ATOM     17  C   UNL     1      33.250 -14.108 -24.100  0.00  0.00    +0.004 C 
ATOM     18  C   UNL     1      33.160 -14.768 -25.466  0.00  0.00    +0.000 C 
ENDBRANCH  16  17
ENDBRANCH  15  16
ENDBRANCH  14  15
ENDBRANCH  12  14
ENDBRANCH   1   4
BRANCH   1  19
ATOM     19  N   UNL     1      34.622 -23.088 -16.999  0.00  0.00    -0.170 NA
ATOM     20  H   UNL     1      34.682 -22.135 -16.643  0.00  0.00    +0.149 HD
BRANCH  19  21
ATOM     21  C   UNL     1      34.266 -23.952 -15.851  0.00  0.00    +0.174 C 
BRANCH  21  23
ATOM     22  O   UNL     1      36.674 -24.237 -15.657  0.00  0.00    -0.249 OA
ATOM     23  C   UNL     1      35.543 -24.525 -15.285  0.00  0.00    +0.330 C 
BRANCH  23  24
ATOM     24  O   UNL     1      35.306 -25.405 -14.277  0.00  0.00    -0.479 OA
ATOM     25  H   UNL     1      35.877 -25.431 -13.534  0.00  0.00    +0.295 HD
ENDBRANCH  23  24
ENDBRANCH  21  23
BRANCH  21  26
ATOM     26  C   UNL     1      33.412 -23.176 -14.842  0.00  0.00    +0.040 C 
BRANCH  26  27
ATOM     27  C   UNL     1      31.943 -23.591 -14.730  0.00  0.00    +0.111 C 
BRANCH  27  29
ATOM     28  O   UNL     1      30.581 -24.378 -12.897  0.00  0.00    -0.250 OA
ATOM     29  C   UNL     1      31.636 -24.432 -13.517  0.00  0.00    +0.314 C 
BRANCH  29  30
ATOM     30  O   UNL     1      32.663 -25.246 -13.167  0.00  0.00    -0.480 OA
ATOM     31  H   UNL     1      32.624 -26.161 -13.366  0.00  0.00    +0.295 HD
ENDBRANCH  29  30
ENDBRANCH  27  29
ENDBRANCH  26  27
ENDBRANCH  21  26
ENDBRANCH  19  21
ENDBRANCH   1  19
TORSDOF 13
ENDMDL
MODEL 6
REMARK VINA RESULT:      -9.4      4.632     10.595
REMARK  Name = 16122580
REMARK  13 active torsions:
REMARK  status: ('A' for Active; 'I' for Inactive)
REMARK    1  A    between atoms: S_1  and  C_4
REMARK    2  A    between atoms: S_1  and  N_19
REMARK    3  A    between atoms: C_12  and  O_14
REMARK    4  A    between atoms: O_14  and  C_15
REMARK    5  A    between atoms: C_15  and  C_16
REMARK    6  A    between atoms: C_16  and  C_17
REMARK    7  A    between atoms: N_19  and  C_21
REMARK    8  A    between atoms: C_21  and  C_23
REMARK    9  A    between atoms: C_21  and  C_26
REMARK   10  A    between atoms: C_23  and  O_24
REMARK   11  A    between atoms: C_26  and  C_27
REMARK   12  A    between atoms: C_27  and  C_29
REMARK   13  A    between atoms: C_29  and  O_30
REMARK                            x       y       z     vdW  Elec       q    Type
REMARK                         _______ _______ _______ _____ _____    ______ ____
ROOT
ATOM      1  S   UNL     1      35.442 -18.564 -22.681  0.00  0.00    +0.061 S 
ATOM      2  O   UNL     1      36.763 -18.181 -22.224  0.00  0.00    -0.153 OA
ATOM      3  O   UNL     1      35.277 -19.232 -23.958  0.00  0.00    -0.153 OA
ENDROOT
BRANCH   1   4
ATOM      4  C   UNL     1      34.725 -19.615 -21.454  0.00  0.00    +0.122 C 
ATOM      5  C   UNL     1      34.993 -21.147 -19.583  0.00  0.00    +0.002 C 
ATOM      6  C   UNL     1      33.587 -21.287 -19.506  0.00  0.00    +0.003 C 
ATOM      7  C   UNL     1      35.546 -20.308 -20.564  0.00  0.00    +0.020 C 
ATOM      8  C   UNL     1      33.342 -19.754 -21.378  0.00  0.00    +0.020 C 
ATOM      9  C   UNL     1      32.775 -20.583 -20.410  0.00  0.00    +0.001 C 
ATOM     10  C   UNL     1      33.034 -22.126 -18.525  0.00  0.00    +0.037 C 
ATOM     11  C   UNL     1      35.804 -21.851 -18.678  0.00  0.00    +0.003 C 
ATOM     12  C   UNL     1      33.855 -22.818 -17.634  0.00  0.00    +0.139 C 
ATOM     13  C   UNL     1      35.238 -22.680 -17.711  0.00  0.00    +0.037 C 
BRANCH  12  14
ATOM     14  O   UNL     1      33.304 -23.627 -16.688  0.00  0.00    -0.475 OA
BRANCH  14  15
ATOM     15  C   UNL     1      33.292 -23.143 -15.346  0.00  0.00    +0.205 C 
BRANCH  15  16
ATOM     16  C   UNL     1      31.853 -22.862 -14.937  0.00  0.00    +0.047 C 
BRANCH  16  17
ATOM     17  C   UNL     1      31.476 -23.606 -13.658  0.00  0.00    +0.004 C 
ATOM     18  C   UNL     1      31.712 -25.101 -13.793  0.00  0.00    +0.000 C 
ENDBRANCH  16  17
ENDBRANCH  15  16
ENDBRANCH  14  15
ENDBRANCH  12  14
ENDBRANCH   1   4
BRANCH   1  19
ATOM     19  N   UNL     1      34.412 -17.213 -22.630  0.00  0.00    -0.170 NA
ATOM     20  H   UNL     1      34.263 -16.993 -21.645  0.00  0.00    +0.149 HD
BRANCH  19  21
ATOM     21  C   UNL     1      34.816 -15.952 -23.292  0.00  0.00    +0.174 C 
BRANCH  21  23
ATOM     22  O   UNL     1      33.236 -15.095 -24.932  0.00  0.00    -0.249 OA
ATOM     23  C   UNL     1      34.121 -15.886 -24.632  0.00  0.00    +0.330 C 
BRANCH  23  24
ATOM     24  O   UNL     1      34.606 -16.808 -25.505  0.00  0.00    -0.479 OA
ATOM     25  H   UNL     1      34.799 -16.560 -26.388  0.00  0.00    +0.295 HD
ENDBRANCH  23  24
ENDBRANCH  21  23
BRANCH  21  26
ATOM     26  C   UNL     1      34.546 -14.754 -22.374  0.00  0.00    +0.040 C 
BRANCH  26  27
ATOM     27  C   UNL     1      33.303 -14.844 -21.486  0.00  0.00    +0.111 C 
BRANCH  27  29
ATOM     28  O   UNL     1      32.122 -12.941 -20.580  0.00  0.00    -0.250 OA
ATOM     29  C   UNL     1      32.416 -13.626 -21.551  0.00  0.00    +0.314 C 
BRANCH  29  30
ATOM     30  O   UNL     1      31.957 -13.376 -22.803  0.00  0.00    -0.480 OA
ATOM     31  H   UNL     1      31.058 -13.537 -23.014  0.00  0.00    +0.295 HD
ENDBRANCH  29  30
ENDBRANCH  27  29
ENDBRANCH  26  27
ENDBRANCH  21  26
ENDBRANCH  19  21
ENDBRANCH   1  19
TORSDOF 13
ENDMDL
MODEL 7
REMARK VINA RESULT:      -9.3      2.093      2.828
REMARK  Name = 16122580
REMARK  13 active torsions:
REMARK  status: ('A' for Active; 'I' for Inactive)
REMARK    1  A    between atoms: S_1  and  C_4
REMARK    2  A    between atoms: S_1  and  N_19
REMARK    3  A    between atoms: C_12  and  O_14
REMARK    4  A    between atoms: O_14  and  C_15
REMARK    5  A    between atoms: C_15  and  C_16
REMARK    6  A    between atoms: C_16  and  C_17
REMARK    7  A    between atoms: N_19  and  C_21
REMARK    8  A    between atoms: C_21  and  C_23
REMARK    9  A    between atoms: C_21  and  C_26
REMARK   10  A    between atoms: C_23  and  O_24
REMARK   11  A    between atoms: C_26  and  C_27
REMARK   12  A    between atoms: C_27  and  C_29
REMARK   13  A    between atoms: C_29  and  O_30
REMARK                            x       y       z     vdW  Elec       q    Type
REMARK                         _______ _______ _______ _____ _____    ______ ____
ROOT
ATOM      1  S   UNL     1      34.181 -23.424 -16.805  0.00  0.00    +0.061 S 
ATOM      2  O   UNL     1      33.630 -22.650 -15.710  0.00  0.00    -0.153 OA
ATOM      3  O   UNL     1      33.354 -24.389 -17.505  0.00  0.00    -0.153 OA
ENDROOT
BRANCH   1   4
ATOM      4  C   UNL     1      34.791 -22.292 -18.018  0.00  0.00    +0.122 C 
ATOM      5  C   UNL     1      34.379 -20.809 -19.902  0.00  0.00    +0.002 C 
ATOM      6  C   UNL     1      35.759 -20.496 -19.947  0.00  0.00    +0.003 C 
ATOM      7  C   UNL     1      33.912 -21.710 -18.932  0.00  0.00    +0.020 C 
ATOM      8  C   UNL     1      36.147 -21.984 -18.063  0.00  0.00    +0.020 C 
ATOM      9  C   UNL     1      36.629 -21.092 -19.021  0.00  0.00    +0.001 C 
ATOM     10  C   UNL     1      36.227 -19.595 -20.918  0.00  0.00    +0.037 C 
ATOM     11  C   UNL     1      33.509 -20.212 -20.829  0.00  0.00    +0.003 C 
ATOM     12  C   UNL     1      35.348 -19.011 -21.831  0.00  0.00    +0.139 C 
ATOM     13  C   UNL     1      33.992 -19.320 -21.786  0.00  0.00    +0.037 C 
BRANCH  12  14
ATOM     14  O   UNL     1      35.817 -18.139 -22.765  0.00  0.00    -0.475 OA
BRANCH  14  15
ATOM     15  C   UNL     1      34.848 -17.421 -23.527  0.00  0.00    +0.205 C 
BRANCH  15  16
ATOM     16  C   UNL     1      34.958 -15.940 -23.192  0.00  0.00    +0.047 C 
BRANCH  16  17
ATOM     17  C   UNL     1      33.933 -15.523 -22.141  0.00  0.00    +0.004 C 
ATOM     18  C   UNL     1      34.529 -15.545 -20.743  0.00  0.00    +0.000 C 
ENDBRANCH  16  17
ENDBRANCH  15  16
ENDBRANCH  14  15
ENDBRANCH  12  14
ENDBRANCH   1   4
BRANCH   1  19
ATOM     19  N   UNL     1      35.608 -24.191 -16.292  0.00  0.00    -0.170 NA
ATOM     20  H   UNL     1      36.378 -23.559 -16.513  0.00  0.00    +0.149 HD
BRANCH  19  21
ATOM     21  C   UNL     1      35.768 -24.580 -14.873  0.00  0.00    +0.174 C 
BRANCH  21  23
ATOM     22  O   UNL     1      36.253 -26.779 -15.794  0.00  0.00    -0.249 OA
ATOM     23  C   UNL     1      36.218 -26.021 -14.832  0.00  0.00    +0.330 C 
BRANCH  23  24
ATOM     24  O   UNL     1      36.613 -26.399 -13.588  0.00  0.00    -0.479 OA
ATOM     25  H   UNL     1      36.492 -25.819 -12.862  0.00  0.00    +0.295 HD
ENDBRANCH  23  24
ENDBRANCH  21  23
BRANCH  21  26
ATOM     26  C   UNL     1      36.699 -23.600 -14.151  0.00  0.00    +0.040 C 
BRANCH  26  27
ATOM     27  C   UNL     1      36.371 -23.301 -12.686  0.00  0.00    +0.111 C 
BRANCH  27  29
ATOM     28  O   UNL     1      37.541 -24.698 -11.101  0.00  0.00    -0.250 OA
ATOM     29  C   UNL     1      37.482 -23.648 -11.727  0.00  0.00    +0.314 C 
BRANCH  29  30
ATOM     30  O   UNL     1      38.406 -22.661 -11.615  0.00  0.00    -0.480 OA
ATOM     31  H   UNL     1      38.665 -22.356 -10.768  0.00  0.00    +0.295 HD
ENDBRANCH  29  30
ENDBRANCH  27  29
ENDBRANCH  26  27
ENDBRANCH  21  26
ENDBRANCH  19  21
ENDBRANCH   1  19
TORSDOF 13
ENDMDL
MODEL 8
REMARK VINA RESULT:      -9.3      5.238      8.687
REMARK  Name = 16122580
REMARK  13 active torsions:
REMARK  status: ('A' for Active; 'I' for Inactive)
REMARK    1  A    between atoms: S_1  and  C_4
REMARK    2  A    between atoms: S_1  and  N_19
REMARK    3  A    between atoms: C_12  and  O_14
REMARK    4  A    between atoms: O_14  and  C_15
REMARK    5  A    between atoms: C_15  and  C_16
REMARK    6  A    between atoms: C_16  and  C_17
REMARK    7  A    between atoms: N_19  and  C_21
REMARK    8  A    between atoms: C_21  and  C_23
REMARK    9  A    between atoms: C_21  and  C_26
REMARK   10  A    between atoms: C_23  and  O_24
REMARK   11  A    between atoms: C_26  and  C_27
REMARK   12  A    between atoms: C_27  and  C_29
REMARK   13  A    between atoms: C_29  and  O_30
REMARK                            x       y       z     vdW  Elec       q    Type
REMARK                         _______ _______ _______ _____ _____    ______ ____
ROOT
ATOM      1  S   UNL     1      35.452 -18.446 -21.980  0.00  0.00    +0.061 S 
ATOM      2  O   UNL     1      35.850 -18.657 -23.358  0.00  0.00    -0.153 OA
ATOM      3  O   UNL     1      36.457 -18.325 -20.941  0.00  0.00    -0.153 OA
ENDROOT
BRANCH   1   4
ATOM      4  C   UNL     1      34.467 -16.979 -21.916  0.00  0.00    +0.122 C 
ATOM      5  C   UNL     1      33.908 -14.785 -22.805  0.00  0.00    +0.002 C 
ATOM      6  C   UNL     1      32.905 -14.648 -21.816  0.00  0.00    +0.003 C 
ATOM      7  C   UNL     1      34.681 -15.956 -22.841  0.00  0.00    +0.020 C 
ATOM      8  C   UNL     1      33.482 -16.844 -20.944  0.00  0.00    +0.020 C 
ATOM      9  C   UNL     1      32.704 -15.687 -20.893  0.00  0.00    +0.001 C 
ATOM     10  C   UNL     1      32.132 -13.476 -21.779  0.00  0.00    +0.037 C 
ATOM     11  C   UNL     1      34.108 -13.745 -23.728  0.00  0.00    +0.003 C 
ATOM     12  C   UNL     1      32.344 -12.454 -22.704  0.00  0.00    +0.139 C 
ATOM     13  C   UNL     1      33.331 -12.588 -23.676  0.00  0.00    +0.037 C 
BRANCH  12  14
ATOM     14  O   UNL     1      31.585 -11.324 -22.657  0.00  0.00    -0.475 OA
BRANCH  14  15
ATOM     15  C   UNL     1      31.086 -10.931 -21.380  0.00  0.00    +0.205 C 
BRANCH  15  16
ATOM     16  C   UNL     1      31.836  -9.688 -20.921  0.00  0.00    +0.047 C 
BRANCH  16  17
ATOM     17  C   UNL     1      31.802  -9.539 -19.402  0.00  0.00    +0.004 C 
ATOM     18  C   UNL     1      31.438 -10.848 -18.721  0.00  0.00    +0.000 C 
ENDBRANCH  16  17
ENDBRANCH  15  16
ENDBRANCH  14  15
ENDBRANCH  12  14
ENDBRANCH   1   4
BRANCH   1  19
ATOM     19  N   UNL     1      34.331 -19.640 -21.526  0.00  0.00    -0.170 NA
ATOM     20  H   UNL     1      34.348 -20.353 -22.256  0.00  0.00    +0.149 HD
BRANCH  19  21
ATOM     21  C   UNL     1      34.489 -20.347 -20.235  0.00  0.00    +0.174 C 
BRANCH  21  23
ATOM     22  O   UNL     1      32.093 -20.170 -19.851  0.00  0.00    -0.249 OA
ATOM     23  C   UNL     1      33.125 -20.827 -19.797  0.00  0.00    +0.330 C 
BRANCH  23  24
ATOM     24  O   UNL     1      33.155 -22.106 -19.340  0.00  0.00    -0.479 OA
ATOM     25  H   UNL     1      32.363 -22.524 -19.067  0.00  0.00    +0.295 HD
ENDBRANCH  23  24
ENDBRANCH  21  23
BRANCH  21  26
ATOM     26  C   UNL     1      35.545 -21.451 -20.354  0.00  0.00    +0.040 C 
BRANCH  26  27
ATOM     27  C   UNL     1      36.764 -21.329 -19.436  0.00  0.00    +0.111 C 
BRANCH  27  29
ATOM     28  O   UNL     1      35.657 -22.463 -17.613  0.00  0.00    -0.250 OA
ATOM     29  C   UNL     1      36.471 -21.628 -17.987  0.00  0.00    +0.314 C 
BRANCH  29  30
ATOM     30  O   UNL     1      37.193 -20.858 -17.135  0.00  0.00    -0.480 OA
ATOM     31  H   UNL     1      36.935 -20.784 -16.237  0.00  0.00    +0.295 HD
ENDBRANCH  29  30
ENDBRANCH  27  29
ENDBRANCH  26  27
ENDBRANCH  21  26
ENDBRANCH  19  21
ENDBRANCH   1  19
TORSDOF 13
ENDMDL
MODEL 9
REMARK VINA RESULT:      -9.3      1.504      2.212
REMARK  Name = 16122580
REMARK  13 active torsions:
REMARK  status: ('A' for Active; 'I' for Inactive)
REMARK    1  A    between atoms: S_1  and  C_4
REMARK    2  A    between atoms: S_1  and  N_19
REMARK    3  A    between atoms: C_12  and  O_14
REMARK    4  A    between atoms: O_14  and  C_15
REMARK    5  A    between atoms: C_15  and  C_16
REMARK    6  A    between atoms: C_16  and  C_17
REMARK    7  A    between atoms: N_19  and  C_21
REMARK    8  A    between atoms: C_21  and  C_23
REMARK    9  A    between atoms: C_21  and  C_26
REMARK   10  A    between atoms: C_23  and  O_24
REMARK   11  A    between atoms: C_26  and  C_27
REMARK   12  A    between atoms: C_27  and  C_29
REMARK   13  A    between atoms: C_29  and  O_30
REMARK                            x       y       z     vdW  Elec       q    Type
REMARK                         _______ _______ _______ _____ _____    ______ ____
ROOT
ATOM      1  S   UNL     1      36.762 -23.136 -15.670  0.00  0.00    +0.061 S 
ATOM      2  O   UNL     1      38.195 -23.160 -15.889  0.00  0.00    -0.153 OA
ATOM      3  O   UNL     1      36.211 -22.435 -14.526  0.00  0.00    -0.153 OA
ENDROOT
BRANCH   1   4
ATOM      4  C   UNL     1      36.002 -22.449 -17.110  0.00  0.00    +0.122 C 
ATOM      5  C   UNL     1      36.138 -21.032 -19.084  0.00  0.00    +0.002 C 
ATOM      6  C   UNL     1      34.797 -21.354 -19.398  0.00  0.00    +0.003 C 
ATOM      7  C   UNL     1      36.726 -21.588 -17.935  0.00  0.00    +0.020 C 
ATOM      8  C   UNL     1      34.683 -22.765 -17.419  0.00  0.00    +0.020 C 
ATOM      9  C   UNL     1      34.083 -22.222 -18.556  0.00  0.00    +0.001 C 
ATOM     10  C   UNL     1      34.208 -20.799 -20.546  0.00  0.00    +0.037 C 
ATOM     11  C   UNL     1      36.851 -20.165 -19.927  0.00  0.00    +0.003 C 
ATOM     12  C   UNL     1      34.932 -19.939 -21.372  0.00  0.00    +0.139 C 
ATOM     13  C   UNL     1      36.251 -19.622 -21.062  0.00  0.00    +0.037 C 
BRANCH  12  14
ATOM     14  O   UNL     1      34.348 -19.410 -22.482  0.00  0.00    -0.475 OA
BRANCH  14  15
ATOM     15  C   UNL     1      34.590 -18.030 -22.748  0.00  0.00    +0.205 C 
BRANCH  15  16
ATOM     16  C   UNL     1      35.251 -17.900 -24.113  0.00  0.00    +0.047 C 
BRANCH  16  17
ATOM     17  C   UNL     1      34.237 -17.553 -25.199  0.00  0.00    +0.004 C 
ATOM     18  C   UNL     1      33.898 -16.071 -25.193  0.00  0.00    +0.000 C 
ENDBRANCH  16  17
ENDBRANCH  15  16
ENDBRANCH  14  15
ENDBRANCH  12  14
ENDBRANCH   1   4
BRANCH   1  19
ATOM     19  N   UNL     1      36.163 -24.727 -15.683  0.00  0.00    -0.170 NA
ATOM     20  H   UNL     1      36.499 -25.161 -16.542  0.00  0.00    +0.149 HD
BRANCH  19  21
ATOM     21  C   UNL     1      36.499 -25.651 -14.577  0.00  0.00    +0.174 C 
BRANCH  21  23
ATOM     22  O   UNL     1      38.348 -27.231 -14.628  0.00  0.00    -0.249 OA
ATOM     23  C   UNL     1      37.336 -26.773 -15.144  0.00  0.00    +0.330 C 
BRANCH  23  24
ATOM     24  O   UNL     1      36.828 -27.250 -16.311  0.00  0.00    -0.479 OA
ATOM     25  H   UNL     1      37.260 -27.063 -17.121  0.00  0.00    +0.295 HD
ENDBRANCH  23  24
ENDBRANCH  21  23
BRANCH  21  26
ATOM     26  C   UNL     1      37.155 -24.887 -13.421  0.00  0.00    +0.040 C 
BRANCH  26  27
ATOM     27  C   UNL     1      36.800 -25.354 -12.007  0.00  0.00    +0.111 C 
BRANCH  27  29
ATOM     28  O   UNL     1      34.887 -23.879 -12.044  0.00  0.00    -0.250 OA
ATOM     29  C   UNL     1      35.565 -24.700 -11.439  0.00  0.00    +0.314 C 
BRANCH  29  30
ATOM     30  O   UNL     1      35.292 -25.102 -10.173  0.00  0.00    -0.480 OA
ATOM     31  H   UNL     1      34.924 -25.951 -10.021  0.00  0.00    +0.295 HD
ENDBRANCH  29  30
ENDBRANCH  27  29
ENDBRANCH  26  27
ENDBRANCH  21  26
ENDBRANCH  19  21
ENDBRANCH   1  19
TORSDOF 13
ENDMDL
