MODEL 1
REMARK VINA RESULT:      -8.3      0.000      0.000
REMARK  Name = 24875302
REMARK  15 active torsions:
REMARK  status: ('A' for Active; 'I' for Inactive)
REMARK    1  A    between atoms: C_1  and  C_4
REMARK    2  A    between atoms: C_2  and  C_15
REMARK    3  A    between atoms: C_3  and  C_5
REMARK    4  A    between atoms: C_5  and  O_6
REMARK    5  A    between atoms: C_5  and  C_8
REMARK    6  A    between atoms: C_8  and  C_9
REMARK    7  A    between atoms: C_9  and  C_10
REMARK    8  A    between atoms: C_10  and  C_12
REMARK    9  A    between atoms: C_12  and  O_13
REMARK   10  A    between atoms: C_15  and  C_16
REMARK   11  A    between atoms: C_17  and  C_18
REMARK   12  A    between atoms: C_18  and  C_19
REMARK   13  A    between atoms: C_20  and  C_21
REMARK   14  A    between atoms: C_21  and  C_22
REMARK   15  A    between atoms: C_23  and  C_24
REMARK                            x       y       z     vdW  Elec       q    Type
REMARK                         _______ _______ _______ _____ _____    ______ ____
ROOT
ATOM      1  C   UNL     1      32.885 -19.922 -20.467  0.00  0.00    -0.004 C 
ATOM      2  C   UNL     1      33.401 -19.008 -21.302  0.00  0.00    -0.021 C 
ENDROOT
BRANCH   1   4
ATOM      3  C   UNL     1      33.204 -21.793 -18.917  0.00  0.00    +0.003 C 
ATOM      4  C   UNL     1      33.662 -20.998 -19.895  0.00  0.00    -0.003 C 
BRANCH   3   5
ATOM      5  C   UNL     1      34.003 -22.918 -18.318  0.00  0.00    +0.132 C 
BRANCH   5   6
ATOM      6  O   UNL     1      33.842 -24.073 -19.144  0.00  0.00    -0.380 OA
ATOM      7  H   UNL     1      34.319 -23.942 -19.979  0.00  0.00    +0.211 HD
ENDBRANCH   5   6
BRANCH   5   8
ATOM      8  C   UNL     1      33.561 -23.276 -16.892  0.00  0.00    +0.034 C 
BRANCH   8   9
ATOM      9  C   UNL     1      32.043 -23.196 -16.693  0.00  0.00    +0.014 C 
BRANCH   9  10
ATOM     10  C   UNL     1      31.650 -23.181 -15.219  0.00  0.00    +0.109 C 
BRANCH  10  12
ATOM     11  O   UNL     1      29.361 -22.417 -15.111  0.00  0.00    -0.250 OA
ATOM     12  C   UNL     1      30.163 -23.336 -15.019  0.00  0.00    +0.314 C 
BRANCH  12  13
ATOM     13  O   UNL     1      29.806 -24.613 -14.730  0.00  0.00    -0.480 OA
ATOM     14  H   UNL     1      30.458 -25.235 -14.473  0.00  0.00    +0.295 HD
ENDBRANCH  12  13
ENDBRANCH  10  12
ENDBRANCH   9  10
ENDBRANCH   8   9
ENDBRANCH   5   8
ENDBRANCH   3   5
ENDBRANCH   1   4
BRANCH   2  15
ATOM     15  C   UNL     1      34.838 -18.996 -21.737  0.00  0.00    +0.052 C 
BRANCH  15  16
ATOM     16  C   UNL     1      34.975 -19.302 -23.200  0.00  0.00    -0.026 C 
ATOM     17  C   UNL     1      35.020 -18.364 -24.158  0.00  0.00    -0.026 C 
BRANCH  17  18
ATOM     18  C   UNL     1      34.939 -16.889 -23.886  0.00  0.00    +0.051 C 
BRANCH  18  19
ATOM     19  C   UNL     1      33.980 -16.209 -24.819  0.00  0.00    -0.026 C 
ATOM     20  C   UNL     1      33.577 -14.937 -24.676  0.00  0.00    -0.026 C 
BRANCH  20  21
ATOM     21  C   UNL     1      34.033 -14.036 -23.567  0.00  0.00    +0.051 C 
BRANCH  21  22
ATOM     22  C   UNL     1      32.875 -13.533 -22.753  0.00  0.00    -0.026 C 
ATOM     23  C   UNL     1      32.400 -14.163 -21.667  0.00  0.00    -0.030 C 
BRANCH  23  24
ATOM     24  C   UNL     1      32.905 -15.446 -21.065  0.00  0.00    +0.026 C 
ATOM     25  C   UNL     1      34.296 -15.415 -20.447  0.00  0.00    +0.005 C 
ENDBRANCH  23  24
ENDBRANCH  21  22
ENDBRANCH  20  21
ENDBRANCH  18  19
ENDBRANCH  17  18
ENDBRANCH  15  16
ENDBRANCH   2  15
TORSDOF 15
ENDMDL
MODEL 2
REMARK VINA RESULT:      -8.3      2.654      3.418
REMARK  Name = 24875302
REMARK  15 active torsions:
REMARK  status: ('A' for Active; 'I' for Inactive)
REMARK    1  A    between atoms: C_1  and  C_4
REMARK    2  A    between atoms: C_2  and  C_15
REMARK    3  A    between atoms: C_3  and  C_5
REMARK    4  A    between atoms: C_5  and  O_6
REMARK    5  A    between atoms: C_5  and  C_8
REMARK    6  A    between atoms: C_8  and  C_9
REMARK    7  A    between atoms: C_9  and  C_10
REMARK    8  A    between atoms: C_10  and  C_12
REMARK    9  A    between atoms: C_12  and  O_13
REMARK   10  A    between atoms: C_15  and  C_16
REMARK   11  A    between atoms: C_17  and  C_18
REMARK   12  A    between atoms: C_18  and  C_19
REMARK   13  A    between atoms: C_20  and  C_21
REMARK   14  A    between atoms: C_21  and  C_22
REMARK   15  A    between atoms: C_23  and  C_24
REMARK                            x       y       z     vdW  Elec       q    Type
REMARK                         _______ _______ _______ _____ _____    ______ ____
ROOT
ATOM      1  C   UNL     1      33.416 -19.744 -20.874  0.00  0.00    -0.004 C 
ATOM      2  C   UNL     1      33.659 -19.114 -22.033  0.00  0.00    -0.021 C 
ENDROOT
BRANCH   1   4
ATOM      3  C   UNL     1      34.083 -21.598 -19.418  0.00  0.00    +0.003 C 
ATOM      4  C   UNL     1      34.401 -20.550 -20.191  0.00  0.00    -0.003 C 
BRANCH   3   5
ATOM      5  C   UNL     1      35.101 -22.446 -18.707  0.00  0.00    +0.132 C 
BRANCH   5   6
ATOM      6  O   UNL     1      34.493 -22.987 -17.531  0.00  0.00    -0.380 OA
ATOM      7  H   UNL     1      33.547 -23.127 -17.691  0.00  0.00    +0.211 HD
ENDBRANCH   5   6
BRANCH   5   8
ATOM      8  C   UNL     1      36.352 -21.661 -18.289  0.00  0.00    +0.034 C 
BRANCH   8   9
ATOM      9  C   UNL     1      36.573 -21.642 -16.773  0.00  0.00    +0.014 C 
BRANCH   9  10
ATOM     10  C   UNL     1      37.802 -22.443 -16.354  0.00  0.00    +0.109 C 
BRANCH  10  12
ATOM     11  O   UNL     1      38.012 -23.618 -14.254  0.00  0.00    -0.250 OA
ATOM     12  C   UNL     1      37.473 -23.517 -15.347  0.00  0.00    +0.314 C 
BRANCH  12  13
ATOM     13  O   UNL     1      36.505 -24.362 -15.783  0.00  0.00    -0.480 OA
ATOM     14  H   UNL     1      35.885 -24.073 -16.425  0.00  0.00    +0.295 HD
ENDBRANCH  12  13
ENDBRANCH  10  12
ENDBRANCH   9  10
ENDBRANCH   8   9
ENDBRANCH   5   8
ENDBRANCH   3   5
ENDBRANCH   1   4
BRANCH   2  15
ATOM     15  C   UNL     1      34.976 -19.172 -22.751  0.00  0.00    +0.052 C 
BRANCH  15  16
ATOM     16  C   UNL     1      34.791 -19.229 -24.240  0.00  0.00    -0.026 C 
ATOM     17  C   UNL     1      34.648 -18.144 -25.016  0.00  0.00    -0.026 C 
BRANCH  17  18
ATOM     18  C   UNL     1      34.656 -16.736 -24.494  0.00  0.00    +0.051 C 
BRANCH  18  19
ATOM     19  C   UNL     1      33.754 -15.845 -25.297  0.00  0.00    -0.026 C 
ATOM     20  C   UNL     1      33.340 -14.637 -24.884  0.00  0.00    -0.026 C 
BRANCH  20  21
ATOM     21  C   UNL     1      33.726 -14.026 -23.569  0.00  0.00    +0.051 C 
BRANCH  21  22
ATOM     22  C   UNL     1      32.628 -14.162 -22.554  0.00  0.00    -0.026 C 
ATOM     23  C   UNL     1      32.841 -14.469 -21.265  0.00  0.00    -0.030 C 
BRANCH  23  24
ATOM     24  C   UNL     1      34.164 -14.731 -20.598  0.00  0.00    +0.026 C 
ATOM     25  C   UNL     1      34.777 -16.110 -20.802  0.00  0.00    +0.005 C 
ENDBRANCH  23  24
ENDBRANCH  21  22
ENDBRANCH  20  21
ENDBRANCH  18  19
ENDBRANCH  17  18
ENDBRANCH  15  16
ENDBRANCH   2  15
TORSDOF 15
ENDMDL
MODEL 3
REMARK VINA RESULT:      -8.2      3.969      5.789
REMARK  Name = 24875302
REMARK  15 active torsions:
REMARK  status: ('A' for Active; 'I' for Inactive)
REMARK    1  A    between atoms: C_1  and  C_4
REMARK    2  A    between atoms: C_2  and  C_15
REMARK    3  A    between atoms: C_3  and  C_5
REMARK    4  A    between atoms: C_5  and  O_6
REMARK    5  A    between atoms: C_5  and  C_8
REMARK    6  A    between atoms: C_8  and  C_9
REMARK    7  A    between atoms: C_9  and  C_10
REMARK    8  A    between atoms: C_10  and  C_12
REMARK    9  A    between atoms: C_12  and  O_13
REMARK   10  A    between atoms: C_15  and  C_16
REMARK   11  A    between atoms: C_17  and  C_18
REMARK   12  A    between atoms: C_18  and  C_19
REMARK   13  A    between atoms: C_20  and  C_21
REMARK   14  A    between atoms: C_21  and  C_22
REMARK   15  A    between atoms: C_23  and  C_24
REMARK                            x       y       z     vdW  Elec       q    Type
REMARK                         _______ _______ _______ _____ _____    ______ ____
ROOT
ATOM      1  C   UNL     1      33.896 -23.291 -17.179  0.00  0.00    -0.004 C 
ATOM      2  C   UNL     1      33.440 -22.793 -18.338  0.00  0.00    -0.021 C 
ENDROOT
BRANCH   1   4
ATOM      3  C   UNL     1      35.918 -23.538 -15.817  0.00  0.00    +0.003 C 
ATOM      4  C   UNL     1      35.055 -22.767 -16.494  0.00  0.00    -0.003 C 
BRANCH   3   5
ATOM      5  C   UNL     1      37.129 -23.002 -15.104  0.00  0.00    +0.132 C 
BRANCH   5   6
ATOM      6  O   UNL     1      38.265 -23.177 -15.955  0.00  0.00    -0.380 OA
ATOM      7  H   UNL     1      38.340 -24.112 -16.204  0.00  0.00    +0.211 HD
ENDBRANCH   5   6
BRANCH   5   8
ATOM      8  C   UNL     1      37.407 -23.713 -13.772  0.00  0.00    +0.034 C 
BRANCH   8   9
ATOM      9  C   UNL     1      37.845 -25.171 -13.947  0.00  0.00    +0.014 C 
BRANCH   9  10
ATOM     10  C   UNL     1      39.253 -25.422 -13.416  0.00  0.00    +0.109 C 
BRANCH  10  12
ATOM     11  O   UNL     1      41.189 -26.616 -14.231  0.00  0.00    -0.250 OA
ATOM     12  C   UNL     1      40.176 -25.974 -14.474  0.00  0.00    +0.314 C 
BRANCH  12  13
ATOM     13  O   UNL     1      39.758 -25.686 -15.733  0.00  0.00    -0.480 OA
ATOM     14  H   UNL     1      39.333 -26.344 -16.247  0.00  0.00    +0.295 HD
ENDBRANCH  12  13
ENDBRANCH  10  12
ENDBRANCH   9  10
ENDBRANCH   8   9
ENDBRANCH   5   8
ENDBRANCH   3   5
ENDBRANCH   1   4
BRANCH   2  15
ATOM     15  C   UNL     1      34.078 -21.637 -19.054  0.00  0.00    +0.052 C 
BRANCH  15  16
ATOM     16  C   UNL     1      33.067 -20.845 -19.832  0.00  0.00    -0.026 C 
ATOM     17  C   UNL     1      33.387 -19.980 -20.807  0.00  0.00    -0.026 C 
BRANCH  17  18
ATOM     18  C   UNL     1      34.796 -19.695 -21.241  0.00  0.00    +0.051 C 
BRANCH  18  19
ATOM     19  C   UNL     1      34.830 -18.881 -22.501  0.00  0.00    -0.026 C 
ATOM     20  C   UNL     1      34.860 -17.539 -22.521  0.00  0.00    -0.026 C 
BRANCH  20  21
ATOM     21  C   UNL     1      34.864 -16.686 -21.287  0.00  0.00    +0.051 C 
BRANCH  21  22
ATOM     22  C   UNL     1      33.529 -16.035 -21.062  0.00  0.00    -0.026 C 
ATOM     23  C   UNL     1      33.132 -14.916 -21.687  0.00  0.00    -0.030 C 
BRANCH  23  24
ATOM     24  C   UNL     1      33.906 -14.115 -22.699  0.00  0.00    +0.026 C 
ATOM     25  C   UNL     1      33.555 -14.333 -24.164  0.00  0.00    +0.005 C 
ENDBRANCH  23  24
ENDBRANCH  21  22
ENDBRANCH  20  21
ENDBRANCH  18  19
ENDBRANCH  17  18
ENDBRANCH  15  16
ENDBRANCH   2  15
TORSDOF 15
ENDMDL
MODEL 4
REMARK VINA RESULT:      -8.2      2.570      4.686
REMARK  Name = 24875302
REMARK  15 active torsions:
REMARK  status: ('A' for Active; 'I' for Inactive)
REMARK    1  A    between atoms: C_1  and  C_4
REMARK    2  A    between atoms: C_2  and  C_15
REMARK    3  A    between atoms: C_3  and  C_5
REMARK    4  A    between atoms: C_5  and  O_6
REMARK    5  A    between atoms: C_5  and  C_8
REMARK    6  A    between atoms: C_8  and  C_9
REMARK    7  A    between atoms: C_9  and  C_10
REMARK    8  A    between atoms: C_10  and  C_12
REMARK    9  A    between atoms: C_12  and  O_13
REMARK   10  A    between atoms: C_15  and  C_16
REMARK   11  A    between atoms: C_17  and  C_18
REMARK   12  A    between atoms: C_18  and  C_19
REMARK   13  A    between atoms: C_20  and  C_21
REMARK   14  A    between atoms: C_21  and  C_22
REMARK   15  A    between atoms: C_23  and  C_24
REMARK                            x       y       z     vdW  Elec       q    Type
REMARK                         _______ _______ _______ _____ _____    ______ ____
ROOT
ATOM      1  C   UNL     1      34.518 -18.983 -24.542  0.00  0.00    -0.004 C 
ATOM      2  C   UNL     1      34.425 -17.979 -25.426  0.00  0.00    -0.021 C 
ENDROOT
BRANCH   1   4
ATOM      3  C   UNL     1      34.576 -19.385 -22.125  0.00  0.00    +0.003 C 
ATOM      4  C   UNL     1      35.098 -18.827 -23.227  0.00  0.00    -0.003 C 
BRANCH   3   5
ATOM      5  C   UNL     1      35.173 -19.232 -20.754  0.00  0.00    +0.132 C 
BRANCH   5   6
ATOM      6  O   UNL     1      35.578 -17.871 -20.588  0.00  0.00    -0.380 OA
ATOM      7  H   UNL     1      35.309 -17.559 -19.709  0.00  0.00    +0.211 HD
ENDBRANCH   5   6
BRANCH   5   8
ATOM      8  C   UNL     1      36.396 -20.133 -20.526  0.00  0.00    +0.034 C 
BRANCH   8   9
ATOM      9  C   UNL     1      36.099 -21.334 -19.621  0.00  0.00    +0.014 C 
BRANCH   9  10
ATOM     10  C   UNL     1      34.603 -21.530 -19.388  0.00  0.00    +0.109 C 
BRANCH  10  12
ATOM     11  O   UNL     1      34.426 -22.985 -17.469  0.00  0.00    -0.250 OA
ATOM     12  C   UNL     1      34.297 -22.822 -18.674  0.00  0.00    +0.314 C 
BRANCH  12  13
ATOM     13  O   UNL     1      33.856 -23.792 -19.515  0.00  0.00    -0.480 OA
ATOM     14  H   UNL     1      33.175 -24.375 -19.241  0.00  0.00    +0.295 HD
ENDBRANCH  12  13
ENDBRANCH  10  12
ENDBRANCH   9  10
ENDBRANCH   8   9
ENDBRANCH   5   8
ENDBRANCH   3   5
ENDBRANCH   1   4
BRANCH   2  15
ATOM     15  C   UNL     1      34.908 -16.583 -25.155  0.00  0.00    +0.052 C 
BRANCH  15  16
ATOM     16  C   UNL     1      33.768 -15.611 -25.070  0.00  0.00    -0.026 C 
ATOM     17  C   UNL     1      33.405 -14.982 -23.942  0.00  0.00    -0.026 C 
BRANCH  17  18
ATOM     18  C   UNL     1      34.094 -15.173 -22.621  0.00  0.00    +0.051 C 
BRANCH  18  19
ATOM     19  C   UNL     1      33.144 -15.668 -21.571  0.00  0.00    -0.026 C 
ATOM     20  C   UNL     1      32.559 -14.874 -20.660  0.00  0.00    -0.026 C 
BRANCH  20  21
ATOM     21  C   UNL     1      32.782 -13.392 -20.579  0.00  0.00    +0.051 C 
BRANCH  21  22
ATOM     22  C   UNL     1      31.753 -12.635 -21.369  0.00  0.00    -0.026 C 
ATOM     23  C   UNL     1      31.115 -11.548 -20.909  0.00  0.00    -0.030 C 
BRANCH  23  24
ATOM     24  C   UNL     1      31.288 -10.890 -19.567  0.00  0.00    +0.026 C 
ATOM     25  C   UNL     1      31.945  -9.516 -19.554  0.00  0.00    +0.005 C 
ENDBRANCH  23  24
ENDBRANCH  21  22
ENDBRANCH  20  21
ENDBRANCH  18  19
ENDBRANCH  17  18
ENDBRANCH  15  16
ENDBRANCH   2  15
TORSDOF 15
ENDMDL
MODEL 5
REMARK VINA RESULT:      -8.2      6.687     10.415
REMARK  Name = 24875302
REMARK  15 active torsions:
REMARK  status: ('A' for Active; 'I' for Inactive)
REMARK    1  A    between atoms: C_1  and  C_4
REMARK    2  A    between atoms: C_2  and  C_15
REMARK    3  A    between atoms: C_3  and  C_5
REMARK    4  A    between atoms: C_5  and  O_6
REMARK    5  A    between atoms: C_5  and  C_8
REMARK    6  A    between atoms: C_8  and  C_9
REMARK    7  A    between atoms: C_9  and  C_10
REMARK    8  A    between atoms: C_10  and  C_12
REMARK    9  A    between atoms: C_12  and  O_13
REMARK   10  A    between atoms: C_15  and  C_16
REMARK   11  A    between atoms: C_17  and  C_18
REMARK   12  A    between atoms: C_18  and  C_19
REMARK   13  A    between atoms: C_20  and  C_21
REMARK   14  A    between atoms: C_21  and  C_22
REMARK   15  A    between atoms: C_23  and  C_24
REMARK                            x       y       z     vdW  Elec       q    Type
REMARK                         _______ _______ _______ _____ _____    ______ ____
ROOT
ATOM      1  C   UNL     1      31.586 -11.122 -19.381  0.00  0.00    -0.004 C 
ATOM      2  C   UNL     1      31.807  -9.800 -19.399  0.00  0.00    -0.021 C 
ENDROOT
BRANCH   1   4
ATOM      3  C   UNL     1      32.369 -13.024 -20.713  0.00  0.00    +0.003 C 
ATOM      4  C   UNL     1      31.592 -11.941 -20.571  0.00  0.00    -0.003 C 
BRANCH   3   5
ATOM      5  C   UNL     1      32.380 -13.885 -21.946  0.00  0.00    +0.132 C 
BRANCH   5   6
ATOM      6  O   UNL     1      32.108 -15.233 -21.555  0.00  0.00    -0.380 OA
ATOM      7  H   UNL     1      32.283 -15.827 -22.302  0.00  0.00    +0.211 HD
ENDBRANCH   5   6
BRANCH   5   8
ATOM      8  C   UNL     1      33.723 -13.856 -22.689  0.00  0.00    +0.034 C 
BRANCH   8   9
ATOM      9  C   UNL     1      33.800 -14.875 -23.831  0.00  0.00    +0.014 C 
BRANCH   9  10
ATOM     10  C   UNL     1      34.905 -15.906 -23.616  0.00  0.00    +0.109 C 
BRANCH  10  12
ATOM     11  O   UNL     1      34.693 -18.246 -24.176  0.00  0.00    -0.250 OA
ATOM     12  C   UNL     1      34.782 -17.084 -24.549  0.00  0.00    +0.314 C 
BRANCH  12  13
ATOM     13  O   UNL     1      34.774 -16.717 -25.855  0.00  0.00    -0.480 OA
ATOM     14  H   UNL     1      35.581 -16.642 -26.326  0.00  0.00    +0.295 HD
ENDBRANCH  12  13
ENDBRANCH  10  12
ENDBRANCH   9  10
ENDBRANCH   8   9
ENDBRANCH   5   8
ENDBRANCH   3   5
ENDBRANCH   1   4
BRANCH   2  15
ATOM     15  C   UNL     1      32.085  -9.020 -20.651  0.00  0.00    +0.052 C 
BRANCH  15  16
ATOM     16  C   UNL     1      32.733  -7.700 -20.348  0.00  0.00    -0.026 C 
ATOM     17  C   UNL     1      32.346  -6.536 -20.890  0.00  0.00    -0.026 C 
BRANCH  17  18
ATOM     18  C   UNL     1      31.216  -6.407 -21.870  0.00  0.00    +0.051 C 
BRANCH  18  19
ATOM     19  C   UNL     1      31.277  -5.104 -22.613  0.00  0.00    -0.026 C 
ATOM     20  C   UNL     1      31.672  -4.993 -23.891  0.00  0.00    -0.026 C 
BRANCH  20  21
ATOM     21  C   UNL     1      32.102  -6.156 -24.736  0.00  0.00    +0.051 C 
BRANCH  21  22
ATOM     22  C   UNL     1      33.515  -5.994 -25.220  0.00  0.00    -0.026 C 
ATOM     23  C   UNL     1      34.556  -6.671 -24.714  0.00  0.00    -0.030 C 
BRANCH  23  24
ATOM     24  C   UNL     1      34.529  -7.689 -23.606  0.00  0.00    +0.026 C 
ATOM     25  C   UNL     1      34.626  -9.153 -24.014  0.00  0.00    +0.005 C 
ENDBRANCH  23  24
ENDBRANCH  21  22
ENDBRANCH  20  21
ENDBRANCH  18  19
ENDBRANCH  17  18
ENDBRANCH  15  16
ENDBRANCH   2  15
TORSDOF 15
ENDMDL
MODEL 6
REMARK VINA RESULT:      -8.2      2.562      5.681
REMARK  Name = 24875302
REMARK  15 active torsions:
REMARK  status: ('A' for Active; 'I' for Inactive)
REMARK    1  A    between atoms: C_1  and  C_4
REMARK    2  A    between atoms: C_2  and  C_15
REMARK    3  A    between atoms: C_3  and  C_5
REMARK    4  A    between atoms: C_5  and  O_6
REMARK    5  A    between atoms: C_5  and  C_8
REMARK    6  A    between atoms: C_8  and  C_9
REMARK    7  A    between atoms: C_9  and  C_10
REMARK    8  A    between atoms: C_10  and  C_12
REMARK    9  A    between atoms: C_12  and  O_13
REMARK   10  A    between atoms: C_15  and  C_16
REMARK   11  A    between atoms: C_17  and  C_18
REMARK   12  A    between atoms: C_18  and  C_19
REMARK   13  A    between atoms: C_20  and  C_21
REMARK   14  A    between atoms: C_21  and  C_22
REMARK   15  A    between atoms: C_23  and  C_24
REMARK                            x       y       z     vdW  Elec       q    Type
REMARK                         _______ _______ _______ _____ _____    ______ ____
ROOT
ATOM      1  C   UNL     1      35.021 -24.348 -14.535  0.00  0.00    -0.004 C 
ATOM      2  C   UNL     1      35.506 -23.913 -15.707  0.00  0.00    -0.021 C 
ENDROOT
BRANCH   1   4
ATOM      3  C   UNL     1      32.618 -24.339 -14.058  0.00  0.00    +0.003 C 
ATOM      4  C   UNL     1      33.837 -23.798 -13.917  0.00  0.00    -0.003 C 
BRANCH   3   5
ATOM      5  C   UNL     1      31.379 -23.777 -13.416  0.00  0.00    +0.132 C 
BRANCH   5   6
ATOM      6  O   UNL     1      30.571 -24.868 -12.969  0.00  0.00    -0.380 OA
ATOM      7  H   UNL     1      29.655 -24.732 -13.261  0.00  0.00    +0.211 HD
ENDBRANCH   5   6
BRANCH   5   8
ATOM      8  C   UNL     1      30.544 -22.914 -14.373  0.00  0.00    +0.034 C 
BRANCH   8   9
ATOM      9  C   UNL     1      30.206 -23.627 -15.687  0.00  0.00    +0.014 C 
BRANCH   9  10
ATOM     10  C   UNL     1      28.714 -23.921 -15.821  0.00  0.00    +0.109 C 
BRANCH  10  12
ATOM     11  O   UNL     1      27.980 -21.764 -16.622  0.00  0.00    -0.250 OA
ATOM     12  C   UNL     1      28.026 -22.976 -16.775  0.00  0.00    +0.314 C 
BRANCH  12  13
ATOM     13  O   UNL     1      27.465 -23.618 -17.831  0.00  0.00    -0.480 OA
ATOM     14  H   UNL     1      27.998 -24.140 -18.399  0.00  0.00    +0.295 HD
ENDBRANCH  12  13
ENDBRANCH  10  12
ENDBRANCH   9  10
ENDBRANCH   8   9
ENDBRANCH   5   8
ENDBRANCH   3   5
ENDBRANCH   1   4
BRANCH   2  15
ATOM     15  C   UNL     1      34.877 -22.812 -16.511  0.00  0.00    +0.052 C 
BRANCH  15  16
ATOM     16  C   UNL     1      33.785 -23.332 -17.400  0.00  0.00    -0.026 C 
ATOM     17  C   UNL     1      33.472 -22.795 -18.589  0.00  0.00    -0.026 C 
BRANCH  17  18
ATOM     18  C   UNL     1      34.174 -21.607 -19.180  0.00  0.00    +0.051 C 
BRANCH  18  19
ATOM     19  C   UNL     1      33.214 -20.690 -19.879  0.00  0.00    -0.026 C 
ATOM     20  C   UNL     1      33.568 -19.852 -20.866  0.00  0.00    -0.026 C 
BRANCH  20  21
ATOM     21  C   UNL     1      34.966 -19.726 -21.393  0.00  0.00    +0.051 C 
BRANCH  21  22
ATOM     22  C   UNL     1      35.396 -18.290 -21.482  0.00  0.00    -0.026 C 
ATOM     23  C   UNL     1      35.445 -17.598 -22.630  0.00  0.00    -0.030 C 
BRANCH  23  24
ATOM     24  C   UNL     1      35.095 -18.093 -24.008  0.00  0.00    +0.026 C 
ATOM     25  C   UNL     1      34.739 -17.040 -25.048  0.00  0.00    +0.005 C 
ENDBRANCH  23  24
ENDBRANCH  21  22
ENDBRANCH  20  21
ENDBRANCH  18  19
ENDBRANCH  17  18
ENDBRANCH  15  16
ENDBRANCH   2  15
TORSDOF 15
ENDMDL
MODEL 7
REMARK VINA RESULT:      -8.2      1.762      3.515
REMARK  Name = 24875302
REMARK  15 active torsions:
REMARK  status: ('A' for Active; 'I' for Inactive)
REMARK    1  A    between atoms: C_1  and  C_4
REMARK    2  A    between atoms: C_2  and  C_15
REMARK    3  A    between atoms: C_3  and  C_5
REMARK    4  A    between atoms: C_5  and  O_6
REMARK    5  A    between atoms: C_5  and  C_8
REMARK    6  A    between atoms: C_8  and  C_9
REMARK    7  A    between atoms: C_9  and  C_10
REMARK    8  A    between atoms: C_10  and  C_12
REMARK    9  A    between atoms: C_12  and  O_13
REMARK   10  A    between atoms: C_15  and  C_16
REMARK   11  A    between atoms: C_17  and  C_18
REMARK   12  A    between atoms: C_18  and  C_19
REMARK   13  A    between atoms: C_20  and  C_21
REMARK   14  A    between atoms: C_21  and  C_22
REMARK   15  A    between atoms: C_23  and  C_24
REMARK                            x       y       z     vdW  Elec       q    Type
REMARK                         _______ _______ _______ _____ _____    ______ ____
ROOT
ATOM      1  C   UNL     1      33.477 -23.437 -18.324  0.00  0.00    -0.004 C 
ATOM      2  C   UNL     1      34.065 -22.768 -19.327  0.00  0.00    -0.021 C 
ENDROOT
BRANCH   1   4
ATOM      3  C   UNL     1      32.122 -23.453 -16.282  0.00  0.00    +0.003 C 
ATOM      4  C   UNL     1      32.643 -22.799 -17.331  0.00  0.00    -0.003 C 
BRANCH   3   5
ATOM      5  C   UNL     1      31.257 -22.798 -15.241  0.00  0.00    +0.132 C 
BRANCH   5   6
ATOM      6  O   UNL     1      32.094 -22.378 -14.161  0.00  0.00    -0.380 OA
ATOM      7  H   UNL     1      32.244 -21.421 -14.221  0.00  0.00    +0.211 HD
ENDBRANCH   5   6
BRANCH   5   8
ATOM      8  C   UNL     1      30.176 -23.733 -14.681  0.00  0.00    +0.034 C 
BRANCH   8   9
ATOM      9  C   UNL     1      28.947 -23.844 -15.591  0.00  0.00    +0.014 C 
BRANCH   9  10
ATOM     10  C   UNL     1      28.188 -22.525 -15.705  0.00  0.00    +0.109 C 
BRANCH  10  12
ATOM     11  O   UNL     1      26.946 -21.348 -17.410  0.00  0.00    -0.250 OA
ATOM     12  C   UNL     1      27.491 -22.377 -17.034  0.00  0.00    +0.314 C 
BRANCH  12  13
ATOM     13  O   UNL     1      27.535 -23.512 -17.776  0.00  0.00    -0.480 OA
ATOM     14  H   UNL     1      28.362 -23.898 -17.992  0.00  0.00    +0.295 HD
ENDBRANCH  12  13
ENDBRANCH  10  12
ENDBRANCH   9  10
ENDBRANCH   8   9
ENDBRANCH   5   8
ENDBRANCH   3   5
ENDBRANCH   1   4
BRANCH   2  15
ATOM     15  C   UNL     1      33.927 -21.287 -19.533  0.00  0.00    +0.052 C 
BRANCH  15  16
ATOM     16  C   UNL     1      35.239 -20.656 -19.900  0.00  0.00    -0.026 C 
ATOM     17  C   UNL     1      35.380 -19.732 -20.863  0.00  0.00    -0.026 C 
BRANCH  17  18
ATOM     18  C   UNL     1      34.242 -19.214 -21.695  0.00  0.00    +0.051 C 
BRANCH  18  19
ATOM     19  C   UNL     1      34.580 -19.224 -23.157  0.00  0.00    -0.026 C 
ATOM     20  C   UNL     1      35.042 -18.154 -23.823  0.00  0.00    -0.026 C 
BRANCH  20  21
ATOM     21  C   UNL     1      35.279 -16.815 -23.189  0.00  0.00    +0.051 C 
BRANCH  21  22
ATOM     22  C   UNL     1      34.360 -15.768 -23.751  0.00  0.00    -0.026 C 
ATOM     23  C   UNL     1      33.651 -14.917 -22.994  0.00  0.00    -0.030 C 
BRANCH  23  24
ATOM     24  C   UNL     1      33.630 -14.836 -21.492  0.00  0.00    +0.026 C 
ATOM     25  C   UNL     1      32.566 -15.654 -20.774  0.00  0.00    +0.005 C 
ENDBRANCH  23  24
ENDBRANCH  21  22
ENDBRANCH  20  21
ENDBRANCH  18  19
ENDBRANCH  17  18
ENDBRANCH  15  16
ENDBRANCH   2  15
TORSDOF 15
ENDMDL
MODEL 8
REMARK VINA RESULT:      -8.1      3.422      5.087
REMARK  Name = 24875302
REMARK  15 active torsions:
REMARK  status: ('A' for Active; 'I' for Inactive)
REMARK    1  A    between atoms: C_1  and  C_4
REMARK    2  A    between atoms: C_2  and  C_15
REMARK    3  A    between atoms: C_3  and  C_5
REMARK    4  A    between atoms: C_5  and  O_6
REMARK    5  A    between atoms: C_5  and  C_8
REMARK    6  A    between atoms: C_8  and  C_9
REMARK    7  A    between atoms: C_9  and  C_10
REMARK    8  A    between atoms: C_10  and  C_12
REMARK    9  A    between atoms: C_12  and  O_13
REMARK   10  A    between atoms: C_15  and  C_16
REMARK   11  A    between atoms: C_17  and  C_18
REMARK   12  A    between atoms: C_18  and  C_19
REMARK   13  A    between atoms: C_20  and  C_21
REMARK   14  A    between atoms: C_21  and  C_22
REMARK   15  A    between atoms: C_23  and  C_24
REMARK                            x       y       z     vdW  Elec       q    Type
REMARK                         _______ _______ _______ _____ _____    ______ ____
ROOT
ATOM      1  C   UNL     1      36.796 -21.228 -18.324  0.00  0.00    -0.004 C 
ATOM      2  C   UNL     1      35.992 -21.343 -19.392  0.00  0.00    -0.021 C 
ENDROOT
BRANCH   1   4
ATOM      3  C   UNL     1      37.659 -22.510 -16.423  0.00  0.00    +0.003 C 
ATOM      4  C   UNL     1      36.629 -22.012 -17.122  0.00  0.00    -0.003 C 
BRANCH   3   5
ATOM      5  C   UNL     1      37.496 -23.323 -15.168  0.00  0.00    +0.132 C 
BRANCH   5   6
ATOM      6  O   UNL     1      38.754 -23.927 -14.857  0.00  0.00    -0.380 OA
ATOM      7  H   UNL     1      39.213 -23.392 -14.190  0.00  0.00    +0.211 HD
ENDBRANCH   5   6
BRANCH   5   8
ATOM      8  C   UNL     1      36.445 -24.433 -15.302  0.00  0.00    +0.034 C 
BRANCH   8   9
ATOM      9  C   UNL     1      35.438 -24.451 -14.147  0.00  0.00    +0.014 C 
BRANCH   9  10
ATOM     10  C   UNL     1      36.063 -24.925 -12.838  0.00  0.00    +0.109 C 
BRANCH  10  12
ATOM     11  O   UNL     1      35.365 -25.047 -10.529  0.00  0.00    -0.250 OA
ATOM     12  C   UNL     1      35.239 -24.540 -11.635  0.00  0.00    +0.314 C 
BRANCH  12  13
ATOM     13  O   UNL     1      34.340 -23.561 -11.909  0.00  0.00    -0.480 OA
ATOM     14  H   UNL     1      33.522 -23.776 -12.313  0.00  0.00    +0.295 HD
ENDBRANCH  12  13
ENDBRANCH  10  12
ENDBRANCH   9  10
ENDBRANCH   8   9
ENDBRANCH   5   8
ENDBRANCH   3   5
ENDBRANCH   1   4
BRANCH   2  15
ATOM     15  C   UNL     1      34.833 -22.294 -19.462  0.00  0.00    +0.052 C 
BRANCH  15  16
ATOM     16  C   UNL     1      33.539 -21.614 -19.120  0.00  0.00    -0.026 C 
ATOM     17  C   UNL     1      32.988 -20.641 -19.862  0.00  0.00    -0.026 C 
BRANCH  17  18
ATOM     18  C   UNL     1      33.598 -20.111 -21.128  0.00  0.00    +0.051 C 
BRANCH  18  19
ATOM     19  C   UNL     1      33.873 -18.639 -21.032  0.00  0.00    -0.026 C 
ATOM     20  C   UNL     1      34.741 -17.989 -21.824  0.00  0.00    -0.026 C 
BRANCH  20  21
ATOM     21  C   UNL     1      35.544 -18.653 -22.903  0.00  0.00    +0.051 C 
BRANCH  21  22
ATOM     22  C   UNL     1      34.688 -19.019 -24.082  0.00  0.00    -0.026 C 
ATOM     23  C   UNL     1      34.373 -18.164 -25.066  0.00  0.00    -0.030 C 
BRANCH  23  24
ATOM     24  C   UNL     1      34.791 -16.724 -25.190  0.00  0.00    +0.026 C 
ATOM     25  C   UNL     1      33.873 -15.685 -24.561  0.00  0.00    +0.005 C 
ENDBRANCH  23  24
ENDBRANCH  21  22
ENDBRANCH  20  21
ENDBRANCH  18  19
ENDBRANCH  17  18
ENDBRANCH  15  16
ENDBRANCH   2  15
TORSDOF 15
ENDMDL
MODEL 9
REMARK VINA RESULT:      -8.1      5.912      9.813
REMARK  Name = 24875302
REMARK  15 active torsions:
REMARK  status: ('A' for Active; 'I' for Inactive)
REMARK    1  A    between atoms: C_1  and  C_4
REMARK    2  A    between atoms: C_2  and  C_15
REMARK    3  A    between atoms: C_3  and  C_5
REMARK    4  A    between atoms: C_5  and  O_6
REMARK    5  A    between atoms: C_5  and  C_8
REMARK    6  A    between atoms: C_8  and  C_9
REMARK    7  A    between atoms: C_9  and  C_10
REMARK    8  A    between atoms: C_10  and  C_12
REMARK    9  A    between atoms: C_12  and  O_13
REMARK   10  A    between atoms: C_15  and  C_16
REMARK   11  A    between atoms: C_17  and  C_18
REMARK   12  A    between atoms: C_18  and  C_19
REMARK   13  A    between atoms: C_20  and  C_21
REMARK   14  A    between atoms: C_21  and  C_22
REMARK   15  A    between atoms: C_23  and  C_24
REMARK                            x       y       z     vdW  Elec       q    Type
REMARK                         _______ _______ _______ _____ _____    ______ ____
ROOT
ATOM      1  C   UNL     1      34.236 -11.423 -24.699  0.00  0.00    -0.004 C 
ATOM      2  C   UNL     1      34.625 -10.140 -24.644  0.00  0.00    -0.021 C 
ENDROOT
BRANCH   1   4
ATOM      3  C   UNL     1      33.446 -13.214 -23.225  0.00  0.00    +0.003 C 
ATOM      4  C   UNL     1      33.288 -12.001 -23.774  0.00  0.00    -0.003 C 
BRANCH   3   5
ATOM      5  C   UNL     1      32.468 -13.823 -22.259  0.00  0.00    +0.132 C 
BRANCH   5   6
ATOM      6  O   UNL     1      31.488 -12.836 -21.930  0.00  0.00    -0.380 OA
ATOM      7  H   UNL     1      31.182 -12.976 -21.020  0.00  0.00    +0.211 HD
ENDBRANCH   5   6
BRANCH   5   8
ATOM      8  C   UNL     1      33.127 -14.305 -20.959  0.00  0.00    +0.034 C 
BRANCH   8   9
ATOM      9  C   UNL     1      34.560 -14.812 -21.162  0.00  0.00    +0.014 C 
BRANCH   9  10
ATOM     10  C   UNL     1      34.642 -16.336 -21.166  0.00  0.00    +0.109 C 
BRANCH  10  12
ATOM     11  O   UNL     1      34.619 -18.017 -22.899  0.00  0.00    -0.250 OA
ATOM     12  C   UNL     1      34.933 -16.892 -22.537  0.00  0.00    +0.314 C 
BRANCH  12  13
ATOM     13  O   UNL     1      35.578 -16.003 -23.335  0.00  0.00    -0.480 OA
ATOM     14  H   UNL     1      35.141 -15.639 -24.080  0.00  0.00    +0.295 HD
ENDBRANCH  12  13
ENDBRANCH  10  12
ENDBRANCH   9  10
ENDBRANCH   8   9
ENDBRANCH   5   8
ENDBRANCH   3   5
ENDBRANCH   1   4
BRANCH   2  15
ATOM     15  C   UNL     1      34.124  -9.161 -23.622  0.00  0.00    +0.052 C 
BRANCH  15  16
ATOM     16  C   UNL     1      34.863  -7.857 -23.697  0.00  0.00    -0.026 C 
ATOM     17  C   UNL     1      34.334  -6.727 -24.191  0.00  0.00    -0.026 C 
BRANCH  17  18
ATOM     18  C   UNL     1      32.936  -6.625 -24.730  0.00  0.00    +0.051 C 
BRANCH  18  19
ATOM     19  C   UNL     1      32.184  -5.490 -24.101  0.00  0.00    -0.026 C 
ATOM     20  C   UNL     1      31.458  -5.608 -22.979  0.00  0.00    -0.026 C 
BRANCH  20  21
ATOM     21  C   UNL     1      31.307  -6.889 -22.213  0.00  0.00    +0.051 C 
BRANCH  21  22
ATOM     22  C   UNL     1      32.256  -6.952 -21.050  0.00  0.00    -0.026 C 
ATOM     23  C   UNL     1      32.530  -8.078 -20.375  0.00  0.00    -0.030 C 
BRANCH  23  24
ATOM     24  C   UNL     1      31.971  -9.451 -20.629  0.00  0.00    +0.026 C 
ATOM     25  C   UNL     1      31.623 -10.289 -19.406  0.00  0.00    +0.005 C 
ENDBRANCH  23  24
ENDBRANCH  21  22
ENDBRANCH  20  21
ENDBRANCH  18  19
ENDBRANCH  17  18
ENDBRANCH  15  16
ENDBRANCH   2  15
TORSDOF 15
ENDMDL
