MODEL 1
REMARK VINA RESULT:      -9.8      0.000      0.000
REMARK  Name = 448610
REMARK  2 active torsions:
REMARK  status: ('A' for Active; 'I' for Inactive)
REMARK    1  A    between atoms: C_3  and  N_11
REMARK    2  A    between atoms: C_5  and  C_21
REMARK                            x       y       z     vdW  Elec       q    Type
REMARK                         _______ _______ _______ _____ _____    ______ ____
ROOT
ATOM      1  C   UNL     1      34.773 -22.786 -16.435  0.00  0.00    +0.014 C 
ATOM      2  C   UNL     1      34.061 -22.578 -17.641  0.00  0.00    +0.001 C 
ATOM      3  C   UNL     1      36.144 -22.490 -16.388  0.00  0.00    +0.057 C 
ATOM      4  C   UNL     1      34.090 -23.285 -15.314  0.00  0.00    +0.004 C 
ATOM      5  C   UNL     1      32.727 -23.574 -15.379  0.00  0.00    +0.031 C 
ATOM      6  C   UNL     1      32.689 -22.875 -17.689  0.00  0.00    +0.000 C 
ATOM      7  C   UNL     1      34.742 -22.079 -18.763  0.00  0.00    +0.000 C 
ATOM      8  C   UNL     1      36.805 -21.994 -17.512  0.00  0.00    +0.015 C 
ATOM      9  C   UNL     1      32.028 -23.370 -16.565  0.00  0.00    +0.003 C 
ATOM     10  C   UNL     1      36.106 -21.790 -18.698  0.00  0.00    +0.001 C 
ENDROOT
BRANCH   3  11
ATOM     11  N   UNL     1      36.905 -22.681 -15.208  0.00  0.00    -0.257 N 
ATOM     12  N   UNL     1      38.129 -23.645 -13.454  0.00  0.00    -0.180 NA
ATOM     13  N   UNL     1      37.218 -25.006 -15.221  0.00  0.00    -0.203 NA
ATOM     14  C   UNL     1      37.441 -23.828 -14.601  0.00  0.00    +0.091 C 
ATOM     15  C   UNL     1      38.629 -24.768 -12.898  0.00  0.00    +0.108 C 
ATOM     16  C   UNL     1      37.747 -26.087 -14.612  0.00  0.00    +0.165 C 
ATOM     17  C   UNL     1      38.469 -26.028 -13.438  0.00  0.00    +0.022 C 
ATOM     18  H   UNL     1      37.094 -21.848 -14.719  0.00  0.00    +0.164 HD
ENDBRANCH   3  11
BRANCH   5  21
ATOM     19  N   UNL     1      30.779 -23.608 -13.839  0.00  0.00    -0.343 N 
ATOM     20  N   UNL     1      32.600 -25.026 -13.468  0.00  0.00    -0.285 NA
ATOM     21  C   UNL     1      32.034 -24.088 -14.208  0.00  0.00    +0.117 C 
ATOM     22  H   UNL     1      30.329 -23.970 -13.042  0.00  0.00    +0.144 HD
ATOM     23  H   UNL     1      30.344 -22.907 -14.376  0.00  0.00    +0.144 HD
ATOM     24  H   UNL     1      32.132 -25.375 -12.675  0.00  0.00    +0.188 HD
ENDBRANCH   5  21
TORSDOF 2
ENDMDL
MODEL 2
REMARK VINA RESULT:      -9.2      2.992      5.272
REMARK  Name = 448610
REMARK  2 active torsions:
REMARK  status: ('A' for Active; 'I' for Inactive)
REMARK    1  A    between atoms: C_3  and  N_11
REMARK    2  A    between atoms: C_5  and  C_21
REMARK                            x       y       z     vdW  Elec       q    Type
REMARK                         _______ _______ _______ _____ _____    ______ ____
ROOT
ATOM      1  C   UNL     1      31.869 -23.646 -15.827  0.00  0.00    +0.014 C 
ATOM      2  C   UNL     1      31.849 -24.281 -14.563  0.00  0.00    +0.001 C 
ATOM      3  C   UNL     1      33.103 -23.367 -16.436  0.00  0.00    +0.057 C 
ATOM      4  C   UNL     1      30.654 -23.308 -16.444  0.00  0.00    +0.004 C 
ATOM      5  C   UNL     1      29.437 -23.592 -15.825  0.00  0.00    +0.031 C 
ATOM      6  C   UNL     1      30.614 -24.560 -13.953  0.00  0.00    +0.000 C 
ATOM      7  C   UNL     1      33.064 -24.620 -13.944  0.00  0.00    +0.000 C 
ATOM      8  C   UNL     1      34.301 -23.710 -15.808  0.00  0.00    +0.015 C 
ATOM      9  C   UNL     1      29.417 -24.216 -14.582  0.00  0.00    +0.003 C 
ATOM     10  C   UNL     1      34.281 -24.335 -14.564  0.00  0.00    +0.001 C 
ENDROOT
BRANCH   3  11
ATOM     11  N   UNL     1      33.182 -22.731 -17.699  0.00  0.00    -0.257 N 
ATOM     12  N   UNL     1      33.967 -21.636 -19.620  0.00  0.00    -0.180 NA
ATOM     13  N   UNL     1      35.471 -22.233 -17.835  0.00  0.00    -0.203 NA
ATOM     14  C   UNL     1      34.254 -22.176 -18.417  0.00  0.00    +0.091 C 
ATOM     15  C   UNL     1      35.019 -21.112 -20.281  0.00  0.00    +0.108 C 
ATOM     16  C   UNL     1      36.477 -21.691 -18.551  0.00  0.00    +0.165 C 
ATOM     17  C   UNL     1      36.309 -21.111 -19.791  0.00  0.00    +0.022 C 
ATOM     18  H   UNL     1      32.316 -22.665 -18.164  0.00  0.00    +0.164 HD
ENDBRANCH   3  11
BRANCH   5  21
ATOM     19  N   UNL     1      27.343 -22.263 -15.950  0.00  0.00    -0.343 N 
ATOM     20  N   UNL     1      27.831 -23.851 -17.595  0.00  0.00    -0.285 NA
ATOM     21  C   UNL     1      28.186 -23.238 -16.478  0.00  0.00    +0.117 C 
ATOM     22  H   UNL     1      26.501 -22.040 -16.409  0.00  0.00    +0.144 HD
ATOM     23  H   UNL     1      27.589 -21.798 -15.118  0.00  0.00    +0.144 HD
ATOM     24  H   UNL     1      26.985 -23.612 -18.038  0.00  0.00    +0.188 HD
ENDBRANCH   5  21
TORSDOF 2
ENDMDL
MODEL 3
REMARK VINA RESULT:      -9.2      1.798      5.719
REMARK  Name = 448610
REMARK  2 active torsions:
REMARK  status: ('A' for Active; 'I' for Inactive)
REMARK    1  A    between atoms: C_3  and  N_11
REMARK    2  A    between atoms: C_5  and  C_21
REMARK                            x       y       z     vdW  Elec       q    Type
REMARK                         _______ _______ _______ _____ _____    ______ ____
ROOT
ATOM      1  C   UNL     1      34.880 -22.850 -16.733  0.00  0.00    +0.014 C 
ATOM      2  C   UNL     1      35.740 -22.157 -17.618  0.00  0.00    +0.001 C 
ATOM      3  C   UNL     1      33.550 -23.087 -17.114  0.00  0.00    +0.057 C 
ATOM      4  C   UNL     1      35.377 -23.284 -15.493  0.00  0.00    +0.004 C 
ATOM      5  C   UNL     1      36.702 -23.040 -15.131  0.00  0.00    +0.031 C 
ATOM      6  C   UNL     1      37.071 -21.920 -17.237  0.00  0.00    +0.000 C 
ATOM      7  C   UNL     1      35.244 -21.723 -18.858  0.00  0.00    +0.000 C 
ATOM      8  C   UNL     1      33.073 -22.649 -18.350  0.00  0.00    +0.015 C 
ATOM      9  C   UNL     1      37.547 -22.358 -16.001  0.00  0.00    +0.003 C 
ATOM     10  C   UNL     1      33.919 -21.967 -19.220  0.00  0.00    +0.001 C 
ENDROOT
BRANCH   3  11
ATOM     11  N   UNL     1      32.645 -23.773 -16.267  0.00  0.00    -0.257 N 
ATOM     12  N   UNL     1      30.704 -24.493 -15.163  0.00  0.00    -0.180 NA
ATOM     13  N   UNL     1      30.611 -22.741 -16.814  0.00  0.00    -0.203 NA
ATOM     14  C   UNL     1      31.259 -23.665 -16.073  0.00  0.00    +0.091 C 
ATOM     15  C   UNL     1      29.371 -24.361 -15.002  0.00  0.00    +0.108 C 
ATOM     16  C   UNL     1      29.280 -22.663 -16.603  0.00  0.00    +0.165 C 
ATOM     17  C   UNL     1      28.600 -23.455 -15.701  0.00  0.00    +0.022 C 
ATOM     18  H   UNL     1      33.072 -24.459 -15.704  0.00  0.00    +0.164 HD
ENDBRANCH   3  11
BRANCH   5  21
ATOM     19  N   UNL     1      36.512 -23.233 -12.662  0.00  0.00    -0.343 N 
ATOM     20  N   UNL     1      38.334 -24.177 -13.783  0.00  0.00    -0.285 NA
ATOM     21  C   UNL     1      37.201 -23.498 -13.844  0.00  0.00    +0.117 C 
ATOM     22  H   UNL     1      36.870 -23.553 -11.803  0.00  0.00    +0.144 HD
ATOM     23  H   UNL     1      35.669 -22.726 -12.688  0.00  0.00    +0.144 HD
ATOM     24  H   UNL     1      38.673 -24.489 -12.913  0.00  0.00    +0.188 HD
ENDBRANCH   5  21
TORSDOF 2
ENDMDL
MODEL 4
REMARK VINA RESULT:      -9.2     12.961     15.136
REMARK  Name = 448610
REMARK  2 active torsions:
REMARK  status: ('A' for Active; 'I' for Inactive)
REMARK    1  A    between atoms: C_3  and  N_11
REMARK    2  A    between atoms: C_5  and  C_21
REMARK                            x       y       z     vdW  Elec       q    Type
REMARK                         _______ _______ _______ _____ _____    ______ ____
ROOT
ATOM      1  C   UNL     1      33.685 -10.029 -23.608  0.00  0.00    +0.014 C 
ATOM      2  C   UNL     1      34.481  -9.169 -24.401  0.00  0.00    +0.001 C 
ATOM      3  C   UNL     1      33.547 -11.375 -23.981  0.00  0.00    +0.057 C 
ATOM      4  C   UNL     1      33.050  -9.516 -22.465  0.00  0.00    +0.004 C 
ATOM      5  C   UNL     1      33.199  -8.176 -22.108  0.00  0.00    +0.031 C 
ATOM      6  C   UNL     1      34.620  -7.822 -24.027  0.00  0.00    +0.000 C 
ATOM      7  C   UNL     1      35.117  -9.681 -25.544  0.00  0.00    +0.000 C 
ATOM      8  C   UNL     1      34.186 -11.868 -25.120  0.00  0.00    +0.015 C 
ATOM      9  C   UNL     1      33.981  -7.331 -22.888  0.00  0.00    +0.003 C 
ATOM     10  C   UNL     1      34.969 -11.022 -25.900  0.00  0.00    +0.001 C 
ENDROOT
BRANCH   3  11
ATOM     11  N   UNL     1      32.761 -12.279 -23.226  0.00  0.00    -0.257 N 
ATOM     12  N   UNL     1      32.052 -14.099 -21.926  0.00  0.00    -0.180 NA
ATOM     13  N   UNL     1      34.349 -13.897 -22.623  0.00  0.00    -0.203 NA
ATOM     14  C   UNL     1      33.067 -13.478 -22.562  0.00  0.00    +0.091 C 
ATOM     15  C   UNL     1      32.382 -15.248 -21.299  0.00  0.00    +0.108 C 
ATOM     16  C   UNL     1      34.609 -15.051 -21.974  0.00  0.00    +0.165 C 
ATOM     17  C   UNL     1      33.657 -15.776 -21.289  0.00  0.00    +0.022 C 
ATOM     18  H   UNL     1      31.815 -12.016 -23.153  0.00  0.00    +0.164 HD
ENDBRANCH   3  11
BRANCH   5  21
ATOM     19  N   UNL     1      31.769  -6.498 -20.964  0.00  0.00    -0.343 N 
ATOM     20  N   UNL     1      32.662  -8.298 -19.769  0.00  0.00    -0.285 NA
ATOM     21  C   UNL     1      32.537  -7.661 -20.920  0.00  0.00    +0.117 C 
ATOM     22  H   UNL     1      31.330  -6.168 -20.147  0.00  0.00    +0.144 HD
ATOM     23  H   UNL     1      31.667  -6.009 -21.812  0.00  0.00    +0.144 HD
ATOM     24  H   UNL     1      32.215  -7.950 -18.964  0.00  0.00    +0.188 HD
ENDBRANCH   5  21
TORSDOF 2
ENDMDL
MODEL 5
REMARK VINA RESULT:      -9.0      2.478      6.254
REMARK  Name = 448610
REMARK  2 active torsions:
REMARK  status: ('A' for Active; 'I' for Inactive)
REMARK    1  A    between atoms: C_3  and  N_11
REMARK    2  A    between atoms: C_5  and  C_21
REMARK                            x       y       z     vdW  Elec       q    Type
REMARK                         _______ _______ _______ _____ _____    ______ ____
ROOT
ATOM      1  C   UNL     1      36.695 -24.090 -14.540  0.00  0.00    +0.014 C 
ATOM      2  C   UNL     1      36.066 -24.828 -13.510  0.00  0.00    +0.001 C 
ATOM      3  C   UNL     1      35.948 -23.147 -15.264  0.00  0.00    +0.057 C 
ATOM      4  C   UNL     1      38.053 -24.319 -14.817  0.00  0.00    +0.004 C 
ATOM      5  C   UNL     1      38.780 -25.260 -14.088  0.00  0.00    +0.031 C 
ATOM      6  C   UNL     1      36.813 -25.772 -12.786  0.00  0.00    +0.000 C 
ATOM      7  C   UNL     1      34.708 -24.600 -13.232  0.00  0.00    +0.000 C 
ATOM      8  C   UNL     1      34.600 -22.932 -14.975  0.00  0.00    +0.015 C 
ATOM      9  C   UNL     1      38.161 -25.985 -13.075  0.00  0.00    +0.003 C 
ATOM     10  C   UNL     1      33.981 -23.659 -13.962  0.00  0.00    +0.001 C 
ENDROOT
BRANCH   3  11
ATOM     11  N   UNL     1      36.527 -22.382 -16.307  0.00  0.00    -0.257 N 
ATOM     12  N   UNL     1      36.909 -21.290 -18.348  0.00  0.00    -0.180 NA
ATOM     13  N   UNL     1      34.882 -22.537 -17.973  0.00  0.00    -0.203 NA
ATOM     14  C   UNL     1      36.087 -22.055 -17.599  0.00  0.00    +0.091 C 
ATOM     15  C   UNL     1      36.455 -20.995 -19.583  0.00  0.00    +0.108 C 
ATOM     16  C   UNL     1      34.490 -22.203 -19.220  0.00  0.00    +0.165 C 
ATOM     17  C   UNL     1      35.242 -21.428 -20.078  0.00  0.00    +0.022 C 
ATOM     18  H   UNL     1      37.409 -22.008 -16.082  0.00  0.00    +0.164 HD
ENDBRANCH   3  11
BRANCH   5  21
ATOM     19  N   UNL     1      40.784 -26.725 -14.177  0.00  0.00    -0.343 N 
ATOM     20  N   UNL     1      40.924 -24.493 -14.859  0.00  0.00    -0.285 NA
ATOM     21  C   UNL     1      40.187 -25.483 -14.385  0.00  0.00    +0.117 C 
ATOM     22  H   UNL     1      41.738 -26.853 -14.384  0.00  0.00    +0.144 HD
ATOM     23  H   UNL     1      40.251 -27.473 -13.821  0.00  0.00    +0.144 HD
ATOM     24  H   UNL     1      41.876 -24.643 -15.060  0.00  0.00    +0.188 HD
ENDBRANCH   5  21
TORSDOF 2
ENDMDL
MODEL 6
REMARK VINA RESULT:      -8.9      9.342     12.112
REMARK  Name = 448610
REMARK  2 active torsions:
REMARK  status: ('A' for Active; 'I' for Inactive)
REMARK    1  A    between atoms: C_3  and  N_11
REMARK    2  A    between atoms: C_5  and  C_21
REMARK                            x       y       z     vdW  Elec       q    Type
REMARK                         _______ _______ _______ _____ _____    ______ ____
ROOT
ATOM      1  C   UNL     1      33.861 -15.965 -23.401  0.00  0.00    +0.014 C 
ATOM      2  C   UNL     1      34.109 -16.431 -24.713  0.00  0.00    +0.001 C 
ATOM      3  C   UNL     1      33.280 -14.700 -23.219  0.00  0.00    +0.057 C 
ATOM      4  C   UNL     1      34.203 -16.779 -22.308  0.00  0.00    +0.004 C 
ATOM      5  C   UNL     1      34.779 -18.034 -22.507  0.00  0.00    +0.031 C 
ATOM      6  C   UNL     1      34.690 -17.697 -24.895  0.00  0.00    +0.000 C 
ATOM      7  C   UNL     1      33.768 -15.618 -25.807  0.00  0.00    +0.000 C 
ATOM      8  C   UNL     1      32.947 -13.905 -24.316  0.00  0.00    +0.015 C 
ATOM      9  C   UNL     1      35.023 -18.491 -23.798  0.00  0.00    +0.003 C 
ATOM     10  C   UNL     1      33.191 -14.363 -25.608  0.00  0.00    +0.001 C 
ENDROOT
BRANCH   3  11
ATOM     11  N   UNL     1      33.013 -14.184 -21.928  0.00  0.00    -0.257 N 
ATOM     12  N   UNL     1      32.269 -12.841 -20.153  0.00  0.00    -0.180 NA
ATOM     13  N   UNL     1      31.826 -12.225 -22.439  0.00  0.00    -0.203 NA
ATOM     14  C   UNL     1      32.339 -13.033 -21.487  0.00  0.00    +0.091 C 
ATOM     15  C   UNL     1      31.616 -11.726 -19.765  0.00  0.00    +0.108 C 
ATOM     16  C   UNL     1      31.186 -11.129 -21.982  0.00  0.00    +0.165 C 
ATOM     17  C   UNL     1      31.049 -10.826 -20.643  0.00  0.00    +0.022 C 
ATOM     18  H   UNL     1      33.368 -14.739 -21.197  0.00  0.00    +0.164 HD
ENDBRANCH   3  11
BRANCH   5  21
ATOM     19  N   UNL     1      34.291 -19.900 -20.942  0.00  0.00    -0.343 N 
ATOM     20  N   UNL     1      36.248 -18.643 -20.704  0.00  0.00    -0.285 NA
ATOM     21  C   UNL     1      35.125 -18.866 -21.365  0.00  0.00    +0.117 C 
ATOM     22  H   UNL     1      34.545 -20.450 -20.166  0.00  0.00    +0.144 HD
ATOM     23  H   UNL     1      33.449 -20.079 -21.420  0.00  0.00    +0.144 HD
ATOM     24  H   UNL     1      36.483 -19.206 -19.931  0.00  0.00    +0.188 HD
ENDBRANCH   5  21
TORSDOF 2
ENDMDL
MODEL 7
REMARK VINA RESULT:      -8.9     13.333     15.636
REMARK  Name = 448610
REMARK  2 active torsions:
REMARK  status: ('A' for Active; 'I' for Inactive)
REMARK    1  A    between atoms: C_3  and  N_11
REMARK    2  A    between atoms: C_5  and  C_21
REMARK                            x       y       z     vdW  Elec       q    Type
REMARK                         _______ _______ _______ _____ _____    ______ ____
ROOT
ATOM      1  C   UNL     1      32.172  -9.841 -21.579  0.00  0.00    +0.014 C 
ATOM      2  C   UNL     1      32.026  -9.132 -20.363  0.00  0.00    +0.001 C 
ATOM      3  C   UNL     1      31.926 -11.223 -21.602  0.00  0.00    +0.057 C 
ATOM      4  C   UNL     1      32.560  -9.146 -22.736  0.00  0.00    +0.004 C 
ATOM      5  C   UNL     1      32.800  -7.772 -22.696  0.00  0.00    +0.031 C 
ATOM      6  C   UNL     1      32.271  -7.749 -20.341  0.00  0.00    +0.000 C 
ATOM      7  C   UNL     1      31.637  -9.826 -19.205  0.00  0.00    +0.000 C 
ATOM      8  C   UNL     1      31.541 -11.897 -20.442  0.00  0.00    +0.015 C 
ATOM      9  C   UNL     1      32.656  -7.076 -21.500  0.00  0.00    +0.003 C 
ATOM     10  C   UNL     1      31.398 -11.200 -19.246  0.00  0.00    +0.001 C 
ENDROOT
BRANCH   3  11
ATOM     11  N   UNL     1      32.060 -11.982 -22.790  0.00  0.00    -0.257 N 
ATOM     12  N   UNL     1      32.707 -13.594 -24.367  0.00  0.00    -0.180 NA
ATOM     13  N   UNL     1      33.590 -13.632 -22.126  0.00  0.00    -0.203 NA
ATOM     14  C   UNL     1      32.819 -13.120 -23.109  0.00  0.00    +0.091 C 
ATOM     15  C   UNL     1      33.450 -14.687 -24.639  0.00  0.00    +0.108 C 
ATOM     16  C   UNL     1      34.306 -14.724 -22.466  0.00  0.00    +0.165 C 
ATOM     17  C   UNL     1      34.275 -15.301 -23.719  0.00  0.00    +0.022 C 
ATOM     18  H   UNL     1      31.515 -11.647 -23.538  0.00  0.00    +0.164 HD
ENDBRANCH   3  11
BRANCH   5  21
ATOM     19  N   UNL     1      34.502  -7.141 -24.390  0.00  0.00    -0.343 N 
ATOM     20  N   UNL     1      32.315  -6.333 -24.558  0.00  0.00    -0.285 NA
ATOM     21  C   UNL     1      33.198  -7.067 -23.903  0.00  0.00    +0.117 C 
ATOM     22  H   UNL     1      34.750  -6.654 -25.209  0.00  0.00    +0.144 HD
ATOM     23  H   UNL     1      35.174  -7.680 -23.914  0.00  0.00    +0.144 HD
ATOM     24  H   UNL     1      32.583  -5.855 -25.376  0.00  0.00    +0.188 HD
ENDBRANCH   5  21
TORSDOF 2
ENDMDL
MODEL 8
REMARK VINA RESULT:      -8.9     10.478     13.264
REMARK  Name = 448610
REMARK  2 active torsions:
REMARK  status: ('A' for Active; 'I' for Inactive)
REMARK    1  A    between atoms: C_3  and  N_11
REMARK    2  A    between atoms: C_5  and  C_21
REMARK                            x       y       z     vdW  Elec       q    Type
REMARK                         _______ _______ _______ _____ _____    ______ ____
ROOT
ATOM      1  C   UNL     1      33.494 -15.051 -23.830  0.00  0.00    +0.014 C 
ATOM      2  C   UNL     1      33.964 -15.801 -24.934  0.00  0.00    +0.001 C 
ATOM      3  C   UNL     1      32.665 -13.941 -24.057  0.00  0.00    +0.057 C 
ATOM      4  C   UNL     1      33.869 -15.434 -22.532  0.00  0.00    +0.004 C 
ATOM      5  C   UNL     1      34.693 -16.540 -22.325  0.00  0.00    +0.031 C 
ATOM      6  C   UNL     1      34.794 -16.911 -24.708  0.00  0.00    +0.000 C 
ATOM      7  C   UNL     1      33.590 -15.419 -26.234  0.00  0.00    +0.000 C 
ATOM      8  C   UNL     1      32.303 -13.576 -25.354  0.00  0.00    +0.015 C 
ATOM      9  C   UNL     1      35.156 -17.276 -23.411  0.00  0.00    +0.003 C 
ATOM     10  C   UNL     1      32.765 -14.313 -26.440  0.00  0.00    +0.001 C 
ENDROOT
BRANCH   3  11
ATOM     11  N   UNL     1      32.168 -13.154 -22.989  0.00  0.00    -0.257 N 
ATOM     12  N   UNL     1      31.665 -11.361 -21.562  0.00  0.00    -0.180 NA
ATOM     13  N   UNL     1      32.978 -11.026 -23.555  0.00  0.00    -0.203 NA
ATOM     14  C   UNL     1      32.275 -11.787 -22.689  0.00  0.00    +0.091 C 
ATOM     15  C   UNL     1      31.789 -10.042 -21.305  0.00  0.00    +0.108 C 
ATOM     16  C   UNL     1      33.061  -9.718 -23.236  0.00  0.00    +0.165 C 
ATOM     17  C   UNL     1      32.481  -9.165 -22.114  0.00  0.00    +0.022 C 
ATOM     18  H   UNL     1      31.646 -13.666 -22.329  0.00  0.00    +0.164 HD
ENDBRANCH   3  11
BRANCH   5  21
ATOM     19  N   UNL     1      35.565 -18.197 -20.694  0.00  0.00    -0.343 N 
ATOM     20  N   UNL     1      34.940 -16.060 -19.983  0.00  0.00    -0.285 NA
ATOM     21  C   UNL     1      35.070 -16.925 -20.974  0.00  0.00    +0.117 C 
ATOM     22  H   UNL     1      35.813 -18.436 -19.772  0.00  0.00    +0.144 HD
ATOM     23  H   UNL     1      35.666 -18.856 -21.419  0.00  0.00    +0.144 HD
ATOM     24  H   UNL     1      35.194 -16.319 -19.068  0.00  0.00    +0.188 HD
ENDBRANCH   5  21
TORSDOF 2
ENDMDL
MODEL 9
REMARK VINA RESULT:      -8.8      1.630      3.912
REMARK  Name = 448610
REMARK  2 active torsions:
REMARK  status: ('A' for Active; 'I' for Inactive)
REMARK    1  A    between atoms: C_3  and  N_11
REMARK    2  A    between atoms: C_5  and  C_21
REMARK                            x       y       z     vdW  Elec       q    Type
REMARK                         _______ _______ _______ _____ _____    ______ ____
ROOT
ATOM      1  C   UNL     1      34.089 -23.291 -15.692  0.00  0.00    +0.014 C 
ATOM      2  C   UNL     1      32.742 -23.400 -16.112  0.00  0.00    +0.001 C 
ATOM      3  C   UNL     1      34.441 -23.705 -14.398  0.00  0.00    +0.057 C 
ATOM      4  C   UNL     1      35.044 -22.771 -16.581  0.00  0.00    +0.004 C 
ATOM      5  C   UNL     1      34.678 -22.365 -17.864  0.00  0.00    +0.031 C 
ATOM      6  C   UNL     1      32.391 -22.986 -17.408  0.00  0.00    +0.000 C 
ATOM      7  C   UNL     1      31.786 -23.921 -15.224  0.00  0.00    +0.000 C 
ATOM      8  C   UNL     1      33.479 -24.219 -13.528  0.00  0.00    +0.015 C 
ATOM      9  C   UNL     1      33.353 -22.472 -18.276  0.00  0.00    +0.003 C 
ATOM     10  C   UNL     1      32.154 -24.326 -13.941  0.00  0.00    +0.001 C 
ENDROOT
BRANCH   3  11
ATOM     11  N   UNL     1      35.773 -23.615 -13.925  0.00  0.00    -0.257 N 
ATOM     12  N   UNL     1      38.025 -24.071 -13.448  0.00  0.00    -0.180 NA
ATOM     13  N   UNL     1      36.687 -25.630 -14.708  0.00  0.00    -0.203 NA
ATOM     14  C   UNL     1      36.878 -24.477 -14.032  0.00  0.00    +0.091 C 
ATOM     15  C   UNL     1      39.064 -24.923 -13.570  0.00  0.00    +0.108 C 
ATOM     16  C   UNL     1      37.768 -26.433 -14.792  0.00  0.00    +0.165 C 
ATOM     17  C   UNL     1      38.993 -26.129 -14.237  0.00  0.00    +0.022 C 
ATOM     18  H   UNL     1      35.962 -22.789 -13.424  0.00  0.00    +0.164 HD
ENDBRANCH   3  11
BRANCH   5  21
ATOM     19  N   UNL     1      36.794 -21.141 -18.300  0.00  0.00    -0.343 N 
ATOM     20  N   UNL     1      35.537 -21.992 -20.078  0.00  0.00    -0.285 NA
ATOM     21  C   UNL     1      35.679 -21.830 -18.773  0.00  0.00    +0.117 C 
ATOM     22  H   UNL     1      37.460 -20.788 -18.934  0.00  0.00    +0.144 HD
ATOM     23  H   UNL     1      36.916 -21.008 -17.332  0.00  0.00    +0.144 HD
ATOM     24  H   UNL     1      36.214 -21.631 -20.694  0.00  0.00    +0.188 HD
ENDBRANCH   5  21
TORSDOF 2
ENDMDL
