MODEL 1
REMARK VINA RESULT:      -9.8      0.000      0.000
REMARK  Name = 6005
REMARK  2 active torsions:
REMARK  status: ('A' for Active; 'I' for Inactive)
REMARK    1  A    between atoms: C_15  and  O_20
REMARK    2  A    between atoms: C_17  and  O_22
REMARK                            x       y       z     vdW  Elec       q    Type
REMARK                         _______ _______ _______ _____ _____    ______ ____
ROOT
ATOM      1  N   UNL     1      36.578 -23.446 -14.780  0.00  0.00    +0.390 N 
ATOM      2  C   UNL     1      35.118 -23.233 -14.963  0.00  0.00    -0.031 C 
ATOM      3  C   UNL     1      34.741 -22.890 -16.408  0.00  0.00    -0.045 C 
ATOM      4  C   UNL     1      34.305 -24.471 -14.518  0.00  0.00    +0.010 C 
ATOM      5  C   UNL     1      35.716 -22.388 -17.292  0.00  0.00    -0.030 C 
ATOM      6  C   UNL     1      37.324 -22.314 -15.352  0.00  0.00    -0.072 C 
ATOM      7  C   UNL     1      37.156 -22.286 -16.868  0.00  0.00    +0.003 C 
ATOM      8  C   UNL     1      33.392 -23.020 -16.826  0.00  0.00    -0.003 C 
ATOM      9  C   UNL     1      32.824 -24.269 -14.746  0.00  0.00    -0.021 C 
ATOM     10  C   UNL     1      32.385 -23.556 -15.881  0.00  0.00    +0.032 C 
ATOM     11  C   UNL     1      36.944 -23.597 -13.367  0.00  0.00    -0.100 C 
ATOM     12  C   UNL     1      35.362 -22.044 -18.600  0.00  0.00    -0.005 C 
ATOM     13  C   UNL     1      33.073 -22.662 -18.148  0.00  0.00    -0.000 C 
ATOM     14  C   UNL     1      31.900 -24.829 -13.849  0.00  0.00    -0.001 C 
ATOM     15  C   UNL     1      30.999 -23.389 -16.054  0.00  0.00    +0.167 C 
ATOM     16  C   UNL     1      34.046 -22.178 -19.023  0.00  0.00    -0.000 C 
ATOM     17  C   UNL     1      30.084 -23.934 -15.149  0.00  0.00    +0.167 C 
ATOM     18  C   UNL     1      30.534 -24.659 -14.051  0.00  0.00    +0.039 C 
ATOM     19  H   UNL     1      36.817 -24.313 -15.263  0.00  0.00    -0.079 HD
ENDROOT
BRANCH  15  20
ATOM     20  O   UNL     1      30.462 -22.614 -17.044  0.00  0.00    -0.503 OA
ATOM     21  H   UNL     1      30.622 -21.691 -17.055  0.00  0.00    +0.292 HD
ENDBRANCH  15  20
BRANCH  17  22
ATOM     22  O   UNL     1      28.743 -23.755 -15.318  0.00  0.00    -0.503 OA
ATOM     23  H   UNL     1      28.350 -23.925 -16.151  0.00  0.00    +0.292 HD
ENDBRANCH  17  22
TORSDOF 2
ENDMDL
MODEL 2
REMARK VINA RESULT:      -9.2      1.629      4.422
REMARK  Name = 6005
REMARK  2 active torsions:
REMARK  status: ('A' for Active; 'I' for Inactive)
REMARK    1  A    between atoms: C_15  and  O_20
REMARK    2  A    between atoms: C_17  and  O_22
REMARK                            x       y       z     vdW  Elec       q    Type
REMARK                         _______ _______ _______ _____ _____    ______ ____
ROOT
ATOM      1  N   UNL     1      37.617 -24.086 -14.478  0.00  0.00    +0.390 N 
ATOM      2  C   UNL     1      36.574 -23.882 -15.517  0.00  0.00    -0.031 C 
ATOM      3  C   UNL     1      35.158 -23.809 -14.935  0.00  0.00    -0.045 C 
ATOM      4  C   UNL     1      36.839 -22.602 -16.343  0.00  0.00    +0.010 C 
ATOM      5  C   UNL     1      34.891 -24.342 -13.659  0.00  0.00    -0.030 C 
ATOM      6  C   UNL     1      37.252 -25.222 -13.618  0.00  0.00    -0.072 C 
ATOM      7  C   UNL     1      36.003 -24.889 -12.808  0.00  0.00    +0.003 C 
ATOM      8  C   UNL     1      34.110 -23.260 -15.718  0.00  0.00    -0.003 C 
ATOM      9  C   UNL     1      35.753 -22.373 -17.370  0.00  0.00    -0.021 C 
ATOM     10  C   UNL     1      34.416 -22.699 -17.054  0.00  0.00    +0.032 C 
ATOM     11  C   UNL     1      38.941 -24.332 -15.061  0.00  0.00    -0.100 C 
ATOM     12  C   UNL     1      33.591 -24.303 -13.145  0.00  0.00    -0.005 C 
ATOM     13  C   UNL     1      32.816 -23.241 -15.168  0.00  0.00    -0.000 C 
ATOM     14  C   UNL     1      36.078 -21.801 -18.610  0.00  0.00    -0.001 C 
ATOM     15  C   UNL     1      33.438 -22.474 -18.039  0.00  0.00    +0.167 C 
ATOM     16  C   UNL     1      32.559 -23.758 -13.898  0.00  0.00    -0.000 C 
ATOM     17  C   UNL     1      33.770 -21.919 -19.278  0.00  0.00    +0.167 C 
ATOM     18  C   UNL     1      35.087 -21.577 -19.561  0.00  0.00    +0.039 C 
ATOM     19  H   UNL     1      37.668 -23.225 -13.931  0.00  0.00    -0.079 HD
ENDROOT
BRANCH  15  20
ATOM     20  O   UNL     1      32.136 -22.863 -17.895  0.00  0.00    -0.503 OA
ATOM     21  H   UNL     1      31.861 -23.704 -18.203  0.00  0.00    +0.292 HD
ENDBRANCH  15  20
BRANCH  17  22
ATOM     22  O   UNL     1      32.815 -21.716 -20.231  0.00  0.00    -0.503 OA
ATOM     23  H   UNL     1      32.368 -22.447 -20.608  0.00  0.00    +0.292 HD
ENDBRANCH  17  22
TORSDOF 2
ENDMDL
MODEL 3
REMARK VINA RESULT:      -9.1      9.507     11.671
REMARK  Name = 6005
REMARK  2 active torsions:
REMARK  status: ('A' for Active; 'I' for Inactive)
REMARK    1  A    between atoms: C_15  and  O_20
REMARK    2  A    between atoms: C_17  and  O_22
REMARK                            x       y       z     vdW  Elec       q    Type
REMARK                         _______ _______ _______ _____ _____    ______ ____
ROOT
ATOM      1  N   UNL     1      34.480 -17.350 -22.272  0.00  0.00    +0.390 N 
ATOM      2  C   UNL     1      34.142 -15.902 -22.289  0.00  0.00    -0.031 C 
ATOM      3  C   UNL     1      33.721 -15.403 -23.676  0.00  0.00    -0.045 C 
ATOM      4  C   UNL     1      33.020 -15.570 -21.279  0.00  0.00    +0.010 C 
ATOM      5  C   UNL     1      34.079 -16.132 -24.826  0.00  0.00    -0.030 C 
ATOM      6  C   UNL     1      35.439 -17.653 -23.346  0.00  0.00    -0.072 C 
ATOM      7  C   UNL     1      34.781 -17.457 -24.708  0.00  0.00    +0.003 C 
ATOM      8  C   UNL     1      33.026 -14.173 -23.793  0.00  0.00    -0.003 C 
ATOM      9  C   UNL     1      32.648 -14.105 -21.330  0.00  0.00    -0.021 C 
ATOM     10  C   UNL     1      32.653 -13.427 -22.567  0.00  0.00    +0.032 C 
ATOM     11  C   UNL     1      35.050 -17.771 -20.987  0.00  0.00    -0.100 C 
ATOM     12  C   UNL     1      33.722 -15.657 -26.092  0.00  0.00    -0.005 C 
ATOM     13  C   UNL     1      32.686 -13.726 -25.082  0.00  0.00    -0.000 C 
ATOM     14  C   UNL     1      32.261 -13.445 -20.153  0.00  0.00    -0.001 C 
ATOM     15  C   UNL     1      32.304 -12.065 -22.569  0.00  0.00    +0.167 C 
ATOM     16  C   UNL     1      33.032 -14.458 -26.218  0.00  0.00    -0.000 C 
ATOM     17  C   UNL     1      31.935 -11.409 -21.392  0.00  0.00    +0.167 C 
ATOM     18  C   UNL     1      31.907 -12.099 -20.186  0.00  0.00    +0.039 C 
ATOM     19  H   UNL     1      33.609 -17.862 -22.415  0.00  0.00    -0.079 HD
ENDROOT
BRANCH  15  20
ATOM     20  O   UNL     1      32.393 -11.277 -23.683  0.00  0.00    -0.503 OA
ATOM     21  H   UNL     1      32.563 -11.665 -24.519  0.00  0.00    +0.292 HD
ENDBRANCH  15  20
BRANCH  17  22
ATOM     22  O   UNL     1      31.611 -10.084 -21.403  0.00  0.00    -0.503 OA
ATOM     23  H   UNL     1      30.931  -9.765 -20.844  0.00  0.00    +0.292 HD
ENDBRANCH  17  22
TORSDOF 2
ENDMDL
MODEL 4
REMARK VINA RESULT:      -9.0      3.158      5.240
REMARK  Name = 6005
REMARK  2 active torsions:
REMARK  status: ('A' for Active; 'I' for Inactive)
REMARK    1  A    between atoms: C_15  and  O_20
REMARK    2  A    between atoms: C_17  and  O_22
REMARK                            x       y       z     vdW  Elec       q    Type
REMARK                         _______ _______ _______ _____ _____    ______ ____
ROOT
ATOM      1  N   UNL     1      31.448 -23.916 -14.455  0.00  0.00    +0.390 N 
ATOM      2  C   UNL     1      32.907 -24.194 -14.522  0.00  0.00    -0.031 C 
ATOM      3  C   UNL     1      33.586 -23.536 -15.727  0.00  0.00    -0.045 C 
ATOM      4  C   UNL     1      33.630 -23.739 -13.233  0.00  0.00    +0.010 C 
ATOM      5  C   UNL     1      32.819 -23.138 -16.839  0.00  0.00    -0.030 C 
ATOM      6  C   UNL     1      30.821 -24.223 -15.751  0.00  0.00    -0.072 C 
ATOM      7  C   UNL     1      31.320 -23.253 -16.818  0.00  0.00    +0.003 C 
ATOM      8  C   UNL     1      34.997 -23.390 -15.738  0.00  0.00    -0.003 C 
ATOM      9  C   UNL     1      35.119 -23.982 -13.320  0.00  0.00    -0.021 C 
ATOM     10  C   UNL     1      35.782 -23.808 -14.554  0.00  0.00    +0.032 C 
ATOM     11  C   UNL     1      30.782 -24.695 -13.405  0.00  0.00    -0.100 C 
ATOM     12  C   UNL     1      33.447 -22.568 -17.951  0.00  0.00    -0.005 C 
ATOM     13  C   UNL     1      35.592 -22.814 -16.875  0.00  0.00    -0.000 C 
ATOM     14  C   UNL     1      35.835 -24.338 -12.166  0.00  0.00    -0.001 C 
ATOM     15  C   UNL     1      37.167 -24.048 -14.592  0.00  0.00    +0.167 C 
ATOM     16  C   UNL     1      34.826 -22.410 -17.969  0.00  0.00    -0.000 C 
ATOM     17  C   UNL     1      37.872 -24.418 -13.442  0.00  0.00    +0.167 C 
ATOM     18  C   UNL     1      37.208 -24.556 -12.229  0.00  0.00    +0.039 C 
ATOM     19  H   UNL     1      31.341 -22.927 -14.231  0.00  0.00    -0.079 HD
ENDROOT
BRANCH  15  20
ATOM     20  O   UNL     1      37.892 -24.033 -15.751  0.00  0.00    -0.503 OA
ATOM     21  H   UNL     1      38.647 -24.582 -15.838  0.00  0.00    +0.292 HD
ENDBRANCH  15  20
BRANCH  17  22
ATOM     22  O   UNL     1      39.213 -24.660 -13.493  0.00  0.00    -0.503 OA
ATOM     23  H   UNL     1      39.659 -24.654 -14.317  0.00  0.00    +0.292 HD
ENDBRANCH  17  22
TORSDOF 2
ENDMDL
MODEL 5
REMARK VINA RESULT:      -8.9      9.601     12.150
REMARK  Name = 6005
REMARK  2 active torsions:
REMARK  status: ('A' for Active; 'I' for Inactive)
REMARK    1  A    between atoms: C_15  and  O_20
REMARK    2  A    between atoms: C_17  and  O_22
REMARK                            x       y       z     vdW  Elec       q    Type
REMARK                         _______ _______ _______ _____ _____    ______ ____
ROOT
ATOM      1  N   UNL     1      33.269 -12.250 -24.962  0.00  0.00    +0.390 N 
ATOM      2  C   UNL     1      33.800 -13.452 -24.268  0.00  0.00    -0.031 C 
ATOM      3  C   UNL     1      33.225 -13.631 -22.859  0.00  0.00    -0.045 C 
ATOM      4  C   UNL     1      33.534 -14.740 -25.081  0.00  0.00    +0.010 C 
ATOM      5  C   UNL     1      32.652 -12.535 -22.186  0.00  0.00    -0.030 C 
ATOM      6  C   UNL     1      33.405 -11.070 -24.094  0.00  0.00    -0.072 C 
ATOM      7  C   UNL     1      32.498 -11.207 -22.875  0.00  0.00    +0.003 C 
ATOM      8  C   UNL     1      33.333 -14.891 -22.217  0.00  0.00    -0.003 C 
ATOM      9  C   UNL     1      34.037 -15.966 -24.353  0.00  0.00    -0.021 C 
ATOM     10  C   UNL     1      33.934 -16.032 -22.947  0.00  0.00    +0.032 C 
ATOM     11  C   UNL     1      33.958 -11.992 -26.232  0.00  0.00    -0.100 C 
ATOM     12  C   UNL     1      32.158 -12.694 -20.887  0.00  0.00    -0.005 C 
ATOM     13  C   UNL     1      32.828 -15.012 -20.910  0.00  0.00    -0.000 C 
ATOM     14  C   UNL     1      34.561 -17.043 -25.084  0.00  0.00    -0.001 C 
ATOM     15  C   UNL     1      34.416 -17.188 -22.309  0.00  0.00    +0.167 C 
ATOM     16  C   UNL     1      32.250 -13.925 -20.253  0.00  0.00    -0.000 C 
ATOM     17  C   UNL     1      34.952 -18.252 -23.041  0.00  0.00    +0.167 C 
ATOM     18  C   UNL     1      35.019 -18.182 -24.428  0.00  0.00    +0.039 C 
ATOM     19  H   UNL     1      32.286 -12.432 -25.167  0.00  0.00    -0.079 HD
ENDROOT
BRANCH  15  20
ATOM     20  O   UNL     1      34.483 -17.314 -20.949  0.00  0.00    -0.503 OA
ATOM     21  H   UNL     1      35.310 -17.461 -20.533  0.00  0.00    +0.292 HD
ENDBRANCH  15  20
BRANCH  17  22
ATOM     22  O   UNL     1      35.428 -19.364 -22.412  0.00  0.00    -0.503 OA
ATOM     23  H   UNL     1      35.435 -19.405 -21.476  0.00  0.00    +0.292 HD
ENDBRANCH  17  22
TORSDOF 2
ENDMDL
MODEL 6
REMARK VINA RESULT:      -8.9      2.958      5.681
REMARK  Name = 6005
REMARK  2 active torsions:
REMARK  status: ('A' for Active; 'I' for Inactive)
REMARK    1  A    between atoms: C_15  and  O_20
REMARK    2  A    between atoms: C_17  and  O_22
REMARK                            x       y       z     vdW  Elec       q    Type
REMARK                         _______ _______ _______ _____ _____    ______ ____
ROOT
ATOM      1  N   UNL     1      31.454 -23.914 -15.478  0.00  0.00    +0.390 N 
ATOM      2  C   UNL     1      32.567 -23.124 -16.067  0.00  0.00    -0.031 C 
ATOM      3  C   UNL     1      33.940 -23.524 -15.516  0.00  0.00    -0.045 C 
ATOM      4  C   UNL     1      32.595 -23.245 -17.608  0.00  0.00    +0.010 C 
ATOM      5  C   UNL     1      34.036 -24.207 -14.288  0.00  0.00    -0.030 C 
ATOM      6  C   UNL     1      31.550 -23.897 -14.010  0.00  0.00    -0.072 C 
ATOM      7  C   UNL     1      32.799 -24.648 -13.557  0.00  0.00    +0.003 C 
ATOM      8  C   UNL     1      35.111 -23.144 -16.220  0.00  0.00    -0.003 C 
ATOM      9  C   UNL     1      33.754 -22.476 -18.201  0.00  0.00    -0.021 C 
ATOM     10  C   UNL     1      34.985 -22.432 -17.514  0.00  0.00    +0.032 C 
ATOM     11  C   UNL     1      30.138 -23.402 -15.877  0.00  0.00    -0.100 C 
ATOM     12  C   UNL     1      35.292 -24.542 -13.772  0.00  0.00    -0.005 C 
ATOM     13  C   UNL     1      36.356 -23.496 -15.669  0.00  0.00    -0.000 C 
ATOM     14  C   UNL     1      33.607 -21.850 -19.449  0.00  0.00    -0.001 C 
ATOM     15  C   UNL     1      36.036 -21.704 -18.099  0.00  0.00    +0.167 C 
ATOM     16  C   UNL     1      36.445 -24.184 -14.459  0.00  0.00    -0.000 C 
ATOM     17  C   UNL     1      35.879 -21.068 -19.334  0.00  0.00    +0.167 C 
ATOM     18  C   UNL     1      34.668 -21.146 -20.011  0.00  0.00    +0.039 C 
ATOM     19  H   UNL     1      31.543 -24.867 -15.832  0.00  0.00    -0.079 HD
ENDROOT
BRANCH  15  20
ATOM     20  O   UNL     1      37.230 -21.487 -17.470  0.00  0.00    -0.503 OA
ATOM     21  H   UNL     1      37.801 -22.208 -17.287  0.00  0.00    +0.292 HD
ENDBRANCH  15  20
BRANCH  17  22
ATOM     22  O   UNL     1      36.901 -20.354 -19.886  0.00  0.00    -0.503 OA
ATOM     23  H   UNL     1      37.519 -20.779 -20.447  0.00  0.00    +0.292 HD
ENDBRANCH  17  22
TORSDOF 2
ENDMDL
MODEL 7
REMARK VINA RESULT:      -8.6      1.821      3.640
REMARK  Name = 6005
REMARK  2 active torsions:
REMARK  status: ('A' for Active; 'I' for Inactive)
REMARK    1  A    between atoms: C_15  and  O_20
REMARK    2  A    between atoms: C_17  and  O_22
REMARK                            x       y       z     vdW  Elec       q    Type
REMARK                         _______ _______ _______ _____ _____    ______ ____
ROOT
ATOM      1  N   UNL     1      33.957 -21.995 -18.276  0.00  0.00    +0.390 N 
ATOM      2  C   UNL     1      33.087 -22.904 -17.484  0.00  0.00    -0.031 C 
ATOM      3  C   UNL     1      33.666 -23.231 -16.103  0.00  0.00    -0.045 C 
ATOM      4  C   UNL     1      31.669 -22.315 -17.302  0.00  0.00    +0.010 C 
ATOM      5  C   UNL     1      35.042 -23.062 -15.857  0.00  0.00    -0.030 C 
ATOM      6  C   UNL     1      35.333 -22.514 -18.300  0.00  0.00    -0.072 C 
ATOM      7  C   UNL     1      35.940 -22.458 -16.901  0.00  0.00    +0.003 C 
ATOM      8  C   UNL     1      32.818 -23.766 -15.100  0.00  0.00    -0.003 C 
ATOM      9  C   UNL     1      30.800 -23.221 -16.459  0.00  0.00    -0.021 C 
ATOM     10  C   UNL     1      31.372 -23.929 -15.380  0.00  0.00    +0.032 C 
ATOM     11  C   UNL     1      33.481 -21.835 -19.655  0.00  0.00    -0.100 C 
ATOM     12  C   UNL     1      35.574 -23.393 -14.606  0.00  0.00    -0.005 C 
ATOM     13  C   UNL     1      33.388 -24.089 -13.856  0.00  0.00    -0.000 C 
ATOM     14  C   UNL     1      29.426 -23.317 -16.730  0.00  0.00    -0.001 C 
ATOM     15  C   UNL     1      30.529 -24.763 -14.624  0.00  0.00    +0.167 C 
ATOM     16  C   UNL     1      34.750 -23.907 -13.613  0.00  0.00    -0.000 C 
ATOM     17  C   UNL     1      29.165 -24.867 -14.909  0.00  0.00    +0.167 C 
ATOM     18  C   UNL     1      28.612 -24.139 -15.957  0.00  0.00    +0.039 C 
ATOM     19  H   UNL     1      33.927 -21.081 -17.823  0.00  0.00    -0.079 HD
ENDROOT
BRANCH  15  20
ATOM     20  O   UNL     1      30.992 -25.589 -13.638  0.00  0.00    -0.503 OA
ATOM     21  H   UNL     1      31.299 -25.227 -12.830  0.00  0.00    +0.292 HD
ENDBRANCH  15  20
BRANCH  17  22
ATOM     22  O   UNL     1      28.358 -25.688 -14.177  0.00  0.00    -0.503 OA
ATOM     23  H   UNL     1      28.101 -26.519 -14.522  0.00  0.00    +0.292 HD
ENDBRANCH  17  22
TORSDOF 2
ENDMDL
MODEL 8
REMARK VINA RESULT:      -8.5     13.778     16.020
REMARK  Name = 6005
REMARK  2 active torsions:
REMARK  status: ('A' for Active; 'I' for Inactive)
REMARK    1  A    between atoms: C_15  and  O_20
REMARK    2  A    between atoms: C_17  and  O_22
REMARK                            x       y       z     vdW  Elec       q    Type
REMARK                         _______ _______ _______ _____ _____    ______ ____
ROOT
ATOM      1  N   UNL     1      33.314 -12.439 -23.459  0.00  0.00    +0.390 N 
ATOM      2  C   UNL     1      32.787 -11.058 -23.303  0.00  0.00    -0.031 C 
ATOM      3  C   UNL     1      32.318 -10.756 -21.876  0.00  0.00    -0.045 C 
ATOM      4  C   UNL     1      33.837 -10.001 -23.716  0.00  0.00    +0.010 C 
ATOM      5  C   UNL     1      32.005 -11.811 -20.997  0.00  0.00    -0.030 C 
ATOM      6  C   UNL     1      32.348 -13.408 -22.917  0.00  0.00    -0.072 C 
ATOM      7  C   UNL     1      32.229 -13.241 -21.405  0.00  0.00    +0.003 C 
ATOM      8  C   UNL     1      32.140  -9.408 -21.471  0.00  0.00    -0.003 C 
ATOM      9  C   UNL     1      33.314  -8.596 -23.515  0.00  0.00    -0.021 C 
ATOM     10  C   UNL     1      32.482  -8.315 -22.411  0.00  0.00    +0.032 C 
ATOM     11  C   UNL     1      33.592 -12.773 -24.861  0.00  0.00    -0.100 C 
ATOM     12  C   UNL     1      31.545 -11.532 -19.706  0.00  0.00    -0.005 C 
ATOM     13  C   UNL     1      31.673  -9.166 -20.167  0.00  0.00    -0.000 C 
ATOM     14  C   UNL     1      33.695  -7.579 -24.404  0.00  0.00    -0.001 C 
ATOM     15  C   UNL     1      32.015  -6.996 -22.263  0.00  0.00    +0.167 C 
ATOM     16  C   UNL     1      31.377 -10.215 -19.296  0.00  0.00    -0.000 C 
ATOM     17  C   UNL     1      32.384  -5.990 -23.160  0.00  0.00    +0.167 C 
ATOM     18  C   UNL     1      33.229  -6.280 -24.226  0.00  0.00    +0.039 C 
ATOM     19  H   UNL     1      34.194 -12.484 -22.943  0.00  0.00    -0.079 HD
ENDROOT
BRANCH  15  20
ATOM     20  O   UNL     1      31.108  -6.633 -21.307  0.00  0.00    -0.503 OA
ATOM     21  H   UNL     1      31.185  -5.802 -20.880  0.00  0.00    +0.292 HD
ENDBRANCH  15  20
BRANCH  17  22
ATOM     22  O   UNL     1      31.916  -4.718 -23.015  0.00  0.00    -0.503 OA
ATOM     23  H   UNL     1      32.141  -4.221 -22.253  0.00  0.00    +0.292 HD
ENDBRANCH  17  22
TORSDOF 2
ENDMDL
MODEL 9
REMARK VINA RESULT:      -8.5      2.046      3.672
REMARK  Name = 6005
REMARK  2 active torsions:
REMARK  status: ('A' for Active; 'I' for Inactive)
REMARK    1  A    between atoms: C_15  and  O_20
REMARK    2  A    between atoms: C_17  and  O_22
REMARK                            x       y       z     vdW  Elec       q    Type
REMARK                         _______ _______ _______ _____ _____    ______ ____
ROOT
ATOM      1  N   UNL     1      34.272 -21.725 -19.114  0.00  0.00    +0.390 N 
ATOM      2  C   UNL     1      33.920 -22.628 -17.987  0.00  0.00    -0.031 C 
ATOM      3  C   UNL     1      34.974 -22.635 -16.875  0.00  0.00    -0.045 C 
ATOM      4  C   UNL     1      32.550 -22.259 -17.372  0.00  0.00    +0.010 C 
ATOM      5  C   UNL     1      36.287 -22.205 -17.146  0.00  0.00    -0.030 C 
ATOM      6  C   UNL     1      35.640 -22.009 -19.574  0.00  0.00    -0.072 C 
ATOM      7  C   UNL     1      36.647 -21.635 -18.490  0.00  0.00    +0.003 C 
ATOM      8  C   UNL     1      34.632 -23.136 -15.594  0.00  0.00    -0.003 C 
ATOM      9  C   UNL     1      32.214 -23.150 -16.198  0.00  0.00    -0.021 C 
ATOM     10  C   UNL     1      33.242 -23.576 -15.331  0.00  0.00    +0.032 C 
ATOM     11  C   UNL     1      33.349 -21.864 -20.246  0.00  0.00    -0.100 C 
ATOM     12  C   UNL     1      37.256 -22.244 -16.137  0.00  0.00    -0.005 C 
ATOM     13  C   UNL     1      35.633 -23.162 -14.606  0.00  0.00    -0.000 C 
ATOM     14  C   UNL     1      30.878 -23.511 -15.959  0.00  0.00    -0.001 C 
ATOM     15  C   UNL     1      32.886 -24.407 -14.253  0.00  0.00    +0.167 C 
ATOM     16  C   UNL     1      36.929 -22.723 -14.876  0.00  0.00    -0.000 C 
ATOM     17  C   UNL     1      31.557 -24.776 -14.029  0.00  0.00    +0.167 C 
ATOM     18  C   UNL     1      30.553 -24.324 -14.877  0.00  0.00    +0.039 C 
ATOM     19  H   UNL     1      34.203 -20.769 -18.765  0.00  0.00    -0.079 HD
ENDROOT
BRANCH  15  20
ATOM     20  O   UNL     1      33.808 -24.980 -13.422  0.00  0.00    -0.503 OA
ATOM     21  H   UNL     1      33.952 -25.906 -13.450  0.00  0.00    +0.292 HD
ENDBRANCH  15  20
BRANCH  17  22
ATOM     22  O   UNL     1      31.225 -25.593 -12.988  0.00  0.00    -0.503 OA
ATOM     23  H   UNL     1      30.968 -26.478 -13.152  0.00  0.00    +0.292 HD
ENDBRANCH  17  22
TORSDOF 2
ENDMDL
