MODEL 1
REMARK VINA RESULT:      -8.1      0.000      0.000
REMARK  Name = 148189
REMARK  3 active torsions:
REMARK  status: ('A' for Active; 'I' for Inactive)
REMARK    1  A    between atoms: C_5  and  O_16
REMARK    2  A    between atoms: C_12  and  C_18
REMARK    3  A    between atoms: C_18  and  O_19
REMARK                            x       y       z     vdW  Elec       q    Type
REMARK                         _______ _______ _______ _____ _____    ______ ____
ROOT
ATOM      1  O   UNL     1      35.036 -15.872 -20.026  0.00  0.00    -0.293 OA
ATOM      2  C   UNL     1      35.064 -18.210 -22.792  0.00  0.00    +0.032 C 
ATOM      3  C   UNL     1      35.522 -19.629 -23.085  0.00  0.00    +0.003 C 
ATOM      4  C   UNL     1      36.540 -18.534 -23.020  0.00  0.00    +0.003 C 
ATOM      5  C   UNL     1      34.617 -17.861 -21.360  0.00  0.00    +0.140 C 
ATOM      6  C   UNL     1      34.458 -17.336 -23.879  0.00  0.00    +0.021 C 
ATOM      7  C   UNL     1      34.258 -16.020 -23.634  0.00  0.00    -0.036 C 
ATOM      8  C   UNL     1      34.750 -16.356 -21.118  0.00  0.00    +0.182 C 
ATOM      9  C   UNL     1      33.171 -18.302 -21.113  0.00  0.00    +0.037 C 
ATOM     10  C   UNL     1      34.463 -15.499 -22.286  0.00  0.00    +0.100 C 
ATOM     11  C   UNL     1      34.106 -18.015 -25.177  0.00  0.00    +0.004 C 
ATOM     12  C   UNL     1      33.845 -14.883 -24.463  0.00  0.00    -0.004 C 
ATOM     13  C   UNL     1      34.220 -14.186 -22.302  0.00  0.00    -0.019 C 
ATOM     14  C   UNL     1      33.844 -13.798 -23.654  0.00  0.00    -0.028 C 
ATOM     15  C   UNL     1      33.525 -12.375 -23.953  0.00  0.00    +0.030 C 
ENDROOT
BRANCH   5  16
ATOM     16  O   UNL     1      35.444 -18.505 -20.393  0.00  0.00    -0.380 OA
ATOM     17  H   UNL     1      35.175 -18.232 -19.503  0.00  0.00    +0.211 HD
ENDBRANCH   5  16
BRANCH  12  18
ATOM     18  C   UNL     1      33.570 -14.916 -25.923  0.00  0.00    +0.163 C 
BRANCH  18  19
ATOM     19  O   UNL     1      32.223 -14.545 -26.177  0.00  0.00    -0.377 OA
ATOM     20  H   UNL     1      31.757 -14.427 -25.335  0.00  0.00    +0.211 HD
ENDBRANCH  18  19
ENDBRANCH  12  18
TORSDOF 3
ENDMDL
MODEL 2
REMARK VINA RESULT:      -7.3      9.364     11.334
REMARK  Name = 148189
REMARK  3 active torsions:
REMARK  status: ('A' for Active; 'I' for Inactive)
REMARK    1  A    between atoms: C_5  and  O_16
REMARK    2  A    between atoms: C_12  and  C_18
REMARK    3  A    between atoms: C_18  and  O_19
REMARK                            x       y       z     vdW  Elec       q    Type
REMARK                         _______ _______ _______ _____ _____    ______ ____
ROOT
ATOM      1  O   UNL     1      35.089 -22.799 -18.015  0.00  0.00    -0.293 OA
ATOM      2  C   UNL     1      35.622 -24.294 -14.760  0.00  0.00    +0.032 C 
ATOM      3  C   UNL     1      36.738 -24.969 -13.981  0.00  0.00    +0.003 C 
ATOM      4  C   UNL     1      36.028 -25.738 -15.052  0.00  0.00    +0.003 C 
ATOM      5  C   UNL     1      35.993 -23.219 -15.798  0.00  0.00    +0.140 C 
ATOM      6  C   UNL     1      34.222 -24.162 -14.180  0.00  0.00    +0.021 C 
ATOM      7  C   UNL     1      33.211 -23.748 -14.979  0.00  0.00    -0.036 C 
ATOM      8  C   UNL     1      34.880 -23.083 -16.839  0.00  0.00    +0.182 C 
ATOM      9  C   UNL     1      36.242 -21.867 -15.123  0.00  0.00    +0.037 C 
ATOM     10  C   UNL     1      33.508 -23.273 -16.326  0.00  0.00    +0.100 C 
ATOM     11  C   UNL     1      34.060 -24.500 -12.720  0.00  0.00    +0.004 C 
ATOM     12  C   UNL     1      31.759 -23.645 -14.810  0.00  0.00    -0.004 C 
ATOM     13  C   UNL     1      32.357 -22.937 -16.916  0.00  0.00    -0.019 C 
ATOM     14  C   UNL     1      31.267 -23.175 -15.981  0.00  0.00    -0.028 C 
ATOM     15  C   UNL     1      29.866 -22.889 -16.390  0.00  0.00    +0.030 C 
ENDROOT
BRANCH   5  16
ATOM     16  O   UNL     1      37.176 -23.580 -16.510  0.00  0.00    -0.380 OA
ATOM     17  H   UNL     1      37.405 -24.501 -16.313  0.00  0.00    +0.211 HD
ENDBRANCH   5  16
BRANCH  12  18
ATOM     18  C   UNL     1      30.983 -24.062 -13.612  0.00  0.00    +0.163 C 
BRANCH  18  19
ATOM     19  O   UNL     1      30.398 -25.339 -13.826  0.00  0.00    -0.377 OA
ATOM     20  H   UNL     1      30.685 -25.685 -14.686  0.00  0.00    +0.211 HD
ENDBRANCH  18  19
ENDBRANCH  12  18
TORSDOF 3
ENDMDL
MODEL 3
REMARK VINA RESULT:      -7.1      8.229     11.239
REMARK  Name = 148189
REMARK  3 active torsions:
REMARK  status: ('A' for Active; 'I' for Inactive)
REMARK    1  A    between atoms: C_5  and  O_16
REMARK    2  A    between atoms: C_12  and  C_18
REMARK    3  A    between atoms: C_18  and  O_19
REMARK                            x       y       z     vdW  Elec       q    Type
REMARK                         _______ _______ _______ _____ _____    ______ ____
ROOT
ATOM      1  O   UNL     1      29.749 -22.585 -17.259  0.00  0.00    -0.293 OA
ATOM      2  C   UNL     1      31.145 -23.810 -14.151  0.00  0.00    +0.032 C 
ATOM      3  C   UNL     1      30.685 -24.132 -12.739  0.00  0.00    +0.003 C 
ATOM      4  C   UNL     1      30.878 -22.701 -13.134  0.00  0.00    +0.003 C 
ATOM      5  C   UNL     1      30.145 -23.981 -15.308  0.00  0.00    +0.140 C 
ATOM      6  C   UNL     1      32.608 -23.929 -14.550  0.00  0.00    +0.021 C 
ATOM      7  C   UNL     1      33.009 -23.437 -15.745  0.00  0.00    -0.036 C 
ATOM      8  C   UNL     1      30.556 -23.106 -16.495  0.00  0.00    +0.182 C 
ATOM      9  C   UNL     1      30.057 -25.445 -15.748  0.00  0.00    +0.037 C 
ATOM     10  C   UNL     1      32.012 -22.960 -16.698  0.00  0.00    +0.100 C 
ATOM     11  C   UNL     1      33.525 -24.611 -13.568  0.00  0.00    +0.004 C 
ATOM     12  C   UNL     1      34.317 -23.250 -16.380  0.00  0.00    -0.004 C 
ATOM     13  C   UNL     1      32.649 -22.515 -17.785  0.00  0.00    -0.019 C 
ATOM     14  C   UNL     1      34.081 -22.685 -17.588  0.00  0.00    -0.028 C 
ATOM     15  C   UNL     1      35.030 -22.259 -18.652  0.00  0.00    +0.030 C 
ENDROOT
BRANCH   5  16
ATOM     16  O   UNL     1      28.838 -23.558 -14.924  0.00  0.00    -0.380 OA
ATOM     17  H   UNL     1      28.179 -23.977 -15.500  0.00  0.00    +0.211 HD
ENDBRANCH   5  16
BRANCH  12  18
ATOM     18  C   UNL     1      35.640 -23.547 -15.770  0.00  0.00    +0.163 C 
BRANCH  18  19
ATOM     19  O   UNL     1      35.907 -24.941 -15.831  0.00  0.00    -0.377 OA
ATOM     20  H   UNL     1      36.064 -25.279 -14.935  0.00  0.00    +0.211 HD
ENDBRANCH  18  19
ENDBRANCH  12  18
TORSDOF 3
ENDMDL
MODEL 4
REMARK VINA RESULT:      -7.0      4.832      7.991
REMARK  Name = 148189
REMARK  3 active torsions:
REMARK  status: ('A' for Active; 'I' for Inactive)
REMARK    1  A    between atoms: C_5  and  O_16
REMARK    2  A    between atoms: C_12  and  C_18
REMARK    3  A    between atoms: C_18  and  O_19
REMARK                            x       y       z     vdW  Elec       q    Type
REMARK                         _______ _______ _______ _____ _____    ______ ____
ROOT
ATOM      1  O   UNL     1      33.645  -6.630 -22.948  0.00  0.00    -0.293 OA
ATOM      2  C   UNL     1      31.895  -9.421 -21.447  0.00  0.00    +0.032 C 
ATOM      3  C   UNL     1      31.038  -9.710 -20.226  0.00  0.00    +0.003 C 
ATOM      4  C   UNL     1      32.520  -9.580 -20.062  0.00  0.00    +0.003 C 
ATOM      5  C   UNL     1      31.852  -8.010 -22.059  0.00  0.00    +0.140 C 
ATOM      6  C   UNL     1      32.282 -10.525 -22.419  0.00  0.00    +0.021 C 
ATOM      7  C   UNL     1      33.211 -10.273 -23.370  0.00  0.00    -0.036 C 
ATOM      8  C   UNL     1      33.131  -7.740 -22.856  0.00  0.00    +0.182 C 
ATOM      9  C   UNL     1      30.630  -7.840 -22.966  0.00  0.00    +0.037 C 
ATOM     10  C   UNL     1      33.696  -8.910 -23.558  0.00  0.00    +0.100 C 
ATOM     11  C   UNL     1      31.579 -11.849 -22.255  0.00  0.00    +0.004 C 
ATOM     12  C   UNL     1      33.913 -11.106 -24.351  0.00  0.00    -0.004 C 
ATOM     13  C   UNL     1      34.608  -8.920 -24.535  0.00  0.00    -0.019 C 
ATOM     14  C   UNL     1      34.752 -10.284 -25.024  0.00  0.00    -0.028 C 
ATOM     15  C   UNL     1      35.717 -10.579 -26.117  0.00  0.00    +0.030 C 
ENDROOT
BRANCH   5  16
ATOM     16  O   UNL     1      31.787  -7.011 -21.043  0.00  0.00    -0.380 OA
ATOM     17  H   UNL     1      31.179  -6.308 -21.317  0.00  0.00    +0.211 HD
ENDBRANCH   5  16
BRANCH  12  18
ATOM     18  C   UNL     1      33.782 -12.579 -24.506  0.00  0.00    +0.163 C 
BRANCH  18  19
ATOM     19  O   UNL     1      34.407 -13.244 -23.418  0.00  0.00    -0.377 OA
ATOM     20  H   UNL     1      34.515 -12.624 -22.680  0.00  0.00    +0.211 HD
ENDBRANCH  18  19
ENDBRANCH  12  18
TORSDOF 3
ENDMDL
MODEL 5
REMARK VINA RESULT:      -6.9      4.407      8.237
REMARK  Name = 148189
REMARK  3 active torsions:
REMARK  status: ('A' for Active; 'I' for Inactive)
REMARK    1  A    between atoms: C_5  and  O_16
REMARK    2  A    between atoms: C_12  and  C_18
REMARK    3  A    between atoms: C_18  and  O_19
REMARK                            x       y       z     vdW  Elec       q    Type
REMARK                         _______ _______ _______ _____ _____    ______ ____
ROOT
ATOM      1  O   UNL     1      34.067  -8.157 -24.429  0.00  0.00    -0.293 OA
ATOM      2  C   UNL     1      32.091  -8.573 -21.423  0.00  0.00    +0.032 C 
ATOM      3  C   UNL     1      31.583  -7.733 -20.264  0.00  0.00    +0.003 C 
ATOM      4  C   UNL     1      33.018  -8.158 -20.282  0.00  0.00    +0.003 C 
ATOM      5  C   UNL     1      32.289  -7.897 -22.792  0.00  0.00    +0.140 C 
ATOM      6  C   UNL     1      31.836 -10.071 -21.484  0.00  0.00    +0.021 C 
ATOM      7  C   UNL     1      32.478 -10.814 -22.416  0.00  0.00    -0.036 C 
ATOM      8  C   UNL     1      33.299  -8.684 -23.629  0.00  0.00    +0.182 C 
ATOM      9  C   UNL     1      30.961  -7.787 -23.548  0.00  0.00    +0.037 C 
ATOM     10  C   UNL     1      33.265 -10.150 -23.448  0.00  0.00    +0.100 C 
ATOM     11  C   UNL     1      30.855 -10.632 -20.487  0.00  0.00    +0.004 C 
ATOM     12  C   UNL     1      32.586 -12.254 -22.669  0.00  0.00    -0.004 C 
ATOM     13  C   UNL     1      33.807 -11.086 -24.232  0.00  0.00    -0.019 C 
ATOM     14  C   UNL     1      33.395 -12.395 -23.746  0.00  0.00    -0.028 C 
ATOM     15  C   UNL     1      33.868 -13.624 -24.439  0.00  0.00    +0.030 C 
ENDROOT
BRANCH   5  16
ATOM     16  O   UNL     1      32.819  -6.581 -22.643  0.00  0.00    -0.380 OA
ATOM     17  H   UNL     1      32.094  -5.937 -22.639  0.00  0.00    +0.211 HD
ENDBRANCH   5  16
BRANCH  12  18
ATOM     18  C   UNL     1      31.989 -13.338 -21.845  0.00  0.00    +0.163 C 
BRANCH  18  19
ATOM     19  O   UNL     1      32.920 -13.780 -20.868  0.00  0.00    -0.377 OA
ATOM     20  H   UNL     1      33.712 -13.222 -20.901  0.00  0.00    +0.211 HD
ENDBRANCH  18  19
ENDBRANCH  12  18
TORSDOF 3
ENDMDL
MODEL 6
REMARK VINA RESULT:      -6.9      2.376      5.697
REMARK  Name = 148189
REMARK  3 active torsions:
REMARK  status: ('A' for Active; 'I' for Inactive)
REMARK    1  A    between atoms: C_5  and  O_16
REMARK    2  A    between atoms: C_12  and  C_18
REMARK    3  A    between atoms: C_18  and  O_19
REMARK                            x       y       z     vdW  Elec       q    Type
REMARK                         _______ _______ _______ _____ _____    ______ ____
ROOT
ATOM      1  O   UNL     1      31.536 -17.211 -20.868  0.00  0.00    -0.293 OA
ATOM      2  C   UNL     1      34.797 -17.113 -22.439  0.00  0.00    +0.032 C 
ATOM      3  C   UNL     1      35.549 -16.277 -23.460  0.00  0.00    +0.003 C 
ATOM      4  C   UNL     1      34.518 -17.252 -23.935  0.00  0.00    +0.003 C 
ATOM      5  C   UNL     1      33.728 -16.428 -21.569  0.00  0.00    +0.140 C 
ATOM      6  C   UNL     1      35.422 -18.354 -21.820  0.00  0.00    +0.021 C 
ATOM      7  C   UNL     1      34.651 -19.184 -21.080  0.00  0.00    -0.036 C 
ATOM      8  C   UNL     1      32.723 -17.460 -21.054  0.00  0.00    +0.182 C 
ATOM      9  C   UNL     1      34.369 -15.693 -20.388  0.00  0.00    +0.037 C 
ATOM     10  C   UNL     1      33.286 -18.791 -20.746  0.00  0.00    +0.100 C 
ATOM     11  C   UNL     1      36.892 -18.569 -22.072  0.00  0.00    +0.004 C 
ATOM     12  C   UNL     1      34.868 -20.500 -20.471  0.00  0.00    -0.004 C 
ATOM     13  C   UNL     1      32.730 -19.772 -20.029  0.00  0.00    -0.019 C 
ATOM     14  C   UNL     1      33.706 -20.839 -19.864  0.00  0.00    -0.028 C 
ATOM     15  C   UNL     1      33.340 -22.066 -19.105  0.00  0.00    +0.030 C 
ENDROOT
BRANCH   5  16
ATOM     16  O   UNL     1      32.983 -15.475 -22.326  0.00  0.00    -0.380 OA
ATOM     17  H   UNL     1      32.124 -15.854 -22.569  0.00  0.00    +0.211 HD
ENDBRANCH   5  16
BRANCH  12  18
ATOM     18  C   UNL     1      36.099 -21.327 -20.583  0.00  0.00    +0.163 C 
BRANCH  18  19
ATOM     19  O   UNL     1      36.762 -21.391 -19.328  0.00  0.00    -0.377 OA
ATOM     20  H   UNL     1      36.637 -20.553 -18.854  0.00  0.00    +0.211 HD
ENDBRANCH  18  19
ENDBRANCH  12  18
TORSDOF 3
ENDMDL
MODEL 7
REMARK VINA RESULT:      -6.7      1.850      3.260
REMARK  Name = 148189
REMARK  3 active torsions:
REMARK  status: ('A' for Active; 'I' for Inactive)
REMARK    1  A    between atoms: C_5  and  O_16
REMARK    2  A    between atoms: C_12  and  C_18
REMARK    3  A    between atoms: C_18  and  O_19
REMARK                            x       y       z     vdW  Elec       q    Type
REMARK                         _______ _______ _______ _____ _____    ______ ____
ROOT
ATOM      1  O   UNL     1      34.576 -18.712 -25.497  0.00  0.00    -0.293 OA
ATOM      2  C   UNL     1      34.458 -17.997 -21.949  0.00  0.00    +0.032 C 
ATOM      3  C   UNL     1      34.502 -18.749 -20.629  0.00  0.00    +0.003 C 
ATOM      4  C   UNL     1      33.239 -18.761 -21.433  0.00  0.00    +0.003 C 
ATOM      5  C   UNL     1      35.215 -18.582 -23.155  0.00  0.00    +0.140 C 
ATOM      6  C   UNL     1      34.257 -16.490 -21.992  0.00  0.00    +0.021 C 
ATOM      7  C   UNL     1      34.015 -15.890 -23.181  0.00  0.00    -0.036 C 
ATOM      8  C   UNL     1      34.617 -18.055 -24.460  0.00  0.00    +0.182 C 
ATOM      9  C   UNL     1      36.705 -18.234 -23.089  0.00  0.00    +0.037 C 
ATOM     10  C   UNL     1      34.121 -16.664 -24.413  0.00  0.00    +0.100 C 
ATOM     11  C   UNL     1      34.354 -15.756 -20.680  0.00  0.00    +0.004 C 
ATOM     12  C   UNL     1      33.641 -14.527 -23.573  0.00  0.00    -0.004 C 
ATOM     13  C   UNL     1      33.824 -15.862 -25.440  0.00  0.00    -0.019 C 
ATOM     14  C   UNL     1      33.517 -14.536 -24.922  0.00  0.00    -0.028 C 
ATOM     15  C   UNL     1      33.143 -13.444 -25.861  0.00  0.00    +0.030 C 
ENDROOT
BRANCH   5  16
ATOM     16  O   UNL     1      35.097 -20.003 -23.196  0.00  0.00    -0.380 OA
ATOM     17  H   UNL     1      35.390 -20.377 -22.351  0.00  0.00    +0.211 HD
ENDBRANCH   5  16
BRANCH  12  18
ATOM     18  C   UNL     1      33.370 -13.392 -22.653  0.00  0.00    +0.163 C 
BRANCH  18  19
ATOM     19  O   UNL     1      31.977 -13.291 -22.396  0.00  0.00    -0.377 OA
ATOM     20  H   UNL     1      31.514 -13.046 -23.212  0.00  0.00    +0.211 HD
ENDBRANCH  18  19
ENDBRANCH  12  18
TORSDOF 3
ENDMDL
MODEL 8
REMARK VINA RESULT:      -6.5      2.726      6.120
REMARK  Name = 148189
REMARK  3 active torsions:
REMARK  status: ('A' for Active; 'I' for Inactive)
REMARK    1  A    between atoms: C_5  and  O_16
REMARK    2  A    between atoms: C_12  and  C_18
REMARK    3  A    between atoms: C_18  and  O_19
REMARK                            x       y       z     vdW  Elec       q    Type
REMARK                         _______ _______ _______ _____ _____    ______ ____
ROOT
ATOM      1  O   UNL     1      37.720 -18.311 -22.131  0.00  0.00    -0.293 OA
ATOM      2  C   UNL     1      34.198 -17.506 -21.885  0.00  0.00    +0.032 C 
ATOM      3  C   UNL     1      33.252 -16.382 -22.273  0.00  0.00    +0.003 C 
ATOM      4  C   UNL     1      34.145 -16.205 -21.085  0.00  0.00    +0.003 C 
ATOM      5  C   UNL     1      35.437 -17.761 -22.762  0.00  0.00    +0.140 C 
ATOM      6  C   UNL     1      33.706 -18.718 -21.109  0.00  0.00    +0.021 C 
ATOM      7  C   UNL     1      34.610 -19.589 -20.603  0.00  0.00    -0.036 C 
ATOM      8  C   UNL     1      36.517 -18.482 -21.953  0.00  0.00    +0.182 C 
ATOM      9  C   UNL     1      35.075 -18.590 -23.998  0.00  0.00    +0.037 C 
ATOM     10  C   UNL     1      36.019 -19.450 -20.954  0.00  0.00    +0.100 C 
ATOM     11  C   UNL     1      32.214 -18.869 -20.963  0.00  0.00    +0.004 C 
ATOM     12  C   UNL     1      34.514 -20.748 -19.710  0.00  0.00    -0.004 C 
ATOM     13  C   UNL     1      36.705 -20.409 -20.326  0.00  0.00    -0.019 C 
ATOM     14  C   UNL     1      35.775 -21.212 -19.545  0.00  0.00    -0.028 C 
ATOM     15  C   UNL     1      36.283 -22.353 -18.736  0.00  0.00    +0.030 C 
ENDROOT
BRANCH   5  16
ATOM     16  O   UNL     1      36.012 -16.534 -23.208  0.00  0.00    -0.380 OA
ATOM     17  H   UNL     1      36.978 -16.614 -23.219  0.00  0.00    +0.211 HD
ENDBRANCH   5  16
BRANCH  12  18
ATOM     18  C   UNL     1      33.279 -21.251 -19.053  0.00  0.00    +0.163 C 
BRANCH  18  19
ATOM     19  O   UNL     1      33.015 -22.586 -19.458  0.00  0.00    -0.377 OA
ATOM     20  H   UNL     1      33.520 -23.198 -18.900  0.00  0.00    +0.211 HD
ENDBRANCH  18  19
ENDBRANCH  12  18
TORSDOF 3
ENDMDL
MODEL 9
REMARK VINA RESULT:      -6.5      8.525     10.885
REMARK  Name = 148189
REMARK  3 active torsions:
REMARK  status: ('A' for Active; 'I' for Inactive)
REMARK    1  A    between atoms: C_5  and  O_16
REMARK    2  A    between atoms: C_12  and  C_18
REMARK    3  A    between atoms: C_18  and  O_19
REMARK                            x       y       z     vdW  Elec       q    Type
REMARK                         _______ _______ _______ _____ _____    ______ ____
ROOT
ATOM      1  O   UNL     1      31.461  -7.081 -20.782  0.00  0.00    -0.293 OA
ATOM      2  C   UNL     1      33.432  -7.347 -23.808  0.00  0.00    +0.032 C 
ATOM      3  C   UNL     1      34.467  -8.276 -24.421  0.00  0.00    +0.003 C 
ATOM      4  C   UNL     1      34.885  -7.335 -23.335  0.00  0.00    +0.003 C 
ATOM      5  C   UNL     1      32.373  -7.945 -22.864  0.00  0.00    +0.140 C 
ATOM      6  C   UNL     1      33.010  -6.065 -24.508  0.00  0.00    +0.021 C 
ATOM      7  C   UNL     1      32.250  -5.166 -23.840  0.00  0.00    -0.036 C 
ATOM      8  C   UNL     1      31.823  -6.861 -21.934  0.00  0.00    +0.182 C 
ATOM      9  C   UNL     1      31.227  -8.582 -23.655  0.00  0.00    +0.037 C 
ATOM     10  C   UNL     1      31.707  -5.515 -22.531  0.00  0.00    +0.100 C 
ATOM     11  C   UNL     1      33.470  -5.888 -25.932  0.00  0.00    +0.004 C 
ATOM     12  C   UNL     1      31.791  -3.805 -24.134  0.00  0.00    -0.004 C 
ATOM     13  C   UNL     1      31.011  -4.470 -22.073  0.00  0.00    -0.019 C 
ATOM     14  C   UNL     1      31.069  -3.403 -23.062  0.00  0.00    -0.028 C 
ATOM     15  C   UNL     1      30.377  -2.112 -22.797  0.00  0.00    +0.030 C 
ENDROOT
BRANCH   5  16
ATOM     16  O   UNL     1      32.941  -8.951 -22.026  0.00  0.00    -0.380 OA
ATOM     17  H   UNL     1      33.861  -8.723 -21.824  0.00  0.00    +0.211 HD
ENDBRANCH   5  16
BRANCH  12  18
ATOM     18  C   UNL     1      32.134  -3.004 -25.339  0.00  0.00    +0.163 C 
BRANCH  18  19
ATOM     19  O   UNL     1      31.043  -2.993 -26.247  0.00  0.00    -0.377 OA
ATOM     20  H   UNL     1      31.214  -3.621 -26.966  0.00  0.00    +0.211 HD
ENDBRANCH  18  19
ENDBRANCH  12  18
TORSDOF 3
ENDMDL
