MODEL 1
REMARK VINA RESULT:      -9.2      0.000      0.000
REMARK  Name = 3033825
REMARK  5 active torsions:
REMARK  status: ('A' for Active; 'I' for Inactive)
REMARK    1  A    between atoms: C_1  and  C_12
REMARK    2  A    between atoms: C_6  and  N_16
REMARK    3  A    between atoms: N_16  and  N_18
REMARK    4  A    between atoms: C_19  and  C_21
REMARK    5  A    between atoms: C_19  and  C_23
REMARK                            x       y       z     vdW  Elec       q    Type
REMARK                         _______ _______ _______ _____ _____    ______ ____
ROOT
ATOM      1  C   UNL     1      31.772 -23.285 -15.876  0.00  0.00    +0.015 C 
ATOM      2  C   UNL     1      32.311 -23.636 -14.641  0.00  0.00    +0.003 C 
ATOM      3  C   UNL     1      32.599 -23.112 -16.983  0.00  0.00    +0.003 C 
ATOM      4  C   UNL     1      33.688 -23.816 -14.512  0.00  0.00    +0.016 C 
ATOM      5  C   UNL     1      33.976 -23.292 -16.853  0.00  0.00    +0.016 C 
ATOM      6  C   UNL     1      34.521 -23.644 -15.617  0.00  0.00    +0.065 C 
ENDROOT
BRANCH   1  12
ATOM      7  O   UNL     1      26.408 -22.117 -16.401  0.00  0.00    -0.273 OA
ATOM      8  N   UNL     1      29.822 -22.696 -17.161  0.00  0.00    -0.184 NA
ATOM      9  N   UNL     1      28.493 -22.474 -17.284  0.00  0.00    -0.206 N 
ATOM     10  C   UNL     1      29.379 -23.391 -14.836  0.00  0.00    +0.051 C 
ATOM     11  C   UNL     1      28.215 -22.412 -14.868  0.00  0.00    +0.093 C 
ATOM     12  C   UNL     1      30.292 -23.091 -16.015  0.00  0.00    +0.076 C 
ATOM     13  C   UNL     1      28.897 -24.842 -14.898  0.00  0.00    +0.007 C 
ATOM     14  C   UNL     1      27.607 -22.343 -16.241  0.00  0.00    +0.241 C 
ATOM     15  H   UNL     1      28.130 -22.402 -18.197  0.00  0.00    +0.177 HD
ENDBRANCH   1  12
BRANCH   6  16
ATOM     16  N   UNL     1      35.914 -23.826 -15.486  0.00  0.00    -0.235 N 
ATOM     17  H   UNL     1      36.501 -23.690 -16.264  0.00  0.00    +0.174 HD
BRANCH  16  18
ATOM     18  N   UNL     1      36.442 -24.186 -14.302  0.00  0.00    -0.160 NA
ATOM     19  C   UNL     1      36.836 -25.406 -14.148  0.00  0.00    +0.234 C 
BRANCH  19  21
ATOM     20  N   UNL     1      37.818 -25.868 -11.792  0.00  0.00    -0.188 NA
ATOM     21  C   UNL     1      37.380 -25.660 -12.847  0.00  0.00    +0.132 C 
ENDBRANCH  19  21
BRANCH  19  23
ATOM     22  N   UNL     1      36.647 -27.179 -16.031  0.00  0.00    -0.188 NA
ATOM     23  C   UNL     1      36.732 -26.384 -15.190  0.00  0.00    +0.132 C 
ENDBRANCH  19  23
ENDBRANCH  16  18
ENDBRANCH   6  16
TORSDOF 5
ENDMDL
MODEL 2
REMARK VINA RESULT:      -9.1      6.089      7.919
REMARK  Name = 3033825
REMARK  5 active torsions:
REMARK  status: ('A' for Active; 'I' for Inactive)
REMARK    1  A    between atoms: C_1  and  C_12
REMARK    2  A    between atoms: C_6  and  N_16
REMARK    3  A    between atoms: N_16  and  N_18
REMARK    4  A    between atoms: C_19  and  C_21
REMARK    5  A    between atoms: C_19  and  C_23
REMARK                            x       y       z     vdW  Elec       q    Type
REMARK                         _______ _______ _______ _____ _____    ______ ____
ROOT
ATOM      1  C   UNL     1      34.361 -19.806 -20.672  0.00  0.00    +0.015 C 
ATOM      2  C   UNL     1      33.040 -20.122 -20.370  0.00  0.00    +0.003 C 
ATOM      3  C   UNL     1      35.399 -20.631 -20.247  0.00  0.00    +0.003 C 
ATOM      4  C   UNL     1      32.753 -21.273 -19.635  0.00  0.00    +0.016 C 
ATOM      5  C   UNL     1      35.112 -21.782 -19.513  0.00  0.00    +0.016 C 
ATOM      6  C   UNL     1      33.789 -22.103 -19.207  0.00  0.00    +0.065 C 
ENDROOT
BRANCH   1  12
ATOM      7  O   UNL     1      35.053 -15.254 -23.707  0.00  0.00    -0.273 OA
ATOM      8  N   UNL     1      34.204 -17.431 -21.042  0.00  0.00    -0.184 NA
ATOM      9  N   UNL     1      34.438 -16.317 -21.771  0.00  0.00    -0.206 N 
ATOM     10  C   UNL     1      35.541 -18.668 -22.706  0.00  0.00    +0.051 C 
ATOM     11  C   UNL     1      35.052 -17.642 -23.716  0.00  0.00    +0.093 C 
ATOM     12  C   UNL     1      34.670 -18.569 -21.462  0.00  0.00    +0.076 C 
ATOM     13  C   UNL     1      37.009 -18.445 -22.340  0.00  0.00    +0.007 C 
ATOM     14  C   UNL     1      34.876 -16.294 -23.075  0.00  0.00    +0.241 C 
ATOM     15  H   UNL     1      34.283 -15.448 -21.332  0.00  0.00    +0.177 HD
ENDBRANCH   1  12
BRANCH   6  16
ATOM     16  N   UNL     1      33.499 -23.267 -18.464  0.00  0.00    -0.235 N 
ATOM     17  H   UNL     1      32.880 -23.940 -18.829  0.00  0.00    +0.174 HD
BRANCH  16  18
ATOM     18  N   UNL     1      34.064 -23.460 -17.259  0.00  0.00    -0.160 NA
ATOM     19  C   UNL     1      33.308 -23.431 -16.212  0.00  0.00    +0.234 C 
BRANCH  19  21
ATOM     20  N   UNL     1      34.612 -23.828 -14.005  0.00  0.00    -0.188 NA
ATOM     21  C   UNL     1      34.029 -23.652 -14.993  0.00  0.00    +0.132 C 
ENDBRANCH  19  21
BRANCH  19  23
ATOM     22  N   UNL     1      30.752 -23.018 -16.359  0.00  0.00    -0.188 NA
ATOM     23  C   UNL     1      31.896 -23.203 -16.291  0.00  0.00    +0.132 C 
ENDBRANCH  19  23
ENDBRANCH  16  18
ENDBRANCH   6  16
TORSDOF 5
ENDMDL
MODEL 3
REMARK VINA RESULT:      -9.1      7.120      8.396
REMARK  Name = 3033825
REMARK  5 active torsions:
REMARK  status: ('A' for Active; 'I' for Inactive)
REMARK    1  A    between atoms: C_1  and  C_12
REMARK    2  A    between atoms: C_6  and  N_16
REMARK    3  A    between atoms: N_16  and  N_18
REMARK    4  A    between atoms: C_19  and  C_21
REMARK    5  A    between atoms: C_19  and  C_23
REMARK                            x       y       z     vdW  Elec       q    Type
REMARK                         _______ _______ _______ _____ _____    ______ ____
ROOT
ATOM      1  C   UNL     1      34.706 -18.300 -21.294  0.00  0.00    +0.015 C 
ATOM      2  C   UNL     1      33.659 -19.142 -20.935  0.00  0.00    +0.003 C 
ATOM      3  C   UNL     1      36.026 -18.671 -21.050  0.00  0.00    +0.003 C 
ATOM      4  C   UNL     1      33.932 -20.367 -20.325  0.00  0.00    +0.016 C 
ATOM      5  C   UNL     1      36.299 -19.895 -20.440  0.00  0.00    +0.016 C 
ATOM      6  C   UNL     1      35.252 -20.743 -20.078  0.00  0.00    +0.065 C 
ENDROOT
BRANCH   1  12
ATOM      7  O   UNL     1      34.077 -13.435 -23.817  0.00  0.00    -0.273 OA
ATOM      8  N   UNL     1      34.435 -16.916 -23.248  0.00  0.00    -0.184 NA
ATOM      9  N   UNL     1      34.217 -15.723 -23.847  0.00  0.00    -0.206 N 
ATOM     10  C   UNL     1      34.067 -15.776 -21.091  0.00  0.00    +0.051 C 
ATOM     11  C   UNL     1      34.624 -14.532 -21.767  0.00  0.00    +0.093 C 
ATOM     12  C   UNL     1      34.413 -16.983 -21.950  0.00  0.00    +0.076 C 
ATOM     13  C   UNL     1      32.552 -15.682 -20.899  0.00  0.00    +0.007 C 
ATOM     14  C   UNL     1      34.258 -14.498 -23.224  0.00  0.00    +0.241 C 
ATOM     15  H   UNL     1      34.011 -15.733 -24.810  0.00  0.00    +0.177 HD
ENDBRANCH   1  12
BRANCH   6  16
ATOM     16  N   UNL     1      35.528 -21.982 -19.461  0.00  0.00    -0.235 N 
ATOM     17  H   UNL     1      35.150 -22.810 -19.835  0.00  0.00    +0.174 HD
BRANCH  16  18
ATOM     18  N   UNL     1      36.305 -22.034 -18.364  0.00  0.00    -0.160 NA
ATOM     19  C   UNL     1      35.791 -22.476 -17.265  0.00  0.00    +0.234 C 
BRANCH  19  21
ATOM     20  N   UNL     1      37.471 -22.487 -15.289  0.00  0.00    -0.188 NA
ATOM     21  C   UNL     1      36.720 -22.483 -16.174  0.00  0.00    +0.132 C 
ENDBRANCH  19  21
BRANCH  19  23
ATOM     22  N   UNL     1      33.325 -23.260 -17.098  0.00  0.00    -0.188 NA
ATOM     23  C   UNL     1      34.428 -22.910 -17.175  0.00  0.00    +0.132 C 
ENDBRANCH  19  23
ENDBRANCH  16  18
ENDBRANCH   6  16
TORSDOF 5
ENDMDL
MODEL 4
REMARK VINA RESULT:      -9.1      1.029      1.937
REMARK  Name = 3033825
REMARK  5 active torsions:
REMARK  status: ('A' for Active; 'I' for Inactive)
REMARK    1  A    between atoms: C_1  and  C_12
REMARK    2  A    between atoms: C_6  and  N_16
REMARK    3  A    between atoms: N_16  and  N_18
REMARK    4  A    between atoms: C_19  and  C_21
REMARK    5  A    between atoms: C_19  and  C_23
REMARK                            x       y       z     vdW  Elec       q    Type
REMARK                         _______ _______ _______ _____ _____    ______ ____
ROOT
ATOM      1  C   UNL     1      31.735 -23.097 -15.965  0.00  0.00    +0.015 C 
ATOM      2  C   UNL     1      32.506 -23.034 -17.121  0.00  0.00    +0.003 C 
ATOM      3  C   UNL     1      32.340 -23.252 -14.720  0.00  0.00    +0.003 C 
ATOM      4  C   UNL     1      33.895 -23.128 -17.034  0.00  0.00    +0.016 C 
ATOM      5  C   UNL     1      33.729 -23.346 -14.633  0.00  0.00    +0.016 C 
ATOM      6  C   UNL     1      34.507 -23.284 -15.790  0.00  0.00    +0.065 C 
ENDROOT
BRANCH   1  12
ATOM      7  O   UNL     1      26.294 -22.266 -16.315  0.00  0.00    -0.273 OA
ATOM      8  N   UNL     1      29.713 -22.619 -17.184  0.00  0.00    -0.184 NA
ATOM      9  N   UNL     1      28.370 -22.481 -17.264  0.00  0.00    -0.206 N 
ATOM     10  C   UNL     1      29.386 -23.366 -14.855  0.00  0.00    +0.051 C 
ATOM     11  C   UNL     1      28.162 -22.462 -14.841  0.00  0.00    +0.093 C 
ATOM     12  C   UNL     1      30.241 -22.996 -16.058  0.00  0.00    +0.076 C 
ATOM     13  C   UNL     1      28.994 -24.844 -14.921  0.00  0.00    +0.007 C 
ATOM     14  C   UNL     1      27.509 -22.417 -16.194  0.00  0.00    +0.241 C 
ATOM     15  H   UNL     1      27.975 -22.422 -18.165  0.00  0.00    +0.177 HD
ENDBRANCH   1  12
BRANCH   6  16
ATOM     16  N   UNL     1      35.912 -23.379 -15.702  0.00  0.00    -0.235 N 
ATOM     17  H   UNL     1      36.459 -22.561 -15.711  0.00  0.00    +0.174 HD
BRANCH  16  18
ATOM     18  N   UNL     1      36.505 -24.582 -15.607  0.00  0.00    -0.160 NA
ATOM     19  C   UNL     1      37.256 -24.820 -14.583  0.00  0.00    +0.234 C 
BRANCH  19  21
ATOM     20  N   UNL     1      38.290 -27.198 -14.608  0.00  0.00    -0.188 NA
ATOM     21  C   UNL     1      37.826 -26.134 -14.598  0.00  0.00    +0.132 C 
ENDBRANCH  19  21
BRANCH  19  23
ATOM     22  N   UNL     1      37.650 -23.062 -12.716  0.00  0.00    -0.188 NA
ATOM     23  C   UNL     1      37.475 -23.851 -13.550  0.00  0.00    +0.132 C 
ENDBRANCH  19  23
ENDBRANCH  16  18
ENDBRANCH   6  16
TORSDOF 5
ENDMDL
MODEL 5
REMARK VINA RESULT:      -9.1      6.086      7.871
REMARK  Name = 3033825
REMARK  5 active torsions:
REMARK  status: ('A' for Active; 'I' for Inactive)
REMARK    1  A    between atoms: C_1  and  C_12
REMARK    2  A    between atoms: C_6  and  N_16
REMARK    3  A    between atoms: N_16  and  N_18
REMARK    4  A    between atoms: C_19  and  C_21
REMARK    5  A    between atoms: C_19  and  C_23
REMARK                            x       y       z     vdW  Elec       q    Type
REMARK                         _______ _______ _______ _____ _____    ______ ____
ROOT
ATOM      1  C   UNL     1      34.349 -19.838 -20.619  0.00  0.00    +0.015 C 
ATOM      2  C   UNL     1      33.025 -20.137 -20.313  0.00  0.00    +0.003 C 
ATOM      3  C   UNL     1      35.380 -20.660 -20.172  0.00  0.00    +0.003 C 
ATOM      4  C   UNL     1      32.728 -21.267 -19.552  0.00  0.00    +0.016 C 
ATOM      5  C   UNL     1      35.083 -21.790 -19.411  0.00  0.00    +0.016 C 
ATOM      6  C   UNL     1      33.757 -22.094 -19.101  0.00  0.00    +0.065 C 
ENDROOT
BRANCH   1  12
ATOM      7  O   UNL     1      35.085 -15.370 -23.768  0.00  0.00    -0.273 OA
ATOM      8  N   UNL     1      34.192 -17.474 -21.058  0.00  0.00    -0.184 NA
ATOM      9  N   UNL     1      34.438 -16.380 -21.814  0.00  0.00    -0.206 N 
ATOM     10  C   UNL     1      35.564 -18.753 -22.662  0.00  0.00    +0.051 C 
ATOM     11  C   UNL     1      35.091 -17.757 -23.710  0.00  0.00    +0.093 C 
ATOM     12  C   UNL     1      34.669 -18.622 -21.438  0.00  0.00    +0.076 C 
ATOM     13  C   UNL     1      37.025 -18.515 -22.275  0.00  0.00    +0.007 C 
ATOM     14  C   UNL     1      34.899 -16.392 -23.110  0.00  0.00    +0.241 C 
ATOM     15  H   UNL     1      34.271 -15.500 -21.403  0.00  0.00    +0.177 HD
ENDBRANCH   1  12
BRANCH   6  16
ATOM     16  N   UNL     1      33.456 -23.238 -18.332  0.00  0.00    -0.235 N 
ATOM     17  H   UNL     1      33.807 -24.117 -18.603  0.00  0.00    +0.174 HD
BRANCH  16  18
ATOM     18  N   UNL     1      32.692 -23.132 -17.230  0.00  0.00    -0.160 NA
ATOM     19  C   UNL     1      33.234 -23.357 -16.079  0.00  0.00    +0.234 C 
BRANCH  19  21
ATOM     20  N   UNL     1      31.577 -23.089 -14.103  0.00  0.00    -0.188 NA
ATOM     21  C   UNL     1      32.318 -23.210 -14.988  0.00  0.00    +0.132 C 
ENDBRANCH  19  21
BRANCH  19  23
ATOM     22  N   UNL     1      35.734 -24.003 -15.829  0.00  0.00    -0.188 NA
ATOM     23  C   UNL     1      34.615 -23.713 -15.938  0.00  0.00    +0.132 C 
ENDBRANCH  19  23
ENDBRANCH  16  18
ENDBRANCH   6  16
TORSDOF 5
ENDMDL
MODEL 6
REMARK VINA RESULT:      -9.1      7.114      8.500
REMARK  Name = 3033825
REMARK  5 active torsions:
REMARK  status: ('A' for Active; 'I' for Inactive)
REMARK    1  A    between atoms: C_1  and  C_12
REMARK    2  A    between atoms: C_6  and  N_16
REMARK    3  A    between atoms: N_16  and  N_18
REMARK    4  A    between atoms: C_19  and  C_21
REMARK    5  A    between atoms: C_19  and  C_23
REMARK                            x       y       z     vdW  Elec       q    Type
REMARK                         _______ _______ _______ _____ _____    ______ ____
ROOT
ATOM      1  C   UNL     1      34.765 -18.342 -21.319  0.00  0.00    +0.015 C 
ATOM      2  C   UNL     1      36.087 -18.694 -21.064  0.00  0.00    +0.003 C 
ATOM      3  C   UNL     1      33.726 -19.198 -20.965  0.00  0.00    +0.003 C 
ATOM      4  C   UNL     1      36.374 -19.913 -20.450  0.00  0.00    +0.016 C 
ATOM      5  C   UNL     1      34.013 -20.417 -20.351  0.00  0.00    +0.016 C 
ATOM      6  C   UNL     1      35.337 -20.774 -20.093  0.00  0.00    +0.065 C 
ENDROOT
BRANCH   1  12
ATOM      7  O   UNL     1      34.076 -13.500 -23.868  0.00  0.00    -0.273 OA
ATOM      8  N   UNL     1      34.453 -16.975 -23.278  0.00  0.00    -0.184 NA
ATOM      9  N   UNL     1      34.221 -15.788 -23.883  0.00  0.00    -0.206 N 
ATOM     10  C   UNL     1      34.124 -15.818 -21.124  0.00  0.00    +0.051 C 
ATOM     11  C   UNL     1      34.665 -14.578 -21.820  0.00  0.00    +0.093 C 
ATOM     12  C   UNL     1      34.456 -17.031 -21.980  0.00  0.00    +0.076 C 
ATOM     13  C   UNL     1      32.612 -15.726 -20.904  0.00  0.00    +0.007 C 
ATOM     14  C   UNL     1      34.271 -14.557 -23.271  0.00  0.00    +0.241 C 
ATOM     15  H   UNL     1      33.996 -15.806 -24.842  0.00  0.00    +0.177 HD
ENDBRANCH   1  12
BRANCH   6  16
ATOM     16  N   UNL     1      35.627 -22.007 -19.471  0.00  0.00    -0.235 N 
ATOM     17  H   UNL     1      36.455 -22.488 -19.698  0.00  0.00    +0.174 HD
BRANCH  16  18
ATOM     18  N   UNL     1      34.775 -22.529 -18.570  0.00  0.00    -0.160 NA
ATOM     19  C   UNL     1      35.153 -22.607 -17.337  0.00  0.00    +0.234 C 
BRANCH  19  21
ATOM     20  N   UNL     1      33.352 -23.638 -15.782  0.00  0.00    -0.188 NA
ATOM     21  C   UNL     1      34.157 -23.177 -16.479  0.00  0.00    +0.132 C 
ENDBRANCH  19  21
BRANCH  19  23
ATOM     22  N   UNL     1      37.486 -21.791 -16.550  0.00  0.00    -0.188 NA
ATOM     23  C   UNL     1      36.442 -22.157 -16.900  0.00  0.00    +0.132 C 
ENDBRANCH  19  23
ENDBRANCH  16  18
ENDBRANCH   6  16
TORSDOF 5
ENDMDL
MODEL 7
REMARK VINA RESULT:      -9.1      6.472      7.941
REMARK  Name = 3033825
REMARK  5 active torsions:
REMARK  status: ('A' for Active; 'I' for Inactive)
REMARK    1  A    between atoms: C_1  and  C_12
REMARK    2  A    between atoms: C_6  and  N_16
REMARK    3  A    between atoms: N_16  and  N_18
REMARK    4  A    between atoms: C_19  and  C_21
REMARK    5  A    between atoms: C_19  and  C_23
REMARK                            x       y       z     vdW  Elec       q    Type
REMARK                         _______ _______ _______ _____ _____    ______ ____
ROOT
ATOM      1  C   UNL     1      34.578 -19.802 -21.278  0.00  0.00    +0.015 C 
ATOM      2  C   UNL     1      35.788 -20.261 -20.767  0.00  0.00    +0.003 C 
ATOM      3  C   UNL     1      33.372 -20.230 -20.729  0.00  0.00    +0.003 C 
ATOM      4  C   UNL     1      35.793 -21.156 -19.696  0.00  0.00    +0.016 C 
ATOM      5  C   UNL     1      33.377 -21.124 -19.659  0.00  0.00    +0.016 C 
ATOM      6  C   UNL     1      34.588 -21.587 -19.142  0.00  0.00    +0.065 C 
ENDROOT
BRANCH   1  12
ATOM      7  O   UNL     1      34.930 -16.484 -25.670  0.00  0.00    -0.273 OA
ATOM      8  N   UNL     1      34.229 -19.279 -23.604  0.00  0.00    -0.184 NA
ATOM      9  N   UNL     1      34.264 -18.430 -24.656  0.00  0.00    -0.206 N 
ATOM     10  C   UNL     1      34.931 -17.381 -22.192  0.00  0.00    +0.051 C 
ATOM     11  C   UNL     1      35.652 -16.858 -23.425  0.00  0.00    +0.093 C 
ATOM     12  C   UNL     1      34.572 -18.841 -22.429  0.00  0.00    +0.076 C 
ATOM     13  C   UNL     1      33.669 -16.570 -21.891  0.00  0.00    +0.007 C 
ATOM     14  C   UNL     1      34.905 -17.213 -24.679  0.00  0.00    +0.241 C 
ATOM     15  H   UNL     1      33.791 -18.706 -25.475  0.00  0.00    +0.177 HD
ENDBRANCH   1  12
BRANCH   6  16
ATOM     16  N   UNL     1      34.594 -22.492 -18.060  0.00  0.00    -0.235 N 
ATOM     17  H   UNL     1      33.796 -23.038 -17.874  0.00  0.00    +0.174 HD
BRANCH  16  18
ATOM     18  N   UNL     1      35.684 -22.610 -17.280  0.00  0.00    -0.160 NA
ATOM     19  C   UNL     1      35.523 -22.935 -16.041  0.00  0.00    +0.234 C 
BRANCH  19  21
ATOM     20  N   UNL     1      37.760 -23.109 -14.740  0.00  0.00    -0.188 NA
ATOM     21  C   UNL     1      36.759 -23.030 -15.321  0.00  0.00    +0.132 C 
ENDBRANCH  19  21
BRANCH  19  23
ATOM     22  N   UNL     1      33.182 -23.364 -15.011  0.00  0.00    -0.188 NA
ATOM     23  C   UNL     1      34.230 -23.175 -15.471  0.00  0.00    +0.132 C 
ENDBRANCH  19  23
ENDBRANCH  16  18
ENDBRANCH   6  16
TORSDOF 5
ENDMDL
MODEL 8
REMARK VINA RESULT:      -8.9      1.649      2.502
REMARK  Name = 3033825
REMARK  5 active torsions:
REMARK  status: ('A' for Active; 'I' for Inactive)
REMARK    1  A    between atoms: C_1  and  C_12
REMARK    2  A    between atoms: C_6  and  N_16
REMARK    3  A    between atoms: N_16  and  N_18
REMARK    4  A    between atoms: C_19  and  C_21
REMARK    5  A    between atoms: C_19  and  C_23
REMARK                            x       y       z     vdW  Elec       q    Type
REMARK                         _______ _______ _______ _____ _____    ______ ____
ROOT
ATOM      1  C   UNL     1      33.208 -23.337 -14.881  0.00  0.00    +0.015 C 
ATOM      2  C   UNL     1      34.276 -22.933 -15.676  0.00  0.00    +0.003 C 
ATOM      3  C   UNL     1      33.425 -23.776 -13.577  0.00  0.00    +0.003 C 
ATOM      4  C   UNL     1      35.573 -22.968 -15.164  0.00  0.00    +0.016 C 
ATOM      5  C   UNL     1      34.722 -23.810 -13.065  0.00  0.00    +0.016 C 
ATOM      6  C   UNL     1      35.796 -23.405 -13.859  0.00  0.00    +0.065 C 
ENDROOT
BRANCH   1  12
ATOM      7  O   UNL     1      28.110 -22.742 -16.899  0.00  0.00    -0.273 OA
ATOM      8  N   UNL     1      31.642 -22.944 -16.668  0.00  0.00    -0.184 NA
ATOM      9  N   UNL     1      30.384 -22.864 -17.160  0.00  0.00    -0.206 N 
ATOM     10  C   UNL     1      30.645 -23.711 -14.546  0.00  0.00    +0.051 C 
ATOM     11  C   UNL     1      29.439 -22.861 -14.919  0.00  0.00    +0.093 C 
ATOM     12  C   UNL     1      31.813 -23.301 -15.430  0.00  0.00    +0.076 C 
ATOM     13  C   UNL     1      30.355 -25.204 -14.713  0.00  0.00    +0.007 C 
ATOM     14  C   UNL     1      29.233 -22.840 -16.407  0.00  0.00    +0.241 C 
ATOM     15  H   UNL     1      30.284 -22.819 -18.139  0.00  0.00    +0.177 HD
ENDBRANCH   1  12
BRANCH   6  16
ATOM     16  N   UNL     1      37.108 -23.440 -13.341  0.00  0.00    -0.235 N 
ATOM     17  H   UNL     1      37.297 -23.046 -12.459  0.00  0.00    +0.174 HD
BRANCH  16  18
ATOM     18  N   UNL     1      38.102 -24.008 -14.049  0.00  0.00    -0.160 NA
ATOM     19  C   UNL     1      38.448 -25.219 -13.763  0.00  0.00    +0.234 C 
BRANCH  19  21
ATOM     20  N   UNL     1      40.375 -26.101 -15.258  0.00  0.00    -0.188 NA
ATOM     21  C   UNL     1      39.513 -25.708 -14.588  0.00  0.00    +0.132 C 
ENDBRANCH  19  21
BRANCH  19  23
ATOM     22  N   UNL     1      37.293 -26.585 -11.885  0.00  0.00    -0.188 NA
ATOM     23  C   UNL     1      37.812 -25.974 -12.724  0.00  0.00    +0.132 C 
ENDBRANCH  19  23
ENDBRANCH  16  18
ENDBRANCH   6  16
TORSDOF 5
ENDMDL
MODEL 9
REMARK VINA RESULT:      -8.9      4.565      7.801
REMARK  Name = 3033825
REMARK  5 active torsions:
REMARK  status: ('A' for Active; 'I' for Inactive)
REMARK    1  A    between atoms: C_1  and  C_12
REMARK    2  A    between atoms: C_6  and  N_16
REMARK    3  A    between atoms: N_16  and  N_18
REMARK    4  A    between atoms: C_19  and  C_21
REMARK    5  A    between atoms: C_19  and  C_23
REMARK                            x       y       z     vdW  Elec       q    Type
REMARK                         _______ _______ _______ _____ _____    ______ ____
ROOT
ATOM      1  C   UNL     1      35.640 -23.122 -15.255  0.00  0.00    +0.015 C 
ATOM      2  C   UNL     1      36.606 -22.443 -15.992  0.00  0.00    +0.003 C 
ATOM      3  C   UNL     1      34.422 -23.466 -15.834  0.00  0.00    +0.003 C 
ATOM      4  C   UNL     1      36.351 -22.104 -17.321  0.00  0.00    +0.016 C 
ATOM      5  C   UNL     1      34.168 -23.127 -17.163  0.00  0.00    +0.016 C 
ATOM      6  C   UNL     1      35.133 -22.447 -17.907  0.00  0.00    +0.065 C 
ENDROOT
BRANCH   1  12
ATOM      7  O   UNL     1      36.401 -24.088  -9.878  0.00  0.00    -0.273 OA
ATOM      8  N   UNL     1      34.935 -23.944 -13.103  0.00  0.00    -0.184 NA
ATOM      9  N   UNL     1      35.160 -24.232 -11.801  0.00  0.00    -0.206 N 
ATOM     10  C   UNL     1      37.323 -23.346 -13.270  0.00  0.00    +0.051 C 
ATOM     11  C   UNL     1      37.223 -22.943 -11.806  0.00  0.00    +0.093 C 
ATOM     12  C   UNL     1      35.913 -23.486 -13.826  0.00  0.00    +0.076 C 
ATOM     13  C   UNL     1      38.091 -24.658 -13.442  0.00  0.00    +0.007 C 
ATOM     14  C   UNL     1      36.250 -23.821 -11.070  0.00  0.00    +0.241 C 
ATOM     15  H   UNL     1      34.487 -24.782 -11.337  0.00  0.00    +0.177 HD
ENDBRANCH   1  12
BRANCH   6  16
ATOM     16  N   UNL     1      34.876 -22.104 -19.251  0.00  0.00    -0.235 N 
ATOM     17  H   UNL     1      34.158 -22.564 -19.745  0.00  0.00    +0.174 HD
BRANCH  16  18
ATOM     18  N   UNL     1      35.607 -21.154 -19.861  0.00  0.00    -0.160 NA
ATOM     19  C   UNL     1      34.990 -20.214 -20.496  0.00  0.00    +0.234 C 
BRANCH  19  21
ATOM     20  N   UNL     1      36.598 -18.497 -21.588  0.00  0.00    -0.188 NA
ATOM     21  C   UNL     1      35.879 -19.265 -21.098  0.00  0.00    +0.132 C 
ENDBRANCH  19  21
BRANCH  19  23
ATOM     22  N   UNL     1      32.402 -20.102 -20.632  0.00  0.00    -0.188 NA
ATOM     23  C   UNL     1      33.560 -20.150 -20.573  0.00  0.00    +0.132 C 
ENDBRANCH  19  23
ENDBRANCH  16  18
ENDBRANCH   6  16
TORSDOF 5
ENDMDL
