MODEL 1
REMARK VINA RESULT:      -7.6      0.000      0.000
REMARK  Name = 9363
REMARK  5 active torsions:
REMARK  status: ('A' for Active; 'I' for Inactive)
REMARK    1  A    between atoms: C_1  and  C_9
REMARK    2  A    between atoms: C_4  and  O_14
REMARK    3  A    between atoms: C_6  and  O_16
REMARK    4  A    between atoms: N_8  and  C_10
REMARK    5  A    between atoms: N_8  and  C_12
REMARK                            x       y       z     vdW  Elec       q    Type
REMARK                         _______ _______ _______ _____ _____    ______ ____
ROOT
ATOM      1  C   UNL     1      34.570 -19.175 -20.806  0.00  0.00    +0.057 C 
ATOM      2  C   UNL     1      35.535 -20.047 -20.302  0.00  0.00    +0.045 C 
ATOM      3  C   UNL     1      33.220 -19.521 -20.749  0.00  0.00    +0.008 C 
ATOM      4  C   UNL     1      35.150 -21.265 -19.742  0.00  0.00    +0.172 C 
ATOM      5  C   UNL     1      32.835 -20.740 -20.190  0.00  0.00    +0.040 C 
ATOM      6  C   UNL     1      33.800 -21.611 -19.686  0.00  0.00    +0.168 C 
ENDROOT
BRANCH   1   9
ATOM      7  O   UNL     1      35.282 -17.000 -20.606  0.00  0.00    -0.270 OA
ATOM      8  N   UNL     1      34.970 -17.770 -22.790  0.00  0.00    -0.276 N 
ATOM      9  C   UNL     1      34.971 -17.906 -21.390  0.00  0.00    +0.249 C 
BRANCH   8  10
ATOM     10  C   UNL     1      35.343 -16.526 -23.450  0.00  0.00    +0.094 C 
ATOM     11  C   UNL     1      34.295 -15.451 -23.241  0.00  0.00    +0.023 C 
ENDBRANCH   8  10
BRANCH   8  12
ATOM     12  C   UNL     1      34.594 -18.868 -23.678  0.00  0.00    +0.094 C 
ATOM     13  C   UNL     1      34.438 -18.395 -25.109  0.00  0.00    +0.023 C 
ENDBRANCH   8  12
ENDBRANCH   1   9
BRANCH   4  14
ATOM     14  O   UNL     1      36.101 -22.110 -19.255  0.00  0.00    -0.468 OA
ATOM     15  C   UNL     1      36.684 -21.774 -17.996  0.00  0.00    +0.253 C 
ENDBRANCH   4  14
BRANCH   6  16
ATOM     16  O   UNL     1      33.412 -22.799 -19.142  0.00  0.00    -0.503 OA
ATOM     17  H   UNL     1      33.388 -22.902 -18.211  0.00  0.00    +0.292 HD
ENDBRANCH   6  16
TORSDOF 5
ENDMDL
MODEL 2
REMARK VINA RESULT:      -7.6      2.253      5.900
REMARK  Name = 9363
REMARK  5 active torsions:
REMARK  status: ('A' for Active; 'I' for Inactive)
REMARK    1  A    between atoms: C_1  and  C_9
REMARK    2  A    between atoms: C_4  and  O_14
REMARK    3  A    between atoms: C_6  and  O_16
REMARK    4  A    between atoms: N_8  and  C_10
REMARK    5  A    between atoms: N_8  and  C_12
REMARK                            x       y       z     vdW  Elec       q    Type
REMARK                         _______ _______ _______ _____ _____    ______ ____
ROOT
ATOM      1  C   UNL     1      35.363 -18.170 -22.827  0.00  0.00    +0.057 C 
ATOM      2  C   UNL     1      35.139 -16.797 -22.722  0.00  0.00    +0.045 C 
ATOM      3  C   UNL     1      35.085 -18.832 -24.023  0.00  0.00    +0.008 C 
ATOM      4  C   UNL     1      34.637 -16.087 -23.813  0.00  0.00    +0.172 C 
ATOM      5  C   UNL     1      34.582 -18.122 -25.113  0.00  0.00    +0.040 C 
ATOM      6  C   UNL     1      34.359 -16.750 -25.008  0.00  0.00    +0.168 C 
ENDROOT
BRANCH   1   9
ATOM      7  O   UNL     1      37.098 -18.807 -21.462  0.00  0.00    -0.270 OA
ATOM      8  N   UNL     1      35.005 -19.702 -20.930  0.00  0.00    -0.276 N 
ATOM      9  C   UNL     1      35.885 -18.910 -21.690  0.00  0.00    +0.249 C 
BRANCH   8  10
ATOM     10  C   UNL     1      35.456 -20.485 -19.788  0.00  0.00    +0.094 C 
ATOM     11  C   UNL     1      36.160 -21.753 -20.227  0.00  0.00    +0.023 C 
ENDBRANCH   8  10
BRANCH   8  12
ATOM     12  C   UNL     1      33.580 -19.794 -21.237  0.00  0.00    +0.094 C 
ATOM     13  C   UNL     1      32.803 -20.397 -20.085  0.00  0.00    +0.023 C 
ENDBRANCH   8  12
ENDBRANCH   1   9
BRANCH   4  14
ATOM     14  O   UNL     1      34.421 -14.747 -23.698  0.00  0.00    -0.468 OA
ATOM     15  C   UNL     1      34.303 -14.219 -22.378  0.00  0.00    +0.253 C 
ENDBRANCH   4  14
BRANCH   6  16
ATOM     16  O   UNL     1      33.868 -16.067 -26.080  0.00  0.00    -0.503 OA
ATOM     17  H   UNL     1      33.200 -15.421 -25.958  0.00  0.00    +0.292 HD
ENDBRANCH   6  16
TORSDOF 5
ENDMDL
MODEL 3
REMARK VINA RESULT:      -7.4      1.306      1.949
REMARK  Name = 9363
REMARK  5 active torsions:
REMARK  status: ('A' for Active; 'I' for Inactive)
REMARK    1  A    between atoms: C_1  and  C_9
REMARK    2  A    between atoms: C_4  and  O_14
REMARK    3  A    between atoms: C_6  and  O_16
REMARK    4  A    between atoms: N_8  and  C_10
REMARK    5  A    between atoms: N_8  and  C_12
REMARK                            x       y       z     vdW  Elec       q    Type
REMARK                         _______ _______ _______ _____ _____    ______ ____
ROOT
ATOM      1  C   UNL     1      34.539 -19.482 -21.419  0.00  0.00    +0.057 C 
ATOM      2  C   UNL     1      35.525 -20.246 -20.794  0.00  0.00    +0.045 C 
ATOM      3  C   UNL     1      33.199 -19.655 -21.072  0.00  0.00    +0.008 C 
ATOM      4  C   UNL     1      35.170 -21.184 -19.824  0.00  0.00    +0.172 C 
ATOM      5  C   UNL     1      32.844 -20.593 -20.104  0.00  0.00    +0.040 C 
ATOM      6  C   UNL     1      33.830 -21.357 -19.479  0.00  0.00    +0.168 C 
ENDROOT
BRANCH   1   9
ATOM      7  O   UNL     1      35.391 -18.942 -23.483  0.00  0.00    -0.270 OA
ATOM      8  N   UNL     1      34.715 -17.138 -22.161  0.00  0.00    -0.276 N 
ATOM      9  C   UNL     1      34.908 -18.505 -22.430  0.00  0.00    +0.249 C 
BRANCH   8  10
ATOM     10  C   UNL     1      35.074 -16.099 -23.116  0.00  0.00    +0.094 C 
ATOM     11  C   UNL     1      33.971 -15.872 -24.130  0.00  0.00    +0.023 C 
ENDBRANCH   8  10
BRANCH   8  12
ATOM     12  C   UNL     1      34.141 -16.668 -20.902  0.00  0.00    +0.094 C 
ATOM     13  C   UNL     1      34.588 -15.256 -20.582  0.00  0.00    +0.023 C 
ENDBRANCH   8  12
ENDBRANCH   1   9
BRANCH   4  14
ATOM     14  O   UNL     1      36.141 -21.925 -19.222  0.00  0.00    -0.468 OA
ATOM     15  C   UNL     1      36.684 -21.418 -18.004  0.00  0.00    +0.253 C 
ENDBRANCH   4  14
BRANCH   6  16
ATOM     16  O   UNL     1      33.471 -22.270 -18.533  0.00  0.00    -0.503 OA
ATOM     17  H   UNL     1      33.145 -21.982 -17.704  0.00  0.00    +0.292 HD
ENDBRANCH   6  16
TORSDOF 5
ENDMDL
MODEL 4
REMARK VINA RESULT:      -7.4      1.991      5.734
REMARK  Name = 9363
REMARK  5 active torsions:
REMARK  status: ('A' for Active; 'I' for Inactive)
REMARK    1  A    between atoms: C_1  and  C_9
REMARK    2  A    between atoms: C_4  and  O_14
REMARK    3  A    between atoms: C_6  and  O_16
REMARK    4  A    between atoms: N_8  and  C_10
REMARK    5  A    between atoms: N_8  and  C_12
REMARK                            x       y       z     vdW  Elec       q    Type
REMARK                         _______ _______ _______ _____ _____    ______ ____
ROOT
ATOM      1  C   UNL     1      34.203 -19.162 -21.451  0.00  0.00    +0.057 C 
ATOM      2  C   UNL     1      34.265 -17.854 -20.972  0.00  0.00    +0.045 C 
ATOM      3  C   UNL     1      34.654 -19.455 -22.738  0.00  0.00    +0.008 C 
ATOM      4  C   UNL     1      34.777 -16.838 -21.780  0.00  0.00    +0.172 C 
ATOM      5  C   UNL     1      35.165 -18.440 -23.546  0.00  0.00    +0.040 C 
ATOM      6  C   UNL     1      35.227 -17.132 -23.067  0.00  0.00    +0.168 C 
ENDROOT
BRANCH   1   9
ATOM      7  O   UNL     1      32.441 -20.381 -20.620  0.00  0.00    -0.270 OA
ATOM      8  N   UNL     1      34.555 -20.984 -19.829  0.00  0.00    -0.276 N 
ATOM      9  C   UNL     1      33.668 -20.220 -20.609  0.00  0.00    +0.249 C 
BRANCH   8  10
ATOM     10  C   UNL     1      34.095 -22.049 -18.949  0.00  0.00    +0.094 C 
ATOM     11  C   UNL     1      33.975 -23.367 -19.688  0.00  0.00    +0.023 C 
ENDBRANCH   8  10
BRANCH   8  12
ATOM     12  C   UNL     1      35.999 -20.758 -19.847  0.00  0.00    +0.094 C 
ATOM     13  C   UNL     1      36.672 -21.378 -18.639  0.00  0.00    +0.023 C 
ENDBRANCH   8  12
ENDBRANCH   1   9
BRANCH   4  14
ATOM     14  O   UNL     1      34.831 -15.564 -21.302  0.00  0.00    -0.468 OA
ATOM     15  C   UNL     1      33.628 -15.024 -20.756  0.00  0.00    +0.253 C 
ENDBRANCH   4  14
BRANCH   6  16
ATOM     16  O   UNL     1      35.729 -16.149 -23.865  0.00  0.00    -0.503 OA
ATOM     17  H   UNL     1      35.380 -16.019 -24.725  0.00  0.00    +0.292 HD
ENDBRANCH   6  16
TORSDOF 5
ENDMDL
MODEL 5
REMARK VINA RESULT:      -7.1      2.204      5.812
REMARK  Name = 9363
REMARK  5 active torsions:
REMARK  status: ('A' for Active; 'I' for Inactive)
REMARK    1  A    between atoms: C_1  and  C_9
REMARK    2  A    between atoms: C_4  and  O_14
REMARK    3  A    between atoms: C_6  and  O_16
REMARK    4  A    between atoms: N_8  and  C_10
REMARK    5  A    between atoms: N_8  and  C_12
REMARK                            x       y       z     vdW  Elec       q    Type
REMARK                         _______ _______ _______ _____ _____    ______ ____
ROOT
ATOM      1  C   UNL     1      35.427 -17.696 -21.557  0.00  0.00    +0.057 C 
ATOM      2  C   UNL     1      35.241 -17.449 -22.917  0.00  0.00    +0.045 C 
ATOM      3  C   UNL     1      35.042 -16.742 -20.616  0.00  0.00    +0.008 C 
ATOM      4  C   UNL     1      34.671 -16.247 -23.336  0.00  0.00    +0.172 C 
ATOM      5  C   UNL     1      34.474 -15.539 -21.034  0.00  0.00    +0.040 C 
ATOM      6  C   UNL     1      34.287 -15.292 -22.394  0.00  0.00    +0.168 C 
ENDROOT
BRANCH   1   9
ATOM      7  O   UNL     1      37.258 -19.024 -21.148  0.00  0.00    -0.270 OA
ATOM      8  N   UNL     1      35.179 -19.998 -20.710  0.00  0.00    -0.276 N 
ATOM      9  C   UNL     1      36.023 -18.949 -21.120  0.00  0.00    +0.249 C 
BRANCH   8  10
ATOM     10  C   UNL     1      35.699 -21.287 -20.275  0.00  0.00    +0.094 C 
ATOM     11  C   UNL     1      36.418 -21.175 -18.946  0.00  0.00    +0.023 C 
ENDBRANCH   8  10
BRANCH   8  12
ATOM     12  C   UNL     1      33.724 -19.864 -20.694  0.00  0.00    +0.094 C 
ATOM     13  C   UNL     1      33.079 -20.939 -19.843  0.00  0.00    +0.023 C 
ENDBRANCH   8  12
ENDBRANCH   1   9
BRANCH   4  14
ATOM     14  O   UNL     1      34.495 -16.016 -24.667  0.00  0.00    -0.468 OA
ATOM     15  C   UNL     1      34.515 -17.151 -25.531  0.00  0.00    +0.253 C 
ENDBRANCH   4  14
BRANCH   6  16
ATOM     16  O   UNL     1      33.729 -14.114 -22.791  0.00  0.00    -0.503 OA
ATOM     17  H   UNL     1      33.236 -13.600 -22.182  0.00  0.00    +0.292 HD
ENDBRANCH   6  16
TORSDOF 5
ENDMDL
MODEL 6
REMARK VINA RESULT:      -7.0      1.125      2.091
REMARK  Name = 9363
REMARK  5 active torsions:
REMARK  status: ('A' for Active; 'I' for Inactive)
REMARK    1  A    between atoms: C_1  and  C_9
REMARK    2  A    between atoms: C_4  and  O_14
REMARK    3  A    between atoms: C_6  and  O_16
REMARK    4  A    between atoms: N_8  and  C_10
REMARK    5  A    between atoms: N_8  and  C_12
REMARK                            x       y       z     vdW  Elec       q    Type
REMARK                         _______ _______ _______ _____ _____    ______ ____
ROOT
ATOM      1  C   UNL     1      35.170 -18.553 -21.005  0.00  0.00    +0.057 C 
ATOM      2  C   UNL     1      34.019 -19.311 -20.791  0.00  0.00    +0.045 C 
ATOM      3  C   UNL     1      36.425 -19.102 -20.749  0.00  0.00    +0.008 C 
ATOM      4  C   UNL     1      34.124 -20.620 -20.318  0.00  0.00    +0.172 C 
ATOM      5  C   UNL     1      36.531 -20.410 -20.275  0.00  0.00    +0.040 C 
ATOM      6  C   UNL     1      35.381 -21.168 -20.061  0.00  0.00    +0.168 C 
ENDROOT
BRANCH   1   9
ATOM      7  O   UNL     1      35.050 -16.285 -20.650  0.00  0.00    -0.270 OA
ATOM      8  N   UNL     1      34.958 -16.970 -22.883  0.00  0.00    -0.276 N 
ATOM      9  C   UNL     1      35.060 -17.189 -21.497  0.00  0.00    +0.249 C 
BRANCH   8  10
ATOM     10  C   UNL     1      34.828 -15.635 -23.451  0.00  0.00    +0.094 C 
ATOM     11  C   UNL     1      33.461 -15.044 -23.172  0.00  0.00    +0.023 C 
ENDBRANCH   8  10
BRANCH   8  12
ATOM     12  C   UNL     1      34.974 -18.068 -23.847  0.00  0.00    +0.094 C 
ATOM     13  C   UNL     1      34.549 -17.602 -25.225  0.00  0.00    +0.023 C 
ENDBRANCH   8  12
ENDBRANCH   1   9
BRANCH   4  14
ATOM     14  O   UNL     1      32.994 -21.351 -20.111  0.00  0.00    -0.468 OA
ATOM     15  C   UNL     1      32.705 -21.731 -18.766  0.00  0.00    +0.253 C 
ENDBRANCH   4  14
BRANCH   6  16
ATOM     16  O   UNL     1      35.496 -22.445 -19.598  0.00  0.00    -0.503 OA
ATOM     17  H   UNL     1      35.583 -23.156 -20.202  0.00  0.00    +0.292 HD
ENDBRANCH   6  16
TORSDOF 5
ENDMDL
MODEL 7
REMARK VINA RESULT:      -6.9      4.500      7.158
REMARK  Name = 9363
REMARK  5 active torsions:
REMARK  status: ('A' for Active; 'I' for Inactive)
REMARK    1  A    between atoms: C_1  and  C_9
REMARK    2  A    between atoms: C_4  and  O_14
REMARK    3  A    between atoms: C_6  and  O_16
REMARK    4  A    between atoms: N_8  and  C_10
REMARK    5  A    between atoms: N_8  and  C_12
REMARK                            x       y       z     vdW  Elec       q    Type
REMARK                         _______ _______ _______ _____ _____    ______ ____
ROOT
ATOM      1  C   UNL     1      33.393 -13.563 -23.929  0.00  0.00    +0.057 C 
ATOM      2  C   UNL     1      34.233 -14.466 -23.275  0.00  0.00    +0.045 C 
ATOM      3  C   UNL     1      32.859 -13.886 -25.176  0.00  0.00    +0.008 C 
ATOM      4  C   UNL     1      34.538 -15.690 -23.869  0.00  0.00    +0.172 C 
ATOM      5  C   UNL     1      33.165 -15.110 -25.770  0.00  0.00    +0.040 C 
ATOM      6  C   UNL     1      34.003 -16.012 -25.117  0.00  0.00    +0.168 C 
ENDROOT
BRANCH   1   9
ATOM      7  O   UNL     1      32.343 -12.312 -22.312  0.00  0.00    -0.270 OA
ATOM      8  N   UNL     1      33.596 -11.107 -23.875  0.00  0.00    -0.276 N 
ATOM      9  C   UNL     1      33.076 -12.286 -23.310  0.00  0.00    +0.249 C 
BRANCH   8  10
ATOM     10  C   UNL     1      33.311  -9.790 -23.323  0.00  0.00    +0.094 C 
ATOM     11  C   UNL     1      31.930  -9.309 -23.722  0.00  0.00    +0.023 C 
ENDBRANCH   8  10
BRANCH   8  12
ATOM     12  C   UNL     1      34.458 -11.125 -25.055  0.00  0.00    +0.094 C 
ATOM     13  C   UNL     1      35.336  -9.892 -25.118  0.00  0.00    +0.023 C 
ENDBRANCH   8  12
ENDBRANCH   1   9
BRANCH   4  14
ATOM     14  O   UNL     1      35.359 -16.563 -23.222  0.00  0.00    -0.468 OA
ATOM     15  C   UNL     1      35.019 -16.900 -21.878  0.00  0.00    +0.253 C 
ENDBRANCH   4  14
BRANCH   6  16
ATOM     16  O   UNL     1      34.295 -17.205 -25.707  0.00  0.00    -0.503 OA
ATOM     17  H   UNL     1      34.777 -17.856 -25.236  0.00  0.00    +0.292 HD
ENDBRANCH   6  16
TORSDOF 5
ENDMDL
MODEL 8
REMARK VINA RESULT:      -6.8      1.758      3.179
REMARK  Name = 9363
REMARK  5 active torsions:
REMARK  status: ('A' for Active; 'I' for Inactive)
REMARK    1  A    between atoms: C_1  and  C_9
REMARK    2  A    between atoms: C_4  and  O_14
REMARK    3  A    between atoms: C_6  and  O_16
REMARK    4  A    between atoms: N_8  and  C_10
REMARK    5  A    between atoms: N_8  and  C_12
REMARK                            x       y       z     vdW  Elec       q    Type
REMARK                         _______ _______ _______ _____ _____    ______ ____
ROOT
ATOM      1  C   UNL     1      35.239 -18.467 -22.254  0.00  0.00    +0.057 C 
ATOM      2  C   UNL     1      34.381 -19.353 -21.602  0.00  0.00    +0.045 C 
ATOM      3  C   UNL     1      36.592 -18.432 -21.918  0.00  0.00    +0.008 C 
ATOM      4  C   UNL     1      34.877 -20.203 -20.613  0.00  0.00    +0.172 C 
ATOM      5  C   UNL     1      37.088 -19.280 -20.929  0.00  0.00    +0.040 C 
ATOM      6  C   UNL     1      36.231 -20.166 -20.277  0.00  0.00    +0.168 C 
ENDROOT
BRANCH   1   9
ATOM      7  O   UNL     1      34.700 -18.017 -24.442  0.00  0.00    -0.270 OA
ATOM      8  N   UNL     1      34.296 -16.289 -22.920  0.00  0.00    -0.276 N 
ATOM      9  C   UNL     1      34.722 -17.580 -23.284  0.00  0.00    +0.249 C 
BRANCH   8  10
ATOM     10  C   UNL     1      33.782 -15.338 -23.896  0.00  0.00    +0.094 C 
ATOM     11  C   UNL     1      34.103 -13.910 -23.502  0.00  0.00    +0.023 C 
ENDBRANCH   8  10
BRANCH   8  12
ATOM     12  C   UNL     1      34.341 -15.816 -21.539  0.00  0.00    +0.094 C 
ATOM     13  C   UNL     1      32.974 -15.871 -20.889  0.00  0.00    +0.023 C 
ENDBRANCH   8  12
ENDBRANCH   1   9
BRANCH   4  14
ATOM     14  O   UNL     1      34.030 -21.063 -19.982  0.00  0.00    -0.468 OA
ATOM     15  C   UNL     1      32.678 -20.638 -19.816  0.00  0.00    +0.253 C 
ENDBRANCH   4  14
BRANCH   6  16
ATOM     16  O   UNL     1      36.726 -20.992 -19.313  0.00  0.00    -0.503 OA
ATOM     17  H   UNL     1      37.602 -21.318 -19.380  0.00  0.00    +0.292 HD
ENDBRANCH   6  16
TORSDOF 5
ENDMDL
MODEL 9
REMARK VINA RESULT:      -6.7      2.851      6.548
REMARK  Name = 9363
REMARK  5 active torsions:
REMARK  status: ('A' for Active; 'I' for Inactive)
REMARK    1  A    between atoms: C_1  and  C_9
REMARK    2  A    between atoms: C_4  and  O_14
REMARK    3  A    between atoms: C_6  and  O_16
REMARK    4  A    between atoms: N_8  and  C_10
REMARK    5  A    between atoms: N_8  and  C_12
REMARK                            x       y       z     vdW  Elec       q    Type
REMARK                         _______ _______ _______ _____ _____    ______ ____
ROOT
ATOM      1  C   UNL     1      33.990 -15.333 -21.576  0.00  0.00    +0.057 C 
ATOM      2  C   UNL     1      34.067 -14.740 -22.837  0.00  0.00    +0.045 C 
ATOM      3  C   UNL     1      33.076 -14.857 -20.637  0.00  0.00    +0.008 C 
ATOM      4  C   UNL     1      33.230 -13.671 -23.156  0.00  0.00    +0.172 C 
ATOM      5  C   UNL     1      32.241 -13.787 -20.955  0.00  0.00    +0.040 C 
ATOM      6  C   UNL     1      32.317 -13.195 -22.215  0.00  0.00    +0.168 C 
ENDROOT
BRANCH   1   9
ATOM      7  O   UNL     1      35.297 -16.493 -20.084  0.00  0.00    -0.270 OA
ATOM      8  N   UNL     1      35.174 -17.391 -22.239  0.00  0.00    -0.276 N 
ATOM      9  C   UNL     1      34.862 -16.448 -21.243  0.00  0.00    +0.249 C 
BRANCH   8  10
ATOM     10  C   UNL     1      36.053 -18.525 -21.987  0.00  0.00    +0.094 C 
ATOM     11  C   UNL     1      35.418 -19.518 -21.034  0.00  0.00    +0.023 C 
ENDBRANCH   8  10
BRANCH   8  12
ATOM     12  C   UNL     1      34.637 -17.296 -23.595  0.00  0.00    +0.094 C 
ATOM     13  C   UNL     1      34.706 -18.629 -24.312  0.00  0.00    +0.023 C 
ENDBRANCH   8  12
ENDBRANCH   1   9
BRANCH   4  14
ATOM     14  O   UNL     1      33.315 -13.098 -24.389  0.00  0.00    -0.468 OA
ATOM     15  C   UNL     1      33.109 -13.950 -25.516  0.00  0.00    +0.253 C 
ENDBRANCH   4  14
BRANCH   6  16
ATOM     16  O   UNL     1      31.495 -12.150 -22.516  0.00  0.00    -0.503 OA
ATOM     17  H   UNL     1      31.775 -11.493 -23.123  0.00  0.00    +0.292 HD
ENDBRANCH   6  16
TORSDOF 5
ENDMDL
