MODEL 1
REMARK VINA RESULT:      -7.3      0.000      0.000
REMARK  Name = 76968809
REMARK  9 active torsions:
REMARK  status: ('A' for Active; 'I' for Inactive)
REMARK    1  A    between atoms: P_1  and  N_16
REMARK    2  A    between atoms: C_5  and  S_9
REMARK    3  A    between atoms: S_9  and  C_10
REMARK    4  A    between atoms: C_10  and  C_11
REMARK    5  A    between atoms: C_11  and  S_12
REMARK    6  A    between atoms: N_16  and  C_17
REMARK    7  A    between atoms: N_16  and  C_20
REMARK    8  A    between atoms: C_17  and  C_19
REMARK    9  A    between atoms: C_20  and  C_22
REMARK                            x       y       z     vdW  Elec       q    Type
REMARK                         _______ _______ _______ _____ _____    ______ ____
ROOT
ATOM      1  P   UNL     1      35.717 -24.739 -15.064  0.00  0.00    +0.349 P 
ATOM      2  O   UNL     1      34.928 -25.040 -13.668  0.00  0.00    -0.292 OA
ATOM      3  O   UNL     1      36.446 -25.979 -15.520  0.00  0.00    -0.254 OA
ATOM      4  N   UNL     1      34.535 -24.209 -16.104  0.00  0.00    -0.214 NA
ATOM      5  C   UNL     1      33.505 -23.310 -15.588  0.00  0.00    +0.113 C 
ATOM      6  C   UNL     1      32.894 -23.877 -14.297  0.00  0.00    +0.060 C 
ATOM      7  C   UNL     1      33.955 -24.103 -13.220  0.00  0.00    +0.154 C 
ATOM      8  H   UNL     1      34.060 -25.035 -16.467  0.00  0.00    +0.134 HD
ENDROOT
BRANCH   5   9
ATOM      9  S   UNL     1      32.189 -23.063 -16.823  0.00  0.00    -0.123 S 
BRANCH   9  10
ATOM     10  C   UNL     1      30.783 -22.992 -15.690  0.00  0.00    +0.085 C 
BRANCH  10  11
ATOM     11  C   UNL     1      29.779 -24.080 -16.022  0.00  0.00    +0.170 C 
BRANCH  11  12
ATOM     12  S   UNL     1      28.232 -23.383 -16.517  0.00  0.00    +0.023 S 
ATOM     13  O   UNL     1      28.811 -21.968 -17.085  0.00  0.00    -0.069 OA
ATOM     14  O   UNL     1      27.436 -23.120 -15.333  0.00  0.00    -0.069 OA
ATOM     15  O   UNL     1      27.708 -24.154 -17.629  0.00  0.00    -0.069 OA
ENDBRANCH  11  12
ENDBRANCH  10  11
ENDBRANCH   9  10
ENDBRANCH   5   9
BRANCH   1  16
ATOM     16  N   UNL     1      36.708 -23.441 -14.760  0.00  0.00    -0.196 NA
BRANCH  16  17
ATOM     17  C   UNL     1      37.621 -23.051 -15.832  0.00  0.00    +0.099 C 
BRANCH  17  19
ATOM     18 CL   UNL     1      36.549 -21.858 -18.019  0.00  0.00    -0.112 Cl
ATOM     19  C   UNL     1      37.227 -21.689 -16.382  0.00  0.00    +0.113 C 
ENDBRANCH  17  19
ENDBRANCH  16  17
BRANCH  16  20
ATOM     20  C   UNL     1      37.415 -23.444 -13.482  0.00  0.00    +0.099 C 
BRANCH  20  22
ATOM     21 CL   UNL     1      38.036 -25.836 -12.364  0.00  0.00    -0.112 Cl
ATOM     22  C   UNL     1      38.484 -24.526 -13.482  0.00  0.00    +0.113 C 
ENDBRANCH  20  22
ENDBRANCH  16  20
ENDBRANCH   1  16
TORSDOF 9
ENDMDL
MODEL 2
REMARK VINA RESULT:      -6.8      7.966      9.942
REMARK  Name = 76968809
REMARK  9 active torsions:
REMARK  status: ('A' for Active; 'I' for Inactive)
REMARK    1  A    between atoms: P_1  and  N_16
REMARK    2  A    between atoms: C_5  and  S_9
REMARK    3  A    between atoms: S_9  and  C_10
REMARK    4  A    between atoms: C_10  and  C_11
REMARK    5  A    between atoms: C_11  and  S_12
REMARK    6  A    between atoms: N_16  and  C_17
REMARK    7  A    between atoms: N_16  and  C_20
REMARK    8  A    between atoms: C_17  and  C_19
REMARK    9  A    between atoms: C_20  and  C_22
REMARK                            x       y       z     vdW  Elec       q    Type
REMARK                         _______ _______ _______ _____ _____    ______ ____
ROOT
ATOM      1  P   UNL     1      34.390 -16.005 -21.118  0.00  0.00    +0.349 P 
ATOM      2  O   UNL     1      32.878 -16.387 -20.639  0.00  0.00    -0.292 OA
ATOM      3  O   UNL     1      34.911 -14.849 -20.299  0.00  0.00    -0.254 OA
ATOM      4  N   UNL     1      35.250 -17.416 -20.950  0.00  0.00    -0.214 NA
ATOM      5  C   UNL     1      34.610 -18.672 -21.335  0.00  0.00    +0.113 C 
ATOM      6  C   UNL     1      33.220 -18.788 -20.689  0.00  0.00    +0.060 C 
ATOM      7  C   UNL     1      32.316 -17.619 -21.076  0.00  0.00    +0.154 C 
ATOM      8  H   UNL     1      35.505 -17.498 -19.966  0.00  0.00    +0.134 HD
ENDROOT
BRANCH   5   9
ATOM      9  S   UNL     1      35.631 -20.095 -20.835  0.00  0.00    -0.123 S 
BRANCH   9  10
ATOM     10  C   UNL     1      34.351 -21.044 -19.985  0.00  0.00    +0.085 C 
BRANCH  10  11
ATOM     11  C   UNL     1      34.962 -21.894 -18.886  0.00  0.00    +0.170 C 
BRANCH  11  12
ATOM     12  S   UNL     1      33.770 -23.014 -18.217  0.00  0.00    +0.023 S 
ATOM     13  O   UNL     1      33.874 -24.153 -19.380  0.00  0.00    -0.069 OA
ATOM     14  O   UNL     1      32.458 -22.398 -18.284  0.00  0.00    -0.069 OA
ATOM     15  O   UNL     1      34.290 -23.563 -16.978  0.00  0.00    -0.069 OA
ENDBRANCH  11  12
ENDBRANCH  10  11
ENDBRANCH   9  10
ENDBRANCH   5   9
BRANCH   1  16
ATOM     16  N   UNL     1      34.290 -15.694 -22.746  0.00  0.00    -0.196 NA
BRANCH  16  17
ATOM     17  C   UNL     1      35.267 -16.364 -23.601  0.00  0.00    +0.099 C 
BRANCH  17  19
ATOM     18 CL   UNL     1      34.323 -18.518 -24.952  0.00  0.00    -0.112 Cl
ATOM     19  C   UNL     1      34.619 -16.763 -24.918  0.00  0.00    +0.113 C 
ENDBRANCH  17  19
ENDBRANCH  16  17
BRANCH  16  20
ATOM     20  C   UNL     1      34.167 -14.292 -23.138  0.00  0.00    +0.099 C 
BRANCH  20  22
ATOM     21 CL   UNL     1      32.168 -13.027 -21.809  0.00  0.00    -0.112 Cl
ATOM     22  C   UNL     1      32.699 -13.913 -23.259  0.00  0.00    +0.113 C 
ENDBRANCH  20  22
ENDBRANCH  16  20
ENDBRANCH   1  16
TORSDOF 9
ENDMDL
MODEL 3
REMARK VINA RESULT:      -6.8      2.420      3.214
REMARK  Name = 76968809
REMARK  9 active torsions:
REMARK  status: ('A' for Active; 'I' for Inactive)
REMARK    1  A    between atoms: P_1  and  N_16
REMARK    2  A    between atoms: C_5  and  S_9
REMARK    3  A    between atoms: S_9  and  C_10
REMARK    4  A    between atoms: C_10  and  C_11
REMARK    5  A    between atoms: C_11  and  S_12
REMARK    6  A    between atoms: N_16  and  C_17
REMARK    7  A    between atoms: N_16  and  C_20
REMARK    8  A    between atoms: C_17  and  C_19
REMARK    9  A    between atoms: C_20  and  C_22
REMARK                            x       y       z     vdW  Elec       q    Type
REMARK                         _______ _______ _______ _____ _____    ______ ____
ROOT
ATOM      1  P   UNL     1      36.411 -23.443 -13.028  0.00  0.00    +0.349 P 
ATOM      2  O   UNL     1      36.449 -22.490 -14.352  0.00  0.00    -0.292 OA
ATOM      3  O   UNL     1      36.901 -22.672 -11.826  0.00  0.00    -0.254 OA
ATOM      4  N   UNL     1      34.833 -23.953 -12.927  0.00  0.00    -0.214 NA
ATOM      5  C   UNL     1      34.138 -24.314 -14.160  0.00  0.00    +0.113 C 
ATOM      6  C   UNL     1      34.296 -23.204 -15.212  0.00  0.00    +0.060 C 
ATOM      7  C   UNL     1      35.765 -22.923 -15.523  0.00  0.00    +0.154 C 
ATOM      8  H   UNL     1      34.300 -23.201 -12.490  0.00  0.00    +0.134 HD
ENDROOT
BRANCH   5   9
ATOM      9  S   UNL     1      32.367 -24.598 -13.841  0.00  0.00    -0.123 S 
BRANCH   9  10
ATOM     10  C   UNL     1      31.698 -23.466 -15.080  0.00  0.00    +0.085 C 
BRANCH  10  11
ATOM     11  C   UNL     1      30.389 -22.866 -14.599  0.00  0.00    +0.170 C 
BRANCH  11  12
ATOM     12  S   UNL     1      29.216 -22.770 -15.917  0.00  0.00    +0.023 S 
ATOM     13  O   UNL     1      28.770 -24.339 -15.919  0.00  0.00    -0.069 OA
ATOM     14  O   UNL     1      29.921 -22.485 -17.153  0.00  0.00    -0.069 OA
ATOM     15  O   UNL     1      28.090 -21.965 -15.482  0.00  0.00    -0.069 OA
ENDBRANCH  11  12
ENDBRANCH  10  11
ENDBRANCH   9  10
ENDBRANCH   5   9
BRANCH   1  16
ATOM     16  N   UNL     1      37.325 -24.779 -13.398  0.00  0.00    -0.196 NA
BRANCH  16  17
ATOM     17  C   UNL     1      36.875 -26.054 -12.845  0.00  0.00    +0.099 C 
BRANCH  17  19
ATOM     18 CL   UNL     1      36.521 -26.616 -15.475  0.00  0.00    -0.112 Cl
ATOM     19  C   UNL     1      37.064 -27.161 -13.870  0.00  0.00    +0.113 C 
ENDBRANCH  17  19
ENDBRANCH  16  17
BRANCH  16  20
ATOM     20  C   UNL     1      38.771 -24.648 -13.229  0.00  0.00    +0.099 C 
BRANCH  20  22
ATOM     21 CL   UNL     1      40.573 -26.158 -14.584  0.00  0.00    -0.112 Cl
ATOM     22  C   UNL     1      39.464 -24.765 -14.578  0.00  0.00    +0.113 C 
ENDBRANCH  20  22
ENDBRANCH  16  20
ENDBRANCH   1  16
TORSDOF 9
ENDMDL
MODEL 4
REMARK VINA RESULT:      -6.7      7.720      9.757
REMARK  Name = 76968809
REMARK  9 active torsions:
REMARK  status: ('A' for Active; 'I' for Inactive)
REMARK    1  A    between atoms: P_1  and  N_16
REMARK    2  A    between atoms: C_5  and  S_9
REMARK    3  A    between atoms: S_9  and  C_10
REMARK    4  A    between atoms: C_10  and  C_11
REMARK    5  A    between atoms: C_11  and  S_12
REMARK    6  A    between atoms: N_16  and  C_17
REMARK    7  A    between atoms: N_16  and  C_20
REMARK    8  A    between atoms: C_17  and  C_19
REMARK    9  A    between atoms: C_20  and  C_22
REMARK                            x       y       z     vdW  Elec       q    Type
REMARK                         _______ _______ _______ _____ _____    ______ ____
ROOT
ATOM      1  P   UNL     1      34.930 -17.999 -23.274  0.00  0.00    +0.349 P 
ATOM      2  O   UNL     1      36.462 -18.409 -22.893  0.00  0.00    -0.292 OA
ATOM      3  O   UNL     1      34.717 -18.134 -24.762  0.00  0.00    -0.254 OA
ATOM      4  N   UNL     1      33.987 -19.002 -22.345  0.00  0.00    -0.214 NA
ATOM      5  C   UNL     1      34.398 -19.266 -20.968  0.00  0.00    +0.113 C 
ATOM      6  C   UNL     1      35.874 -19.690 -20.918  0.00  0.00    +0.060 C 
ATOM      7  C   UNL     1      36.789 -18.627 -21.525  0.00  0.00    +0.154 C 
ATOM      8  H   UNL     1      33.942 -19.901 -22.823  0.00  0.00    +0.134 HD
ENDROOT
BRANCH   5   9
ATOM      9  S   UNL     1      33.367 -20.574 -20.229  0.00  0.00    -0.123 S 
BRANCH   9  10
ATOM     10  C   UNL     1      34.685 -21.744 -19.830  0.00  0.00    +0.085 C 
BRANCH  10  11
ATOM     11  C   UNL     1      34.755 -21.975 -18.332  0.00  0.00    +0.170 C 
BRANCH  11  12
ATOM     12  S   UNL     1      33.627 -23.240 -17.834  0.00  0.00    +0.023 S 
ATOM     13  O   UNL     1      33.786 -24.194 -19.147  0.00  0.00    -0.069 OA
ATOM     14  O   UNL     1      32.284 -22.691 -17.817  0.00  0.00    -0.069 OA
ATOM     15  O   UNL     1      34.180 -23.932 -16.684  0.00  0.00    -0.069 OA
ENDBRANCH  11  12
ENDBRANCH  10  11
ENDBRANCH   9  10
ENDBRANCH   5   9
BRANCH   1  16
ATOM     16  N   UNL     1      34.710 -16.458 -22.693  0.00  0.00    -0.196 NA
BRANCH  16  17
ATOM     17  C   UNL     1      33.546 -16.242 -21.836  0.00  0.00    +0.099 C 
BRANCH  17  19
ATOM     18 CL   UNL     1      32.779 -13.964 -20.579  0.00  0.00    -0.112 Cl
ATOM     19  C   UNL     1      33.917 -15.330 -20.677  0.00  0.00    +0.113 C 
ENDBRANCH  17  19
ENDBRANCH  16  17
BRANCH  16  20
ATOM     20  C   UNL     1      34.819 -15.372 -23.665  0.00  0.00    +0.099 C 
BRANCH  20  22
ATOM     21 CL   UNL     1      33.206 -15.322 -25.845  0.00  0.00    -0.112 Cl
ATOM     22  C   UNL     1      33.434 -14.942 -24.121  0.00  0.00    +0.113 C 
ENDBRANCH  20  22
ENDBRANCH  16  20
ENDBRANCH   1  16
TORSDOF 9
ENDMDL
MODEL 5
REMARK VINA RESULT:      -6.6     13.689     15.758
REMARK  Name = 76968809
REMARK  9 active torsions:
REMARK  status: ('A' for Active; 'I' for Inactive)
REMARK    1  A    between atoms: P_1  and  N_16
REMARK    2  A    between atoms: C_5  and  S_9
REMARK    3  A    between atoms: S_9  and  C_10
REMARK    4  A    between atoms: C_10  and  C_11
REMARK    5  A    between atoms: C_11  and  S_12
REMARK    6  A    between atoms: N_16  and  C_17
REMARK    7  A    between atoms: N_16  and  C_20
REMARK    8  A    between atoms: C_17  and  C_19
REMARK    9  A    between atoms: C_20  and  C_22
REMARK                            x       y       z     vdW  Elec       q    Type
REMARK                         _______ _______ _______ _____ _____    ______ ____
ROOT
ATOM      1  P   UNL     1      32.171  -8.990 -23.085  0.00  0.00    +0.349 P 
ATOM      2  O   UNL     1      33.343  -8.194 -23.893  0.00  0.00    -0.292 OA
ATOM      3  O   UNL     1      30.822  -8.406 -23.428  0.00  0.00    -0.254 OA
ATOM      4  N   UNL     1      32.369 -10.580 -23.523  0.00  0.00    -0.214 NA
ATOM      5  C   UNL     1      33.727 -11.107 -23.635  0.00  0.00    +0.113 C 
ATOM      6  C   UNL     1      34.594 -10.181 -24.502  0.00  0.00    +0.060 C 
ATOM      7  C   UNL     1      34.647  -8.762 -23.937  0.00  0.00    +0.154 C 
ATOM      8  H   UNL     1      31.923 -10.700 -24.432  0.00  0.00    +0.134 HD
ENDROOT
BRANCH   5   9
ATOM      9  S   UNL     1      33.710 -12.777 -24.364  0.00  0.00    -0.123 S 
BRANCH   9  10
ATOM     10  C   UNL     1      33.421 -13.716 -22.847  0.00  0.00    +0.085 C 
BRANCH  10  11
ATOM     11  C   UNL     1      34.413 -14.859 -22.734  0.00  0.00    +0.170 C 
BRANCH  11  12
ATOM     12  S   UNL     1      34.101 -15.825 -21.288  0.00  0.00    +0.023 S 
ATOM     13  O   UNL     1      32.549 -15.375 -21.063  0.00  0.00    -0.069 OA
ATOM     14  O   UNL     1      34.900 -15.305 -20.195  0.00  0.00    -0.069 OA
ATOM     15  O   UNL     1      34.131 -17.230 -21.650  0.00  0.00    -0.069 OA
ENDBRANCH  11  12
ENDBRANCH  10  11
ENDBRANCH   9  10
ENDBRANCH   5   9
BRANCH   1  16
ATOM     16  N   UNL     1      32.568  -8.882 -21.476  0.00  0.00    -0.196 NA
BRANCH  16  17
ATOM     17  C   UNL     1      31.555  -9.325 -20.520  0.00  0.00    +0.099 C 
BRANCH  17  19
ATOM     18 CL   UNL     1      31.796 -11.967 -19.957  0.00  0.00    -0.112 Cl
ATOM     19  C   UNL     1      32.172 -10.284 -19.515  0.00  0.00    +0.113 C 
ENDBRANCH  17  19
ENDBRANCH  16  17
BRANCH  16  20
ATOM     20  C   UNL     1      33.152  -7.618 -21.030  0.00  0.00    +0.099 C 
BRANCH  20  22
ATOM     21 CL   UNL     1      31.838  -5.452 -22.002  0.00  0.00    -0.112 Cl
ATOM     22  C   UNL     1      32.048  -6.630 -20.684  0.00  0.00    +0.113 C 
ENDBRANCH  20  22
ENDBRANCH  16  20
ENDBRANCH   1  16
TORSDOF 9
ENDMDL
MODEL 6
REMARK VINA RESULT:      -6.6      1.631      3.198
REMARK  Name = 76968809
REMARK  9 active torsions:
REMARK  status: ('A' for Active; 'I' for Inactive)
REMARK    1  A    between atoms: P_1  and  N_16
REMARK    2  A    between atoms: C_5  and  S_9
REMARK    3  A    between atoms: S_9  and  C_10
REMARK    4  A    between atoms: C_10  and  C_11
REMARK    5  A    between atoms: C_11  and  S_12
REMARK    6  A    between atoms: N_16  and  C_17
REMARK    7  A    between atoms: N_16  and  C_20
REMARK    8  A    between atoms: C_17  and  C_19
REMARK    9  A    between atoms: C_20  and  C_22
REMARK                            x       y       z     vdW  Elec       q    Type
REMARK                         _______ _______ _______ _____ _____    ______ ____
ROOT
ATOM      1  P   UNL     1      36.116 -25.567 -14.920  0.00  0.00    +0.349 P 
ATOM      2  O   UNL     1      36.626 -25.807 -13.389  0.00  0.00    -0.292 OA
ATOM      3  O   UNL     1      36.215 -26.854 -15.702  0.00  0.00    -0.254 OA
ATOM      4  N   UNL     1      34.574 -24.971 -14.757  0.00  0.00    -0.214 NA
ATOM      5  C   UNL     1      34.309 -24.006 -13.692  0.00  0.00    +0.113 C 
ATOM      6  C   UNL     1      34.849 -24.524 -12.350  0.00  0.00    +0.060 C 
ATOM      7  C   UNL     1      36.349 -24.808 -12.414  0.00  0.00    +0.154 C 
ATOM      8  H   UNL     1      33.958 -25.769 -14.600  0.00  0.00    +0.134 HD
ENDROOT
BRANCH   5   9
ATOM      9  S   UNL     1      32.522 -23.687 -13.544  0.00  0.00    -0.123 S 
BRANCH   9  10
ATOM     10  C   UNL     1      32.107 -23.729 -15.301  0.00  0.00    +0.085 C 
BRANCH  10  11
ATOM     11  C   UNL     1      30.714 -24.296 -15.504  0.00  0.00    +0.170 C 
BRANCH  11  12
ATOM     12  S   UNL     1      29.596 -23.043 -16.054  0.00  0.00    +0.023 S 
ATOM     13  O   UNL     1      28.425 -24.033 -16.610  0.00  0.00    -0.069 OA
ATOM     14  O   UNL     1      30.190 -22.345 -17.178  0.00  0.00    -0.069 OA
ATOM     15  O   UNL     1      29.091 -22.328 -14.896  0.00  0.00    -0.069 OA
ENDBRANCH  11  12
ENDBRANCH  10  11
ENDBRANCH   9  10
ENDBRANCH   5   9
BRANCH   1  16
ATOM     16  N   UNL     1      37.047 -24.331 -15.524  0.00  0.00    -0.196 NA
BRANCH  16  17
ATOM     17  C   UNL     1      38.328 -24.093 -14.862  0.00  0.00    +0.099 C 
BRANCH  17  19
ATOM     18 CL   UNL     1      40.524 -25.391 -13.941  0.00  0.00    -0.112 Cl
ATOM     19  C   UNL     1      39.317 -25.187 -15.233  0.00  0.00    +0.113 C 
ENDBRANCH  17  19
ENDBRANCH  16  17
BRANCH  16  20
ATOM     20  C   UNL     1      36.369 -23.060 -15.766  0.00  0.00    +0.099 C 
BRANCH  20  22
ATOM     21 CL   UNL     1      36.661 -21.674 -18.079  0.00  0.00    -0.112 Cl
ATOM     22  C   UNL     1      37.308 -22.097 -16.477  0.00  0.00    +0.113 C 
ENDBRANCH  20  22
ENDBRANCH  16  20
ENDBRANCH   1  16
TORSDOF 9
ENDMDL
MODEL 7
REMARK VINA RESULT:      -6.5      2.390      3.097
REMARK  Name = 76968809
REMARK  9 active torsions:
REMARK  status: ('A' for Active; 'I' for Inactive)
REMARK    1  A    between atoms: P_1  and  N_16
REMARK    2  A    between atoms: C_5  and  S_9
REMARK    3  A    between atoms: S_9  and  C_10
REMARK    4  A    between atoms: C_10  and  C_11
REMARK    5  A    between atoms: C_11  and  S_12
REMARK    6  A    between atoms: N_16  and  C_17
REMARK    7  A    between atoms: N_16  and  C_20
REMARK    8  A    between atoms: C_17  and  C_19
REMARK    9  A    between atoms: C_20  and  C_22
REMARK                            x       y       z     vdW  Elec       q    Type
REMARK                         _______ _______ _______ _____ _____    ______ ____
ROOT
ATOM      1  P   UNL     1      36.634 -23.566 -14.430  0.00  0.00    +0.349 P 
ATOM      2  O   UNL     1      36.383 -24.684 -15.592  0.00  0.00    -0.292 OA
ATOM      3  O   UNL     1      37.568 -22.496 -14.940  0.00  0.00    -0.254 OA
ATOM      4  N   UNL     1      35.113 -23.027 -14.036  0.00  0.00    -0.214 NA
ATOM      5  C   UNL     1      34.028 -24.003 -13.950  0.00  0.00    +0.113 C 
ATOM      6  C   UNL     1      33.996 -24.883 -15.210  0.00  0.00    +0.060 C 
ATOM      7  C   UNL     1      35.320 -25.615 -15.424  0.00  0.00    +0.154 C 
ATOM      8  H   UNL     1      34.844 -22.340 -14.740  0.00  0.00    +0.134 HD
ENDROOT
BRANCH   5   9
ATOM      9  S   UNL     1      32.423 -23.165 -13.756  0.00  0.00    -0.123 S 
BRANCH   9  10
ATOM     10  C   UNL     1      31.641 -23.751 -15.275  0.00  0.00    +0.085 C 
BRANCH  10  11
ATOM     11  C   UNL     1      30.147 -23.921 -15.073  0.00  0.00    +0.170 C 
BRANCH  11  12
ATOM     12  S   UNL     1      29.238 -23.054 -16.315  0.00  0.00    +0.023 S 
ATOM     13  O   UNL     1      28.485 -21.997 -15.327  0.00  0.00    -0.069 OA
ATOM     14  O   UNL     1      28.247 -23.949 -16.882  0.00  0.00    -0.069 OA
ATOM     15  O   UNL     1      30.172 -22.325 -17.153  0.00  0.00    -0.069 OA
ENDBRANCH  11  12
ENDBRANCH  10  11
ENDBRANCH   9  10
ENDBRANCH   5   9
BRANCH   1  16
ATOM     16  N   UNL     1      37.206 -24.397 -13.111  0.00  0.00    -0.196 NA
BRANCH  16  17
ATOM     17  C   UNL     1      37.886 -23.608 -12.086  0.00  0.00    +0.099 C 
BRANCH  17  19
ATOM     18 CL   UNL     1      35.688 -24.346 -10.679  0.00  0.00    -0.112 Cl
ATOM     19  C   UNL     1      36.876 -23.082 -11.079  0.00  0.00    +0.113 C 
ENDBRANCH  17  19
ENDBRANCH  16  17
BRANCH  16  20
ATOM     20  C   UNL     1      37.966 -25.615 -13.385  0.00  0.00    +0.099 C 
BRANCH  20  22
ATOM     21 CL   UNL     1      39.981 -25.264 -15.167  0.00  0.00    -0.112 Cl
ATOM     22  C   UNL     1      39.451 -25.294 -13.468  0.00  0.00    +0.113 C 
ENDBRANCH  20  22
ENDBRANCH  16  20
ENDBRANCH   1  16
TORSDOF 9
ENDMDL
MODEL 8
REMARK VINA RESULT:      -6.3      2.579      3.521
REMARK  Name = 76968809
REMARK  9 active torsions:
REMARK  status: ('A' for Active; 'I' for Inactive)
REMARK    1  A    between atoms: P_1  and  N_16
REMARK    2  A    between atoms: C_5  and  S_9
REMARK    3  A    between atoms: S_9  and  C_10
REMARK    4  A    between atoms: C_10  and  C_11
REMARK    5  A    between atoms: C_11  and  S_12
REMARK    6  A    between atoms: N_16  and  C_17
REMARK    7  A    between atoms: N_16  and  C_20
REMARK    8  A    between atoms: C_17  and  C_19
REMARK    9  A    between atoms: C_20  and  C_22
REMARK                            x       y       z     vdW  Elec       q    Type
REMARK                         _______ _______ _______ _____ _____    ______ ____
ROOT
ATOM      1  P   UNL     1      33.828 -23.568 -17.728  0.00  0.00    +0.349 P 
ATOM      2  O   UNL     1      34.855 -24.273 -16.675  0.00  0.00    -0.292 OA
ATOM      3  O   UNL     1      33.633 -24.460 -18.931  0.00  0.00    -0.254 OA
ATOM      4  N   UNL     1      32.450 -23.288 -16.844  0.00  0.00    -0.214 NA
ATOM      5  C   UNL     1      32.590 -22.818 -15.467  0.00  0.00    +0.113 C 
ATOM      6  C   UNL     1      33.576 -23.707 -14.693  0.00  0.00    +0.060 C 
ATOM      7  C   UNL     1      34.951 -23.741 -15.358  0.00  0.00    +0.154 C 
ATOM      8  H   UNL     1      31.929 -24.164 -16.811  0.00  0.00    +0.134 HD
ENDROOT
BRANCH   5   9
ATOM      9  S   UNL     1      30.978 -22.820 -14.620  0.00  0.00    -0.123 S 
BRANCH   9  10
ATOM     10  C   UNL     1      30.264 -24.269 -15.430  0.00  0.00    +0.085 C 
BRANCH  10  11
ATOM     11  C   UNL     1      28.752 -24.157 -15.481  0.00  0.00    +0.170 C 
BRANCH  11  12
ATOM     12  S   UNL     1      28.250 -22.866 -16.578  0.00  0.00    +0.023 S 
ATOM     13  O   UNL     1      27.463 -23.801 -17.658  0.00  0.00    -0.069 OA
ATOM     14  O   UNL     1      29.428 -22.308 -17.215  0.00  0.00    -0.069 OA
ATOM     15  O   UNL     1      27.284 -22.025 -15.897  0.00  0.00    -0.069 OA
ENDBRANCH  11  12
ENDBRANCH  10  11
ENDBRANCH   9  10
ENDBRANCH   5   9
BRANCH   1  16
ATOM     16  N   UNL     1      34.482 -22.083 -18.082  0.00  0.00    -0.196 NA
BRANCH  16  17
ATOM     17  C   UNL     1      33.768 -21.270 -19.064  0.00  0.00    +0.099 C 
BRANCH  17  19
ATOM     18 CL   UNL     1      34.153 -19.379 -20.970  0.00  0.00    -0.112 Cl
ATOM     19  C   UNL     1      34.701 -20.889 -20.203  0.00  0.00    +0.113 C 
ENDBRANCH  17  19
ENDBRANCH  16  17
BRANCH  16  20
ATOM     20  C   UNL     1      35.917 -22.050 -18.361  0.00  0.00    +0.099 C 
BRANCH  20  22
ATOM     21 CL   UNL     1      37.792 -22.455 -16.443  0.00  0.00    -0.112 Cl
ATOM     22  C   UNL     1      36.650 -21.342 -17.233  0.00  0.00    +0.113 C 
ENDBRANCH  20  22
ENDBRANCH  16  20
ENDBRANCH   1  16
TORSDOF 9
ENDMDL
MODEL 9
REMARK VINA RESULT:      -6.2      7.488      9.387
REMARK  Name = 76968809
REMARK  9 active torsions:
REMARK  status: ('A' for Active; 'I' for Inactive)
REMARK    1  A    between atoms: P_1  and  N_16
REMARK    2  A    between atoms: C_5  and  S_9
REMARK    3  A    between atoms: S_9  and  C_10
REMARK    4  A    between atoms: C_10  and  C_11
REMARK    5  A    between atoms: C_11  and  S_12
REMARK    6  A    between atoms: N_16  and  C_17
REMARK    7  A    between atoms: N_16  and  C_20
REMARK    8  A    between atoms: C_17  and  C_19
REMARK    9  A    between atoms: C_20  and  C_22
REMARK                            x       y       z     vdW  Elec       q    Type
REMARK                         _______ _______ _______ _____ _____    ______ ____
ROOT
ATOM      1  P   UNL     1      34.680 -18.357 -23.202  0.00  0.00    +0.349 P 
ATOM      2  O   UNL     1      36.248 -18.465 -22.764  0.00  0.00    -0.292 OA
ATOM      3  O   UNL     1      34.542 -18.608 -24.684  0.00  0.00    -0.254 OA
ATOM      4  N   UNL     1      33.901 -19.461 -22.236  0.00  0.00    -0.214 NA
ATOM      5  C   UNL     1      34.308 -19.573 -20.837  0.00  0.00    +0.113 C 
ATOM      6  C   UNL     1      35.834 -19.722 -20.731  0.00  0.00    +0.060 C 
ATOM      7  C   UNL     1      36.565 -18.547 -21.379  0.00  0.00    +0.154 C 
ATOM      8  H   UNL     1      34.031 -20.378 -22.662  0.00  0.00    +0.134 HD
ENDROOT
BRANCH   5   9
ATOM      9  S   UNL     1      33.503 -21.002 -20.045  0.00  0.00    -0.123 S 
BRANCH   9  10
ATOM     10  C   UNL     1      34.993 -21.863 -19.495  0.00  0.00    +0.085 C 
BRANCH  10  11
ATOM     11  C   UNL     1      34.918 -22.156 -18.008  0.00  0.00    +0.170 C 
BRANCH  11  12
ATOM     12  S   UNL     1      33.720 -23.410 -17.670  0.00  0.00    +0.023 S 
ATOM     13  O   UNL     1      34.505 -24.125 -16.432  0.00  0.00    -0.069 OA
ATOM     14  O   UNL     1      33.677 -24.332 -18.789  0.00  0.00    -0.069 OA
ATOM     15  O   UNL     1      32.517 -22.780 -17.158  0.00  0.00    -0.069 OA
ENDBRANCH  11  12
ENDBRANCH  10  11
ENDBRANCH   9  10
ENDBRANCH   5   9
BRANCH   1  16
ATOM     16  N   UNL     1      34.172 -16.852 -22.718  0.00  0.00    -0.196 NA
BRANCH  16  17
ATOM     17  C   UNL     1      34.875 -15.707 -23.294  0.00  0.00    +0.099 C 
BRANCH  17  19
ATOM     18 CL   UNL     1      33.896 -13.261 -23.936  0.00  0.00    -0.112 Cl
ATOM     19  C   UNL     1      33.980 -15.001 -24.301  0.00  0.00    +0.113 C 
ENDBRANCH  17  19
ENDBRANCH  16  17
BRANCH  16  20
ATOM     20  C   UNL     1      33.995 -16.652 -21.281  0.00  0.00    +0.099 C 
BRANCH  20  22
ATOM     21 CL   UNL     1      32.913 -14.276 -20.544  0.00  0.00    -0.112 Cl
ATOM     22  C   UNL     1      34.373 -15.228 -20.903  0.00  0.00    +0.113 C 
ENDBRANCH  20  22
ENDBRANCH  16  20
ENDBRANCH   1  16
TORSDOF 9
ENDMDL
