MODEL 1
REMARK VINA RESULT:      -8.4      0.000      0.000
REMARK  Name = 3161908
REMARK  6 active torsions:
REMARK  status: ('A' for Active; 'I' for Inactive)
REMARK    1  A    between atoms: C_1  and  C_13
REMARK    2  A    between atoms: C_2  and  S_7
REMARK    3  A    between atoms: S_7  and  N_10
REMARK    4  A    between atoms: C_13  and  C_14
REMARK    5  A    between atoms: C_14  and  C_16
REMARK    6  A    between atoms: C_16  and  O_17
REMARK                            x       y       z     vdW  Elec       q    Type
REMARK                         _______ _______ _______ _____ _____    ______ ____
ROOT
ATOM      1  C   UNL     1      34.888 -19.312 -21.227  0.00  0.00    -0.022 C 
ATOM      2  C   UNL     1      34.298 -21.479 -19.571  0.00  0.00    +0.122 C 
ATOM      3  C   UNL     1      33.559 -19.657 -20.975  0.00  0.00    -0.003 C 
ATOM      4  C   UNL     1      35.921 -20.052 -20.651  0.00  0.00    -0.003 C 
ATOM      5  C   UNL     1      33.265 -20.740 -20.147  0.00  0.00    +0.020 C 
ATOM      6  C   UNL     1      35.627 -21.135 -19.824  0.00  0.00    +0.020 C 
ENDROOT
BRANCH   2   7
ATOM      7  S   UNL     1      33.931 -22.835 -18.534  0.00  0.00    +0.057 S 
ATOM      8  O   UNL     1      33.887 -24.040 -19.350  0.00  0.00    -0.153 OA
ATOM      9  O   UNL     1      34.809 -22.779 -17.373  0.00  0.00    -0.153 OA
BRANCH   7  10
ATOM     10  N   UNL     1      32.343 -22.445 -18.040  0.00  0.00    -0.203 NA
ATOM     11  H   UNL     1      31.932 -21.788 -18.704  0.00  0.00    +0.144 HD
ATOM     12  H   UNL     1      32.370 -22.020 -17.114  0.00  0.00    +0.144 HD
ENDBRANCH   7  10
ENDBRANCH   2   7
BRANCH   1  13
ATOM     13  C   UNL     1      35.202 -18.153 -22.111  0.00  0.00    +0.038 C 
BRANCH  13  14
ATOM     14  C   UNL     1      35.010 -18.445 -23.603  0.00  0.00    +0.114 C 
BRANCH  14  16
ATOM     15  O   UNL     1      34.607 -17.105 -25.572  0.00  0.00    -0.250 OA
ATOM     16  C   UNL     1      35.033 -17.180 -24.427  0.00  0.00    +0.314 C 
BRANCH  16  17
ATOM     17  O   UNL     1      35.606 -16.138 -23.776  0.00  0.00    -0.480 OA
ATOM     18  H   UNL     1      35.089 -15.398 -23.529  0.00  0.00    +0.295 HD
ENDBRANCH  16  17
ENDBRANCH  14  16
ENDBRANCH  13  14
ENDBRANCH   1  13
TORSDOF 6
ENDMDL
MODEL 2
REMARK VINA RESULT:      -8.4      0.025      1.248
REMARK  Name = 3161908
REMARK  6 active torsions:
REMARK  status: ('A' for Active; 'I' for Inactive)
REMARK    1  A    between atoms: C_1  and  C_13
REMARK    2  A    between atoms: C_2  and  S_7
REMARK    3  A    between atoms: S_7  and  N_10
REMARK    4  A    between atoms: C_13  and  C_14
REMARK    5  A    between atoms: C_14  and  C_16
REMARK    6  A    between atoms: C_16  and  O_17
REMARK                            x       y       z     vdW  Elec       q    Type
REMARK                         _______ _______ _______ _____ _____    ______ ____
ROOT
ATOM      1  C   UNL     1      34.875 -19.312 -21.218  0.00  0.00    -0.022 C 
ATOM      2  C   UNL     1      34.283 -21.480 -19.564  0.00  0.00    +0.122 C 
ATOM      3  C   UNL     1      35.907 -20.042 -20.626  0.00  0.00    -0.003 C 
ATOM      4  C   UNL     1      33.547 -19.667 -20.981  0.00  0.00    -0.003 C 
ATOM      5  C   UNL     1      35.611 -21.125 -19.801  0.00  0.00    +0.020 C 
ATOM      6  C   UNL     1      33.251 -20.750 -20.154  0.00  0.00    +0.020 C 
ENDROOT
BRANCH   2   7
ATOM      7  S   UNL     1      33.911 -22.837 -18.530  0.00  0.00    +0.057 S 
ATOM      8  O   UNL     1      33.881 -24.043 -19.346  0.00  0.00    -0.153 OA
ATOM      9  O   UNL     1      34.774 -22.776 -17.360  0.00  0.00    -0.153 OA
BRANCH   7  10
ATOM     10  N   UNL     1      32.315 -22.454 -18.054  0.00  0.00    -0.203 NA
ATOM     11  H   UNL     1      31.860 -23.290 -17.686  0.00  0.00    +0.144 HD
ATOM     12  H   UNL     1      31.793 -22.111 -18.860  0.00  0.00    +0.144 HD
ENDBRANCH   7  10
ENDBRANCH   2   7
BRANCH   1  13
ATOM     13  C   UNL     1      35.192 -18.154 -22.102  0.00  0.00    +0.038 C 
BRANCH  13  14
ATOM     14  C   UNL     1      35.021 -18.453 -23.596  0.00  0.00    +0.114 C 
BRANCH  14  16
ATOM     15  O   UNL     1      34.583 -17.124 -25.565  0.00  0.00    -0.250 OA
ATOM     16  C   UNL     1      35.014 -17.188 -24.421  0.00  0.00    +0.314 C 
BRANCH  16  17
ATOM     17  O   UNL     1      35.564 -16.133 -23.772  0.00  0.00    -0.480 OA
ATOM     18  H   UNL     1      35.101 -15.720 -23.071  0.00  0.00    +0.295 HD
ENDBRANCH  16  17
ENDBRANCH  14  16
ENDBRANCH  13  14
ENDBRANCH   1  13
TORSDOF 6
ENDMDL
MODEL 3
REMARK VINA RESULT:      -8.1      1.383      2.223
REMARK  Name = 3161908
REMARK  6 active torsions:
REMARK  status: ('A' for Active; 'I' for Inactive)
REMARK    1  A    between atoms: C_1  and  C_13
REMARK    2  A    between atoms: C_2  and  S_7
REMARK    3  A    between atoms: S_7  and  N_10
REMARK    4  A    between atoms: C_13  and  C_14
REMARK    5  A    between atoms: C_14  and  C_16
REMARK    6  A    between atoms: C_16  and  O_17
REMARK                            x       y       z     vdW  Elec       q    Type
REMARK                         _______ _______ _______ _____ _____    ______ ____
ROOT
ATOM      1  C   UNL     1      34.782 -19.255 -21.177  0.00  0.00    -0.022 C 
ATOM      2  C   UNL     1      34.102 -21.449 -19.592  0.00  0.00    +0.122 C 
ATOM      3  C   UNL     1      35.783 -20.059 -20.630  0.00  0.00    -0.003 C 
ATOM      4  C   UNL     1      33.441 -19.549 -20.930  0.00  0.00    -0.003 C 
ATOM      5  C   UNL     1      35.443 -21.156 -19.839  0.00  0.00    +0.020 C 
ATOM      6  C   UNL     1      33.100 -20.645 -20.138  0.00  0.00    +0.020 C 
ENDROOT
BRANCH   2   7
ATOM      7  S   UNL     1      33.674 -22.822 -18.602  0.00  0.00    +0.057 S 
ATOM      8  O   UNL     1      32.375 -22.566 -17.996  0.00  0.00    -0.153 OA
ATOM      9  O   UNL     1      33.884 -24.035 -19.380  0.00  0.00    -0.153 OA
BRANCH   7  10
ATOM     10  N   UNL     1      34.876 -22.734 -17.390  0.00  0.00    -0.203 NA
ATOM     11  H   UNL     1      34.531 -23.178 -16.538  0.00  0.00    +0.144 HD
ATOM     12  H   UNL     1      35.095 -21.757 -17.199  0.00  0.00    +0.144 HD
ENDBRANCH   7  10
ENDBRANCH   2   7
BRANCH   1  13
ATOM     13  C   UNL     1      35.146 -18.083 -22.024  0.00  0.00    +0.038 C 
BRANCH  13  14
ATOM     14  C   UNL     1      34.604 -16.749 -21.497  0.00  0.00    +0.114 C 
BRANCH  14  16
ATOM     15  O   UNL     1      34.353 -14.506 -22.357  0.00  0.00    -0.250 OA
ATOM     16  C   UNL     1      34.819 -15.630 -22.488  0.00  0.00    +0.314 C 
BRANCH  16  17
ATOM     17  O   UNL     1      35.559 -16.009 -23.559  0.00  0.00    -0.480 OA
ATOM     18  H   UNL     1      35.879 -16.887 -23.621  0.00  0.00    +0.295 HD
ENDBRANCH  16  17
ENDBRANCH  14  16
ENDBRANCH  13  14
ENDBRANCH   1  13
TORSDOF 6
ENDMDL
MODEL 4
REMARK VINA RESULT:      -7.4      7.244      8.295
REMARK  Name = 3161908
REMARK  6 active torsions:
REMARK  status: ('A' for Active; 'I' for Inactive)
REMARK    1  A    between atoms: C_1  and  C_13
REMARK    2  A    between atoms: C_2  and  S_7
REMARK    3  A    between atoms: S_7  and  N_10
REMARK    4  A    between atoms: C_13  and  C_14
REMARK    5  A    between atoms: C_14  and  C_16
REMARK    6  A    between atoms: C_16  and  O_17
REMARK                            x       y       z     vdW  Elec       q    Type
REMARK                         _______ _______ _______ _____ _____    ______ ____
ROOT
ATOM      1  C   UNL     1      31.503 -23.220 -15.050  0.00  0.00    -0.022 C 
ATOM      2  C   UNL     1      34.167 -24.042 -14.931  0.00  0.00    +0.122 C 
ATOM      3  C   UNL     1      32.032 -23.703 -13.853  0.00  0.00    -0.003 C 
ATOM      4  C   UNL     1      32.306 -23.150 -16.188  0.00  0.00    -0.003 C 
ATOM      5  C   UNL     1      33.363 -24.113 -13.794  0.00  0.00    +0.020 C 
ATOM      6  C   UNL     1      33.638 -23.561 -16.129  0.00  0.00    +0.020 C 
ENDROOT
BRANCH   2   7
ATOM      7  S   UNL     1      35.834 -24.555 -14.858  0.00  0.00    +0.057 S 
ATOM      8  O   UNL     1      36.588 -23.813 -15.859  0.00  0.00    -0.153 OA
ATOM      9  O   UNL     1      36.262 -24.535 -13.467  0.00  0.00    -0.153 OA
BRANCH   7  10
ATOM     10  N   UNL     1      35.696 -26.181 -15.366  0.00  0.00    -0.203 NA
ATOM     11  H   UNL     1      36.627 -26.590 -15.452  0.00  0.00    +0.144 HD
ATOM     12  H   UNL     1      35.225 -26.216 -16.270  0.00  0.00    +0.144 HD
ENDBRANCH   7  10
ENDBRANCH   2   7
BRANCH   1  13
ATOM     13  C   UNL     1      30.079 -22.780 -15.114  0.00  0.00    +0.038 C 
BRANCH  13  14
ATOM     14  C   UNL     1      29.130 -23.841 -15.682  0.00  0.00    +0.114 C 
BRANCH  14  16
ATOM     15  O   UNL     1      27.686 -23.975 -17.614  0.00  0.00    -0.250 OA
ATOM     16  C   UNL     1      28.268 -23.282 -16.789  0.00  0.00    +0.314 C 
BRANCH  16  17
ATOM     17  O   UNL     1      28.229 -21.928 -16.793  0.00  0.00    -0.480 OA
ATOM     18  H   UNL     1      28.553 -21.447 -16.058  0.00  0.00    +0.295 HD
ENDBRANCH  16  17
ENDBRANCH  14  16
ENDBRANCH  13  14
ENDBRANCH   1  13
TORSDOF 6
ENDMDL
MODEL 5
REMARK VINA RESULT:      -7.4      3.304      6.819
REMARK  Name = 3161908
REMARK  6 active torsions:
REMARK  status: ('A' for Active; 'I' for Inactive)
REMARK    1  A    between atoms: C_1  and  C_13
REMARK    2  A    between atoms: C_2  and  S_7
REMARK    3  A    between atoms: S_7  and  N_10
REMARK    4  A    between atoms: C_13  and  C_14
REMARK    5  A    between atoms: C_14  and  C_16
REMARK    6  A    between atoms: C_16  and  O_17
REMARK                            x       y       z     vdW  Elec       q    Type
REMARK                         _______ _______ _______ _____ _____    ______ ____
ROOT
ATOM      1  C   UNL     1      34.195 -22.108 -19.229  0.00  0.00    -0.022 C 
ATOM      2  C   UNL     1      35.091 -19.857 -20.613  0.00  0.00    +0.122 C 
ATOM      3  C   UNL     1      35.563 -21.864 -19.353  0.00  0.00    -0.003 C 
ATOM      4  C   UNL     1      33.275 -21.228 -19.799  0.00  0.00    -0.003 C 
ATOM      5  C   UNL     1      36.010 -20.738 -20.043  0.00  0.00    +0.020 C 
ATOM      6  C   UNL     1      33.723 -20.102 -20.490  0.00  0.00    +0.020 C 
ENDROOT
BRANCH   2   7
ATOM      7  S   UNL     1      35.651 -18.448 -21.478  0.00  0.00    +0.057 S 
ATOM      8  O   UNL     1      35.239 -17.261 -20.740  0.00  0.00    -0.153 OA
ATOM      9  O   UNL     1      37.054 -18.640 -21.815  0.00  0.00    -0.153 OA
BRANCH   7  10
ATOM     10  N   UNL     1      34.724 -18.556 -22.909  0.00  0.00    -0.203 NA
ATOM     11  H   UNL     1      34.135 -17.727 -22.996  0.00  0.00    +0.144 HD
ATOM     12  H   UNL     1      34.135 -19.387 -22.871  0.00  0.00    +0.144 HD
ENDBRANCH   7  10
ENDBRANCH   2   7
BRANCH   1  13
ATOM     13  C   UNL     1      33.715 -23.312 -18.489  0.00  0.00    +0.038 C 
BRANCH  13  14
ATOM     14  C   UNL     1      33.192 -23.002 -17.082  0.00  0.00    +0.114 C 
BRANCH  14  16
ATOM     15  O   UNL     1      35.259 -23.927 -16.242  0.00  0.00    -0.250 OA
ATOM     16  C   UNL     1      34.222 -23.314 -16.023  0.00  0.00    +0.314 C 
BRANCH  16  17
ATOM     17  O   UNL     1      33.865 -22.870 -14.793  0.00  0.00    -0.480 OA
ATOM     18  H   UNL     1      34.061 -23.382 -14.034  0.00  0.00    +0.295 HD
ENDBRANCH  16  17
ENDBRANCH  14  16
ENDBRANCH  13  14
ENDBRANCH   1  13
TORSDOF 6
ENDMDL
MODEL 6
REMARK VINA RESULT:      -7.2      7.676      8.613
REMARK  Name = 3161908
REMARK  6 active torsions:
REMARK  status: ('A' for Active; 'I' for Inactive)
REMARK    1  A    between atoms: C_1  and  C_13
REMARK    2  A    between atoms: C_2  and  S_7
REMARK    3  A    between atoms: S_7  and  N_10
REMARK    4  A    between atoms: C_13  and  C_14
REMARK    5  A    between atoms: C_14  and  C_16
REMARK    6  A    between atoms: C_16  and  O_17
REMARK                            x       y       z     vdW  Elec       q    Type
REMARK                         _______ _______ _______ _____ _____    ______ ____
ROOT
ATOM      1  C   UNL     1      30.449 -24.099 -15.451  0.00  0.00    -0.022 C 
ATOM      2  C   UNL     1      33.057 -24.139 -14.463  0.00  0.00    +0.122 C 
ATOM      3  C   UNL     1      30.742 -24.803 -14.283  0.00  0.00    -0.003 C 
ATOM      4  C   UNL     1      31.461 -23.416 -16.126  0.00  0.00    -0.003 C 
ATOM      5  C   UNL     1      32.045 -24.822 -13.789  0.00  0.00    +0.020 C 
ATOM      6  C   UNL     1      32.765 -23.436 -15.632  0.00  0.00    +0.020 C 
ENDROOT
BRANCH   2   7
ATOM      7  S   UNL     1      34.690 -24.162 -13.845  0.00  0.00    +0.057 S 
ATOM      8  O   UNL     1      34.633 -24.107 -12.391  0.00  0.00    -0.153 OA
ATOM      9  O   UNL     1      35.416 -25.241 -14.500  0.00  0.00    -0.153 OA
BRANCH   7  10
ATOM     10  N   UNL     1      35.280 -22.669 -14.430  0.00  0.00    -0.203 NA
ATOM     11  H   UNL     1      35.215 -22.654 -15.449  0.00  0.00    +0.144 HD
ATOM     12  H   UNL     1      36.254 -22.555 -14.151  0.00  0.00    +0.144 HD
ENDBRANCH   7  10
ENDBRANCH   2   7
BRANCH   1  13
ATOM     13  C   UNL     1      29.054 -24.077 -15.979  0.00  0.00    +0.038 C 
BRANCH  13  14
ATOM     14  C   UNL     1      28.363 -22.716 -15.842  0.00  0.00    +0.114 C 
BRANCH  14  16
ATOM     15  O   UNL     1      27.049 -21.285 -17.278  0.00  0.00    -0.250 OA
ATOM     16  C   UNL     1      27.522 -22.392 -17.053  0.00  0.00    +0.314 C 
BRANCH  16  17
ATOM     17  O   UNL     1      27.318 -23.466 -17.855  0.00  0.00    -0.480 OA
ATOM     18  H   UNL     1      27.334 -23.366 -18.786  0.00  0.00    +0.295 HD
ENDBRANCH  16  17
ENDBRANCH  14  16
ENDBRANCH  13  14
ENDBRANCH   1  13
TORSDOF 6
ENDMDL
MODEL 7
REMARK VINA RESULT:      -7.1      3.144      6.807
REMARK  Name = 3161908
REMARK  6 active torsions:
REMARK  status: ('A' for Active; 'I' for Inactive)
REMARK    1  A    between atoms: C_1  and  C_13
REMARK    2  A    between atoms: C_2  and  S_7
REMARK    3  A    between atoms: S_7  and  N_10
REMARK    4  A    between atoms: C_13  and  C_14
REMARK    5  A    between atoms: C_14  and  C_16
REMARK    6  A    between atoms: C_16  and  O_17
REMARK                            x       y       z     vdW  Elec       q    Type
REMARK                         _______ _______ _______ _____ _____    ______ ____
ROOT
ATOM      1  C   UNL     1      34.166 -21.918 -19.143  0.00  0.00    -0.022 C 
ATOM      2  C   UNL     1      34.954 -19.800 -20.779  0.00  0.00    +0.122 C 
ATOM      3  C   UNL     1      33.206 -21.075 -19.703  0.00  0.00    -0.003 C 
ATOM      4  C   UNL     1      35.519 -21.702 -19.400  0.00  0.00    -0.003 C 
ATOM      5  C   UNL     1      33.600 -20.017 -20.522  0.00  0.00    +0.020 C 
ATOM      6  C   UNL     1      35.914 -20.643 -20.218  0.00  0.00    +0.020 C 
ENDROOT
BRANCH   2   7
ATOM      7  S   UNL     1      35.449 -18.475 -21.804  0.00  0.00    +0.057 S 
ATOM      8  O   UNL     1      36.891 -18.552 -21.991  0.00  0.00    -0.153 OA
ATOM      9  O   UNL     1      34.569 -18.435 -22.963  0.00  0.00    -0.153 OA
BRANCH   7  10
ATOM     10  N   UNL     1      35.094 -17.139 -20.800  0.00  0.00    -0.203 NA
ATOM     11  H   UNL     1      34.325 -17.379 -20.173  0.00  0.00    +0.144 HD
ATOM     12  H   UNL     1      34.824 -16.342 -21.377  0.00  0.00    +0.144 HD
ENDBRANCH   7  10
ENDBRANCH   2   7
BRANCH   1  13
ATOM     13  C   UNL     1      33.744 -23.051 -18.269  0.00  0.00    +0.038 C 
BRANCH  13  14
ATOM     14  C   UNL     1      32.473 -22.767 -17.462  0.00  0.00    +0.114 C 
BRANCH  14  16
ATOM     15  O   UNL     1      31.556 -23.833 -15.497  0.00  0.00    -0.250 OA
ATOM     16  C   UNL     1      32.533 -23.392 -16.088  0.00  0.00    +0.314 C 
BRANCH  16  17
ATOM     17  O   UNL     1      33.783 -23.388 -15.562  0.00  0.00    -0.480 OA
ATOM     18  H   UNL     1      34.479 -22.951 -16.010  0.00  0.00    +0.295 HD
ENDBRANCH  16  17
ENDBRANCH  14  16
ENDBRANCH  13  14
ENDBRANCH   1  13
TORSDOF 6
ENDMDL
MODEL 8
REMARK VINA RESULT:      -7.1      5.509      9.024
REMARK  Name = 3161908
REMARK  6 active torsions:
REMARK  status: ('A' for Active; 'I' for Inactive)
REMARK    1  A    between atoms: C_1  and  C_13
REMARK    2  A    between atoms: C_2  and  S_7
REMARK    3  A    between atoms: S_7  and  N_10
REMARK    4  A    between atoms: C_13  and  C_14
REMARK    5  A    between atoms: C_14  and  C_16
REMARK    6  A    between atoms: C_16  and  O_17
REMARK                            x       y       z     vdW  Elec       q    Type
REMARK                         _______ _______ _______ _____ _____    ______ ____
ROOT
ATOM      1  C   UNL     1      35.602 -23.230 -14.709  0.00  0.00    -0.022 C 
ATOM      2  C   UNL     1      34.521 -22.835 -17.251  0.00  0.00    +0.122 C 
ATOM      3  C   UNL     1      34.280 -23.591 -14.969  0.00  0.00    -0.003 C 
ATOM      4  C   UNL     1      36.383 -22.671 -15.720  0.00  0.00    -0.003 C 
ATOM      5  C   UNL     1      33.740 -23.394 -16.240  0.00  0.00    +0.020 C 
ATOM      6  C   UNL     1      35.844 -22.474 -16.991  0.00  0.00    +0.020 C 
ENDROOT
BRANCH   2   7
ATOM      7  S   UNL     1      33.847 -22.589 -18.842  0.00  0.00    +0.057 S 
ATOM      8  O   UNL     1      34.027 -23.811 -19.613  0.00  0.00    -0.153 OA
ATOM      9  O   UNL     1      32.517 -22.015 -18.696  0.00  0.00    -0.153 OA
BRANCH   7  10
ATOM     10  N   UNL     1      34.897 -21.390 -19.458  0.00  0.00    -0.203 NA
ATOM     11  H   UNL     1      35.598 -21.157 -18.753  0.00  0.00    +0.144 HD
ATOM     12  H   UNL     1      34.360 -20.555 -19.691  0.00  0.00    +0.144 HD
ENDBRANCH   7  10
ENDBRANCH   2   7
BRANCH   1  13
ATOM     13  C   UNL     1      36.180 -23.442 -13.350  0.00  0.00    +0.038 C 
BRANCH  13  14
ATOM     14  C   UNL     1      35.138 -23.803 -12.286  0.00  0.00    +0.114 C 
BRANCH  14  16
ATOM     15  O   UNL     1      35.252 -25.239 -10.347  0.00  0.00    -0.250 OA
ATOM     16  C   UNL     1      35.781 -24.390 -11.052  0.00  0.00    +0.314 C 
BRANCH  16  17
ATOM     17  O   UNL     1      36.998 -23.854 -10.787  0.00  0.00    -0.480 OA
ATOM     18  H   UNL     1      37.380 -23.956  -9.939  0.00  0.00    +0.295 HD
ENDBRANCH  16  17
ENDBRANCH  14  16
ENDBRANCH  13  14
ENDBRANCH   1  13
TORSDOF 6
ENDMDL
MODEL 9
REMARK VINA RESULT:      -7.1      5.474      7.576
REMARK  Name = 3161908
REMARK  6 active torsions:
REMARK  status: ('A' for Active; 'I' for Inactive)
REMARK    1  A    between atoms: C_1  and  C_13
REMARK    2  A    between atoms: C_2  and  S_7
REMARK    3  A    between atoms: S_7  and  N_10
REMARK    4  A    between atoms: C_13  and  C_14
REMARK    5  A    between atoms: C_14  and  C_16
REMARK    6  A    between atoms: C_16  and  O_17
REMARK                            x       y       z     vdW  Elec       q    Type
REMARK                         _______ _______ _______ _____ _____    ______ ____
ROOT
ATOM      1  C   UNL     1      34.884 -23.333 -15.620  0.00  0.00    -0.022 C 
ATOM      2  C   UNL     1      36.664 -23.567 -13.484  0.00  0.00    +0.122 C 
ATOM      3  C   UNL     1      36.227 -22.993 -15.790  0.00  0.00    -0.003 C 
ATOM      4  C   UNL     1      34.432 -23.788 -14.382  0.00  0.00    -0.003 C 
ATOM      5  C   UNL     1      37.116 -23.111 -14.722  0.00  0.00    +0.020 C 
ATOM      6  C   UNL     1      35.321 -23.905 -13.314  0.00  0.00    +0.020 C 
ENDROOT
BRANCH   2   7
ATOM      7  S   UNL     1      37.777 -23.715 -12.147  0.00  0.00    +0.057 S 
ATOM      8  O   UNL     1      38.229 -22.382 -11.775  0.00  0.00    -0.153 OA
ATOM      9  O   UNL     1      37.178 -24.583 -11.142  0.00  0.00    -0.153 OA
BRANCH   7  10
ATOM     10  N   UNL     1      39.070 -24.548 -12.891  0.00  0.00    -0.203 NA
ATOM     11  H   UNL     1      38.968 -25.550 -12.727  0.00  0.00    +0.144 HD
ATOM     12  H   UNL     1      39.953 -24.228 -12.496  0.00  0.00    +0.144 HD
ENDBRANCH   7  10
ENDBRANCH   2   7
BRANCH   1  13
ATOM     13  C   UNL     1      33.933 -23.208 -16.762  0.00  0.00    +0.038 C 
BRANCH  13  14
ATOM     14  C   UNL     1      34.522 -22.487 -17.980  0.00  0.00    +0.114 C 
BRANCH  14  16
ATOM     15  O   UNL     1      32.951 -22.034 -19.759  0.00  0.00    -0.250 OA
ATOM     16  C   UNL     1      33.752 -22.802 -19.240  0.00  0.00    +0.314 C 
BRANCH  16  17
ATOM     17  O   UNL     1      34.018 -24.039 -19.725  0.00  0.00    -0.480 OA
ATOM     18  H   UNL     1      33.361 -24.508 -20.199  0.00  0.00    +0.295 HD
ENDBRANCH  16  17
ENDBRANCH  14  16
ENDBRANCH  13  14
ENDBRANCH   1  13
TORSDOF 6
ENDMDL
