MODEL 1
REMARK VINA RESULT:      -7.3      0.000      0.000
REMARK  Name = 637540
REMARK  4 active torsions:
REMARK  status: ('A' for Active; 'I' for Inactive)
REMARK    1  A    between atoms: C_1  and  C_9
REMARK    2  A    between atoms: C_2  and  O_7
REMARK    3  A    between atoms: C_10  and  C_12
REMARK    4  A    between atoms: C_12  and  O_13
REMARK                            x       y       z     vdW  Elec       q    Type
REMARK                         _______ _______ _______ _____ _____    ______ ____
ROOT
ATOM      1  C   UNL     1      34.598 -19.360 -21.280  0.00  0.00    +0.034 C 
ATOM      2  C   UNL     1      35.720 -19.908 -20.657  0.00  0.00    +0.134 C 
ATOM      3  C   UNL     1      33.328 -19.859 -20.994  0.00  0.00    +0.003 C 
ATOM      4  C   UNL     1      35.571 -20.956 -19.748  0.00  0.00    +0.037 C 
ATOM      5  C   UNL     1      33.179 -20.908 -20.085  0.00  0.00    +0.000 C 
ATOM      6  C   UNL     1      34.300 -21.456 -19.462  0.00  0.00    +0.003 C 
ENDROOT
BRANCH   2   7
ATOM      7  O   UNL     1      36.973 -19.438 -20.919  0.00  0.00    -0.506 OA
ATOM      8  H   UNL     1      37.649 -19.523 -20.276  0.00  0.00    +0.292 HD
ENDBRANCH   2   7
BRANCH   1   9
ATOM      9  C   UNL     1      34.727 -18.266 -22.232  0.00  0.00    +0.010 C 
ATOM     10  C   UNL     1      34.882 -18.408 -23.567  0.00  0.00    +0.082 C 
BRANCH  10  12
ATOM     11  O   UNL     1      34.582 -17.105 -25.571  0.00  0.00    -0.245 OA
ATOM     12  C   UNL     1      34.992 -17.214 -24.428  0.00  0.00    +0.338 C 
BRANCH  12  13
ATOM     13  O   UNL     1      35.627 -16.238 -23.738  0.00  0.00    -0.477 OA
ATOM     14  H   UNL     1      36.056 -16.440 -22.929  0.00  0.00    +0.295 HD
ENDBRANCH  12  13
ENDBRANCH  10  12
ENDBRANCH   1   9
TORSDOF 4
ENDMDL
MODEL 2
REMARK VINA RESULT:      -7.1      1.493      2.053
REMARK  Name = 637540
REMARK  4 active torsions:
REMARK  status: ('A' for Active; 'I' for Inactive)
REMARK    1  A    between atoms: C_1  and  C_9
REMARK    2  A    between atoms: C_2  and  O_7
REMARK    3  A    between atoms: C_10  and  C_12
REMARK    4  A    between atoms: C_12  and  O_13
REMARK                            x       y       z     vdW  Elec       q    Type
REMARK                         _______ _______ _______ _____ _____    ______ ____
ROOT
ATOM      1  C   UNL     1      34.698 -19.866 -20.964  0.00  0.00    +0.034 C 
ATOM      2  C   UNL     1      33.586 -20.513 -20.423  0.00  0.00    +0.134 C 
ATOM      3  C   UNL     1      35.983 -20.253 -20.586  0.00  0.00    +0.003 C 
ATOM      4  C   UNL     1      33.761 -21.547 -19.502  0.00  0.00    +0.037 C 
ATOM      5  C   UNL     1      36.157 -21.285 -19.664  0.00  0.00    +0.000 C 
ATOM      6  C   UNL     1      35.047 -21.933 -19.123  0.00  0.00    +0.003 C 
ENDROOT
BRANCH   2   7
ATOM      7  O   UNL     1      32.319 -20.156 -20.777  0.00  0.00    -0.506 OA
ATOM      8  H   UNL     1      31.744 -19.777 -20.141  0.00  0.00    +0.292 HD
ENDBRANCH   2   7
BRANCH   1   9
ATOM      9  C   UNL     1      34.542 -18.785 -21.928  0.00  0.00    +0.010 C 
ATOM     10  C   UNL     1      35.206 -18.683 -23.099  0.00  0.00    +0.082 C 
BRANCH  10  12
ATOM     11  O   UNL     1      34.194 -17.524 -24.954  0.00  0.00    -0.245 OA
ATOM     12  C   UNL     1      34.949 -17.539 -23.996  0.00  0.00    +0.338 C 
BRANCH  12  13
ATOM     13  O   UNL     1      35.694 -16.487 -23.582  0.00  0.00    -0.477 OA
ATOM     14  H   UNL     1      36.259 -16.578 -22.840  0.00  0.00    +0.295 HD
ENDBRANCH  12  13
ENDBRANCH  10  12
ENDBRANCH   1   9
TORSDOF 4
ENDMDL
MODEL 3
REMARK VINA RESULT:      -7.1      2.115      5.057
REMARK  Name = 637540
REMARK  4 active torsions:
REMARK  status: ('A' for Active; 'I' for Inactive)
REMARK    1  A    between atoms: C_1  and  C_9
REMARK    2  A    between atoms: C_2  and  O_7
REMARK    3  A    between atoms: C_10  and  C_12
REMARK    4  A    between atoms: C_12  and  O_13
REMARK                            x       y       z     vdW  Elec       q    Type
REMARK                         _______ _______ _______ _____ _____    ______ ____
ROOT
ATOM      1  C   UNL     1      34.800 -18.726 -22.269  0.00  0.00    +0.034 C 
ATOM      2  C   UNL     1      35.028 -17.397 -21.910  0.00  0.00    +0.134 C 
ATOM      3  C   UNL     1      34.635 -19.067 -23.611  0.00  0.00    +0.003 C 
ATOM      4  C   UNL     1      35.090 -16.409 -22.894  0.00  0.00    +0.037 C 
ATOM      5  C   UNL     1      34.696 -18.080 -24.594  0.00  0.00    +0.000 C 
ATOM      6  C   UNL     1      34.924 -16.751 -24.236  0.00  0.00    +0.003 C 
ENDROOT
BRANCH   2   7
ATOM      7  O   UNL     1      35.194 -17.036 -20.606  0.00  0.00    -0.506 OA
ATOM      8  H   UNL     1      35.956 -17.313 -20.136  0.00  0.00    +0.292 HD
ENDBRANCH   2   7
BRANCH   1   9
ATOM      9  C   UNL     1      34.732 -19.775 -21.261  0.00  0.00    +0.010 C 
ATOM     10  C   UNL     1      33.604 -20.194 -20.647  0.00  0.00    +0.082 C 
BRANCH  10  12
ATOM     11  O   UNL     1      32.731 -21.940 -19.235  0.00  0.00    -0.245 OA
ATOM     12  C   UNL     1      33.668 -21.277 -19.647  0.00  0.00    +0.338 C 
BRANCH  12  13
ATOM     13  O   UNL     1      34.954 -21.427 -19.250  0.00  0.00    -0.477 OA
ATOM     14  H   UNL     1      35.631 -21.534 -19.890  0.00  0.00    +0.295 HD
ENDBRANCH  12  13
ENDBRANCH  10  12
ENDBRANCH   1   9
TORSDOF 4
ENDMDL
MODEL 4
REMARK VINA RESULT:      -6.8      3.902      6.362
REMARK  Name = 637540
REMARK  4 active torsions:
REMARK  status: ('A' for Active; 'I' for Inactive)
REMARK    1  A    between atoms: C_1  and  C_9
REMARK    2  A    between atoms: C_2  and  O_7
REMARK    3  A    between atoms: C_10  and  C_12
REMARK    4  A    between atoms: C_12  and  O_13
REMARK                            x       y       z     vdW  Elec       q    Type
REMARK                         _______ _______ _______ _____ _____    ______ ____
ROOT
ATOM      1  C   UNL     1      35.057 -21.152 -19.515  0.00  0.00    +0.034 C 
ATOM      2  C   UNL     1      33.682 -21.102 -19.748  0.00  0.00    +0.134 C 
ATOM      3  C   UNL     1      35.924 -20.381 -20.287  0.00  0.00    +0.003 C 
ATOM      4  C   UNL     1      33.176 -20.280 -20.756  0.00  0.00    +0.037 C 
ATOM      5  C   UNL     1      35.418 -19.560 -21.295  0.00  0.00    +0.000 C 
ATOM      6  C   UNL     1      34.044 -19.509 -21.529  0.00  0.00    +0.003 C 
ENDROOT
BRANCH   2   7
ATOM      7  O   UNL     1      32.812 -21.845 -19.007  0.00  0.00    -0.506 OA
ATOM      8  H   UNL     1      32.851 -22.780 -19.037  0.00  0.00    +0.292 HD
ENDBRANCH   2   7
BRANCH   1   9
ATOM      9  C   UNL     1      35.610 -22.002 -18.469  0.00  0.00    +0.010 C 
ATOM     10  C   UNL     1      36.525 -21.615 -17.554  0.00  0.00    +0.082 C 
BRANCH  10  12
ATOM     11  O   UNL     1      38.100 -22.586 -16.009  0.00  0.00    -0.245 OA
ATOM     12  C   UNL     1      37.000 -22.572 -16.535  0.00  0.00    +0.338 C 
BRANCH  12  13
ATOM     13  O   UNL     1      36.004 -23.450 -16.267  0.00  0.00    -0.477 OA
ATOM     14  H   UNL     1      35.749 -24.080 -16.913  0.00  0.00    +0.295 HD
ENDBRANCH  12  13
ENDBRANCH  10  12
ENDBRANCH   1   9
TORSDOF 4
ENDMDL
MODEL 5
REMARK VINA RESULT:      -6.7      2.245      5.113
REMARK  Name = 637540
REMARK  4 active torsions:
REMARK  status: ('A' for Active; 'I' for Inactive)
REMARK    1  A    between atoms: C_1  and  C_9
REMARK    2  A    between atoms: C_2  and  O_7
REMARK    3  A    between atoms: C_10  and  C_12
REMARK    4  A    between atoms: C_12  and  O_13
REMARK                            x       y       z     vdW  Elec       q    Type
REMARK                         _______ _______ _______ _____ _____    ______ ____
ROOT
ATOM      1  C   UNL     1      34.720 -18.246 -21.777  0.00  0.00    +0.034 C 
ATOM      2  C   UNL     1      34.858 -18.324 -23.164  0.00  0.00    +0.134 C 
ATOM      3  C   UNL     1      34.627 -17.002 -21.155  0.00  0.00    +0.003 C 
ATOM      4  C   UNL     1      34.904 -17.158 -23.927  0.00  0.00    +0.037 C 
ATOM      5  C   UNL     1      34.674 -15.835 -21.918  0.00  0.00    +0.000 C 
ATOM      6  C   UNL     1      34.812 -15.913 -23.304  0.00  0.00    +0.003 C 
ENDROOT
BRANCH   2   7
ATOM      7  O   UNL     1      34.950 -19.528 -23.798  0.00  0.00    -0.506 OA
ATOM      8  H   UNL     1      34.184 -19.927 -24.160  0.00  0.00    +0.292 HD
ENDBRANCH   2   7
BRANCH   1   9
ATOM      9  C   UNL     1      34.669 -19.450 -20.959  0.00  0.00    +0.010 C 
ATOM     10  C   UNL     1      33.539 -20.049 -20.524  0.00  0.00    +0.082 C 
BRANCH  10  12
ATOM     11  O   UNL     1      32.686 -21.890 -19.223  0.00  0.00    -0.245 OA
ATOM     12  C   UNL     1      33.622 -21.275 -19.706  0.00  0.00    +0.338 C 
BRANCH  12  13
ATOM     13  O   UNL     1      34.924 -21.622 -19.575  0.00  0.00    -0.477 OA
ATOM     14  H   UNL     1      35.152 -22.482 -19.280  0.00  0.00    +0.295 HD
ENDBRANCH  12  13
ENDBRANCH  10  12
ENDBRANCH   1   9
TORSDOF 4
ENDMDL
MODEL 6
REMARK VINA RESULT:      -6.5      3.064      4.826
REMARK  Name = 637540
REMARK  4 active torsions:
REMARK  status: ('A' for Active; 'I' for Inactive)
REMARK    1  A    between atoms: C_1  and  C_9
REMARK    2  A    between atoms: C_2  and  O_7
REMARK    3  A    between atoms: C_10  and  C_12
REMARK    4  A    between atoms: C_12  and  O_13
REMARK                            x       y       z     vdW  Elec       q    Type
REMARK                         _______ _______ _______ _____ _____    ______ ____
ROOT
ATOM      1  C   UNL     1      34.532 -16.375 -23.592  0.00  0.00    +0.034 C 
ATOM      2  C   UNL     1      34.488 -17.030 -24.823  0.00  0.00    +0.134 C 
ATOM      3  C   UNL     1      34.725 -17.104 -22.420  0.00  0.00    +0.003 C 
ATOM      4  C   UNL     1      34.637 -18.416 -24.881  0.00  0.00    +0.037 C 
ATOM      5  C   UNL     1      34.874 -18.490 -22.477  0.00  0.00    +0.000 C 
ATOM      6  C   UNL     1      34.830 -19.146 -23.708  0.00  0.00    +0.003 C 
ENDROOT
BRANCH   2   7
ATOM      7  O   UNL     1      34.301 -16.341 -25.984  0.00  0.00    -0.506 OA
ATOM      8  H   UNL     1      34.130 -16.802 -26.781  0.00  0.00    +0.292 HD
ENDBRANCH   2   7
BRANCH   1   9
ATOM      9  C   UNL     1      34.379 -14.929 -23.506  0.00  0.00    +0.010 C 
ATOM     10  C   UNL     1      33.203 -14.276 -23.379  0.00  0.00    +0.082 C 
BRANCH  10  12
ATOM     11  O   UNL     1      32.382 -12.123 -22.672  0.00  0.00    -0.245 OA
ATOM     12  C   UNL     1      33.184 -12.803 -23.291  0.00  0.00    +0.338 C 
BRANCH  12  13
ATOM     13  O   UNL     1      34.216 -12.311 -24.016  0.00  0.00    -0.477 OA
ATOM     14  H   UNL     1      34.904 -11.838 -23.589  0.00  0.00    +0.295 HD
ENDBRANCH  12  13
ENDBRANCH  10  12
ENDBRANCH   1   9
TORSDOF 4
ENDMDL
MODEL 7
REMARK VINA RESULT:      -6.4      2.996      4.072
REMARK  Name = 637540
REMARK  4 active torsions:
REMARK  status: ('A' for Active; 'I' for Inactive)
REMARK    1  A    between atoms: C_1  and  C_9
REMARK    2  A    between atoms: C_2  and  O_7
REMARK    3  A    between atoms: C_10  and  C_12
REMARK    4  A    between atoms: C_12  and  O_13
REMARK                            x       y       z     vdW  Elec       q    Type
REMARK                         _______ _______ _______ _____ _____    ______ ____
ROOT
ATOM      1  C   UNL     1      34.770 -16.449 -22.622  0.00  0.00    +0.034 C 
ATOM      2  C   UNL     1      35.006 -16.974 -21.351  0.00  0.00    +0.134 C 
ATOM      3  C   UNL     1      34.778 -17.289 -23.735  0.00  0.00    +0.003 C 
ATOM      4  C   UNL     1      35.252 -18.338 -21.193  0.00  0.00    +0.037 C 
ATOM      5  C   UNL     1      35.025 -18.653 -23.578  0.00  0.00    +0.000 C 
ATOM      6  C   UNL     1      35.262 -19.178 -22.308  0.00  0.00    +0.003 C 
ENDROOT
BRANCH   2   7
ATOM      7  O   UNL     1      35.003 -16.175 -20.246  0.00  0.00    -0.506 OA
ATOM      8  H   UNL     1      35.013 -15.243 -20.340  0.00  0.00    +0.292 HD
ENDBRANCH   2   7
BRANCH   1   9
ATOM      9  C   UNL     1      34.510 -15.029 -22.812  0.00  0.00    +0.010 C 
ATOM     10  C   UNL     1      33.288 -14.475 -22.972  0.00  0.00    +0.082 C 
BRANCH  10  12
ATOM     11  O   UNL     1      32.260 -12.311 -22.716  0.00  0.00    -0.245 OA
ATOM     12  C   UNL     1      33.158 -13.015 -23.146  0.00  0.00    +0.338 C 
BRANCH  12  13
ATOM     13  O   UNL     1      34.212 -12.568 -23.868  0.00  0.00    -0.477 OA
ATOM     14  H   UNL     1      34.302 -12.817 -24.768  0.00  0.00    +0.295 HD
ENDBRANCH  12  13
ENDBRANCH  10  12
ENDBRANCH   1   9
TORSDOF 4
ENDMDL
MODEL 8
REMARK VINA RESULT:      -6.4      9.580     11.109
REMARK  Name = 637540
REMARK  4 active torsions:
REMARK  status: ('A' for Active; 'I' for Inactive)
REMARK    1  A    between atoms: C_1  and  C_9
REMARK    2  A    between atoms: C_2  and  O_7
REMARK    3  A    between atoms: C_10  and  C_12
REMARK    4  A    between atoms: C_12  and  O_13
REMARK                            x       y       z     vdW  Elec       q    Type
REMARK                         _______ _______ _______ _____ _____    ______ ____
ROOT
ATOM      1  C   UNL     1      36.923 -25.165 -13.700  0.00  0.00    +0.034 C 
ATOM      2  C   UNL     1      35.789 -24.879 -14.462  0.00  0.00    +0.134 C 
ATOM      3  C   UNL     1      36.920 -24.925 -12.327  0.00  0.00    +0.003 C 
ATOM      4  C   UNL     1      34.652 -24.353 -13.848  0.00  0.00    +0.037 C 
ATOM      5  C   UNL     1      35.783 -24.398 -11.714  0.00  0.00    +0.000 C 
ATOM      6  C   UNL     1      34.649 -24.112 -12.474  0.00  0.00    +0.003 C 
ENDROOT
BRANCH   2   7
ATOM      7  O   UNL     1      35.766 -25.104 -15.806  0.00  0.00    -0.506 OA
ATOM      8  H   UNL     1      34.961 -25.328 -16.230  0.00  0.00    +0.292 HD
ENDBRANCH   2   7
BRANCH   1   9
ATOM      9  C   UNL     1      38.122 -25.715 -14.317  0.00  0.00    +0.010 C 
ATOM     10  C   UNL     1      39.380 -25.566 -13.846  0.00  0.00    +0.082 C 
BRANCH  10  12
ATOM     11  O   UNL     1      41.397 -26.865 -14.068  0.00  0.00    -0.245 OA
ATOM     12  C   UNL     1      40.513 -26.185 -14.561  0.00  0.00    +0.338 C 
BRANCH  12  13
ATOM     13  O   UNL     1      40.417 -25.877 -15.876  0.00  0.00    -0.477 OA
ATOM     14  H   UNL     1      39.959 -25.104 -16.144  0.00  0.00    +0.295 HD
ENDBRANCH  12  13
ENDBRANCH  10  12
ENDBRANCH   1   9
TORSDOF 4
ENDMDL
MODEL 9
REMARK VINA RESULT:      -6.4      3.758      4.883
REMARK  Name = 637540
REMARK  4 active torsions:
REMARK  status: ('A' for Active; 'I' for Inactive)
REMARK    1  A    between atoms: C_1  and  C_9
REMARK    2  A    between atoms: C_2  and  O_7
REMARK    3  A    between atoms: C_10  and  C_12
REMARK    4  A    between atoms: C_12  and  O_13
REMARK                            x       y       z     vdW  Elec       q    Type
REMARK                         _______ _______ _______ _____ _____    ______ ____
ROOT
ATOM      1  C   UNL     1      33.759 -15.167 -22.979  0.00  0.00    +0.034 C 
ATOM      2  C   UNL     1      34.761 -15.914 -22.357  0.00  0.00    +0.134 C 
ATOM      3  C   UNL     1      32.762 -14.564 -22.212  0.00  0.00    +0.003 C 
ATOM      4  C   UNL     1      34.765 -16.058 -20.970  0.00  0.00    +0.037 C 
ATOM      5  C   UNL     1      32.765 -14.708 -20.825  0.00  0.00    +0.000 C 
ATOM      6  C   UNL     1      33.767 -15.455 -20.203  0.00  0.00    +0.003 C 
ENDROOT
BRANCH   2   7
ATOM      7  O   UNL     1      35.747 -16.513 -23.083  0.00  0.00    -0.506 OA
ATOM      8  H   UNL     1      36.485 -16.892 -22.647  0.00  0.00    +0.292 HD
ENDBRANCH   2   7
BRANCH   1   9
ATOM      9  C   UNL     1      33.734 -15.001 -24.425  0.00  0.00    +0.010 C 
ATOM     10  C   UNL     1      32.940 -14.139 -25.097  0.00  0.00    +0.082 C 
BRANCH  10  12
ATOM     11  O   UNL     1      32.788 -13.078 -27.255  0.00  0.00    -0.245 OA
ATOM     12  C   UNL     1      33.018 -14.059 -26.569  0.00  0.00    +0.338 C 
BRANCH  12  13
ATOM     13  O   UNL     1      33.394 -15.268 -27.050  0.00  0.00    -0.477 OA
ATOM     14  H   UNL     1      33.872 -15.860 -26.504  0.00  0.00    +0.295 HD
ENDBRANCH  12  13
ENDBRANCH  10  12
ENDBRANCH   1   9
TORSDOF 4
ENDMDL
