MODEL 1
REMARK VINA RESULT:      -6.2      0.000      0.000
REMARK  Name = 6994316
REMARK  5 active torsions:
REMARK  status: ('A' for Active; 'I' for Inactive)
REMARK    1  A    between atoms: CA_1  and  N_2
REMARK    2  A    between atoms: CA_1  and  C_8
REMARK    3  A    between atoms: CA_1  and  C_9
REMARK    4  A    between atoms: C_9  and  C_10
REMARK    5  A    between atoms: C_10  and  S_11
REMARK                            x       y       z     vdW  Elec       q    Type
REMARK                         _______ _______ _______ _____ _____    ______ ____
ROOT
ATOM      1  CA  UNL     1      38.770 -25.476 -14.386  0.00  0.00    +0.042 C 
ENDROOT
BRANCH   1   2
ATOM      2  N   UNL     1      38.231 -26.872 -14.360  0.00  0.00    +0.389 N 
ATOM      3  H1  UNL     1      38.866 -27.471 -13.834  0.00  0.00    -0.088 HD
ATOM      4  H2  UNL     1      38.147 -27.221 -15.315  0.00  0.00    -0.088 HD
ATOM      5  H3  UNL     1      37.313 -26.874 -13.916  0.00  0.00    -0.088 HD
ENDBRANCH   1   2
BRANCH   1   8
ATOM      6  O   UNL     1      40.968 -24.612 -14.183  0.00  0.00    -0.248 OA
ATOM      7  OXT UNL     1      40.532 -26.097 -15.859  0.00  0.00    -0.248 OA
ATOM      8  C   UNL     1      40.229 -25.381 -14.863  0.00  0.00    +0.345 C 
ENDBRANCH   1   8
BRANCH   1   9
ATOM      9  C   UNL     1      38.478 -24.811 -13.036  0.00  0.00    +0.014 C 
BRANCH   9  10
ATOM     10  C   UNL     1      37.378 -25.491 -12.227  0.00  0.00    +0.149 C 
BRANCH  10  11
ATOM     11  S   UNL     1      36.318 -24.300 -11.466  0.00  0.00    -0.008 S 
ATOM     12  O   UNL     1      35.412 -25.003 -10.575  0.00  0.00    -0.173 OA
ATOM     13  O   UNL     1      37.141 -23.208 -10.975  0.00  0.00    -0.173 OA
ATOM     14  C   UNL     1      35.358 -23.679 -12.828  0.00  0.00    +0.176 C 
ENDBRANCH  10  11
ENDBRANCH   9  10
ENDBRANCH   1   9
TORSDOF 5
ENDMDL
MODEL 2
REMARK VINA RESULT:      -6.1      1.022      1.610
REMARK  Name = 6994316
REMARK  5 active torsions:
REMARK  status: ('A' for Active; 'I' for Inactive)
REMARK    1  A    between atoms: CA_1  and  N_2
REMARK    2  A    between atoms: CA_1  and  C_8
REMARK    3  A    between atoms: CA_1  and  C_9
REMARK    4  A    between atoms: C_9  and  C_10
REMARK    5  A    between atoms: C_10  and  S_11
REMARK                            x       y       z     vdW  Elec       q    Type
REMARK                         _______ _______ _______ _____ _____    ______ ____
ROOT
ATOM      1  CA  UNL     1      38.753 -25.571 -14.409  0.00  0.00    +0.042 C 
ENDROOT
BRANCH   1   2
ATOM      2  N   UNL     1      38.192 -26.944 -14.609  0.00  0.00    +0.389 N 
ATOM      3  H1  UNL     1      37.837 -27.298 -13.721  0.00  0.00    -0.088 HD
ATOM      4  H2  UNL     1      38.925 -27.563 -14.953  0.00  0.00    -0.088 HD
ATOM      5  H3  UNL     1      37.432 -26.905 -15.288  0.00  0.00    -0.088 HD
ENDBRANCH   1   2
BRANCH   1   8
ATOM      6  O   UNL     1      40.554 -26.109 -15.854  0.00  0.00    -0.248 OA
ATOM      7  OXT UNL     1      40.928 -24.642 -14.148  0.00  0.00    -0.248 OA
ATOM      8  C   UNL     1      40.224 -25.432 -14.838  0.00  0.00    +0.345 C 
ENDBRANCH   1   8
BRANCH   1   9
ATOM      9  C   UNL     1      38.443 -25.116 -12.978  0.00  0.00    +0.014 C 
BRANCH   9  10
ATOM     10  C   UNL     1      37.247 -25.818 -12.343  0.00  0.00    +0.149 C 
BRANCH  10  11
ATOM     11  S   UNL     1      35.982 -24.660 -11.916  0.00  0.00    -0.008 S 
ATOM     12  O   UNL     1      35.145 -24.452 -13.085  0.00  0.00    -0.173 OA
ATOM     13  O   UNL     1      35.399 -25.071 -10.651  0.00  0.00    -0.173 OA
ATOM     14  C   UNL     1      36.885 -23.156 -11.628  0.00  0.00    +0.176 C 
ENDBRANCH  10  11
ENDBRANCH   9  10
ENDBRANCH   1   9
TORSDOF 5
ENDMDL
MODEL 3
REMARK VINA RESULT:      -6.1      2.307      2.575
REMARK  Name = 6994316
REMARK  5 active torsions:
REMARK  status: ('A' for Active; 'I' for Inactive)
REMARK    1  A    between atoms: CA_1  and  N_2
REMARK    2  A    between atoms: CA_1  and  C_8
REMARK    3  A    between atoms: CA_1  and  C_9
REMARK    4  A    between atoms: C_9  and  C_10
REMARK    5  A    between atoms: C_10  and  S_11
REMARK                            x       y       z     vdW  Elec       q    Type
REMARK                         _______ _______ _______ _____ _____    ______ ____
ROOT
ATOM      1  CA  UNL     1      36.802 -25.452 -14.744  0.00  0.00    +0.042 C 
ENDROOT
BRANCH   1   2
ATOM      2  N   UNL     1      35.315 -25.333 -14.619  0.00  0.00    +0.389 N 
ATOM      3  H1  UNL     1      34.871 -25.767 -15.427  0.00  0.00    -0.088 HD
ATOM      4  H2  UNL     1      35.056 -24.347 -14.577  0.00  0.00    -0.088 HD
ATOM      5  H3  UNL     1      35.007 -25.802 -13.768  0.00  0.00    -0.088 HD
ENDBRANCH   1   2
BRANCH   1   8
ATOM      6  O   UNL     1      38.290 -27.297 -14.716  0.00  0.00    -0.248 OA
ATOM      7  OXT UNL     1      36.583 -27.297 -16.229  0.00  0.00    -0.248 OA
ATOM      8  C   UNL     1      37.274 -26.810 -15.290  0.00  0.00    +0.345 C 
ENDBRANCH   1   8
BRANCH   1   9
ATOM      9  C   UNL     1      37.443 -25.021 -13.419  0.00  0.00    +0.014 C 
BRANCH   9  10
ATOM     10  C   UNL     1      36.677 -25.467 -12.178  0.00  0.00    +0.149 C 
BRANCH  10  11
ATOM     11  S   UNL     1      35.993 -24.082 -11.320  0.00  0.00    -0.008 S 
ATOM     12  O   UNL     1      34.746 -23.717 -11.971  0.00  0.00    -0.173 OA
ATOM     13  O   UNL     1      36.029 -24.367  -9.896  0.00  0.00    -0.173 OA
ATOM     14  C   UNL     1      37.165 -22.784 -11.639  0.00  0.00    +0.176 C 
ENDBRANCH  10  11
ENDBRANCH   9  10
ENDBRANCH   1   9
TORSDOF 5
ENDMDL
MODEL 4
REMARK VINA RESULT:      -6.0      2.332      2.795
REMARK  Name = 6994316
REMARK  5 active torsions:
REMARK  status: ('A' for Active; 'I' for Inactive)
REMARK    1  A    between atoms: CA_1  and  N_2
REMARK    2  A    between atoms: CA_1  and  C_8
REMARK    3  A    between atoms: CA_1  and  C_9
REMARK    4  A    between atoms: C_9  and  C_10
REMARK    5  A    between atoms: C_10  and  S_11
REMARK                            x       y       z     vdW  Elec       q    Type
REMARK                         _______ _______ _______ _____ _____    ______ ____
ROOT
ATOM      1  CA  UNL     1      37.778 -26.309 -14.555  0.00  0.00    +0.042 C 
ENDROOT
BRANCH   1   2
ATOM      2  N   UNL     1      38.780 -25.300 -15.022  0.00  0.00    +0.389 N 
ATOM      3  H1  UNL     1      39.528 -25.773 -15.527  0.00  0.00    -0.088 HD
ATOM      4  H2  UNL     1      39.171 -24.812 -14.215  0.00  0.00    -0.088 HD
ATOM      5  H3  UNL     1      38.324 -24.628 -15.638  0.00  0.00    -0.088 HD
ENDBRANCH   1   2
BRANCH   1   8
ATOM      6  O   UNL     1      36.751 -27.516 -16.318  0.00  0.00    -0.248 OA
ATOM      7  OXT UNL     1      35.648 -25.724 -15.438  0.00  0.00    -0.248 OA
ATOM      8  C   UNL     1      36.615 -26.530 -15.537  0.00  0.00    +0.345 C 
ENDBRANCH   1   8
BRANCH   1   9
ATOM      9  C   UNL     1      37.366 -25.965 -13.119  0.00  0.00    +0.014 C 
BRANCH   9  10
ATOM     10  C   UNL     1      38.281 -24.958 -12.428  0.00  0.00    +0.149 C 
BRANCH  10  11
ATOM     11  S   UNL     1      37.356 -23.601 -11.776  0.00  0.00    -0.008 S 
ATOM     12  O   UNL     1      36.766 -24.018 -10.516  0.00  0.00    -0.173 OA
ATOM     13  O   UNL     1      38.186 -22.411 -11.847  0.00  0.00    -0.173 OA
ATOM     14  C   UNL     1      36.034 -23.405 -12.950  0.00  0.00    +0.176 C 
ENDBRANCH  10  11
ENDBRANCH   9  10
ENDBRANCH   1   9
TORSDOF 5
ENDMDL
MODEL 5
REMARK VINA RESULT:      -5.8      2.277      4.769
REMARK  Name = 6994316
REMARK  5 active torsions:
REMARK  status: ('A' for Active; 'I' for Inactive)
REMARK    1  A    between atoms: CA_1  and  N_2
REMARK    2  A    between atoms: CA_1  and  C_8
REMARK    3  A    between atoms: CA_1  and  C_9
REMARK    4  A    between atoms: C_9  and  C_10
REMARK    5  A    between atoms: C_10  and  S_11
REMARK                            x       y       z     vdW  Elec       q    Type
REMARK                         _______ _______ _______ _____ _____    ______ ____
ROOT
ATOM      1  CA  UNL     1      36.113 -24.327 -12.203  0.00  0.00    +0.042 C 
ENDROOT
BRANCH   1   2
ATOM      2  N   UNL     1      36.141 -23.456 -13.420  0.00  0.00    +0.389 N 
ATOM      3  H1  UNL     1      35.750 -22.543 -13.192  0.00  0.00    -0.088 HD
ATOM      4  H2  UNL     1      35.586 -23.888 -14.159  0.00  0.00    -0.088 HD
ATOM      5  H3  UNL     1      37.103 -23.346 -13.737  0.00  0.00    -0.088 HD
ENDBRANCH   1   2
BRANCH   1   8
ATOM      6  O   UNL     1      36.190 -24.131  -9.842  0.00  0.00    -0.248 OA
ATOM      7  OXT UNL     1      37.386 -22.649 -11.098  0.00  0.00    -0.248 OA
ATOM      8  C   UNL     1      36.606 -23.627 -10.925  0.00  0.00    +0.345 C 
ENDBRANCH   1   8
BRANCH   1   9
ATOM      9  C   UNL     1      36.809 -25.654 -12.532  0.00  0.00    +0.014 C 
BRANCH   9  10
ATOM     10  C   UNL     1      38.312 -25.533 -12.759  0.00  0.00    +0.149 C 
BRANCH  10  11
ATOM     11  S   UNL     1      38.710 -25.672 -14.475  0.00  0.00    -0.008 S 
ATOM     12  O   UNL     1      38.785 -24.332 -15.032  0.00  0.00    -0.173 OA
ATOM     13  O   UNL     1      39.825 -26.593 -14.609  0.00  0.00    -0.173 OA
ATOM     14  C   UNL     1      37.274 -26.461 -15.165  0.00  0.00    +0.176 C 
ENDBRANCH  10  11
ENDBRANCH   9  10
ENDBRANCH   1   9
TORSDOF 5
ENDMDL
MODEL 6
REMARK VINA RESULT:      -5.8      2.484      4.871
REMARK  Name = 6994316
REMARK  5 active torsions:
REMARK  status: ('A' for Active; 'I' for Inactive)
REMARK    1  A    between atoms: CA_1  and  N_2
REMARK    2  A    between atoms: CA_1  and  C_8
REMARK    3  A    between atoms: CA_1  and  C_9
REMARK    4  A    between atoms: C_9  and  C_10
REMARK    5  A    between atoms: C_10  and  S_11
REMARK                            x       y       z     vdW  Elec       q    Type
REMARK                         _______ _______ _______ _____ _____    ______ ____
ROOT
ATOM      1  CA  UNL     1      36.743 -23.474 -11.958  0.00  0.00    +0.042 C 
ENDROOT
BRANCH   1   2
ATOM      2  N   UNL     1      38.199 -23.588 -11.629  0.00  0.00    +0.389 N 
ATOM      3  H1  UNL     1      38.553 -24.483 -11.965  0.00  0.00    -0.088 HD
ATOM      4  H2  UNL     1      38.323 -23.531 -10.618  0.00  0.00    -0.088 HD
ATOM      5  H3  UNL     1      38.709 -22.829 -12.078  0.00  0.00    -0.088 HD
ENDBRANCH   1   2
BRANCH   1   8
ATOM      6  O   UNL     1      34.891 -24.895 -11.547  0.00  0.00    -0.248 OA
ATOM      7  OXT UNL     1      36.120 -24.166  -9.769  0.00  0.00    -0.248 OA
ATOM      8  C   UNL     1      35.825 -24.246 -10.995  0.00  0.00    +0.345 C 
ENDBRANCH   1   8
BRANCH   1   9
ATOM      9  C   UNL     1      36.548 -23.794 -13.445  0.00  0.00    +0.014 C 
BRANCH   9  10
ATOM     10  C   UNL     1      37.820 -24.234 -14.163  0.00  0.00    +0.149 C 
BRANCH  10  11
ATOM     11  S   UNL     1      37.919 -25.996 -14.261  0.00  0.00    -0.008 S 
ATOM     12  O   UNL     1      39.097 -26.342 -15.038  0.00  0.00    -0.173 OA
ATOM     13  O   UNL     1      37.728 -26.536 -12.926  0.00  0.00    -0.173 OA
ATOM     14  C   UNL     1      36.491 -26.432 -15.227  0.00  0.00    +0.176 C 
ENDBRANCH  10  11
ENDBRANCH   9  10
ENDBRANCH   1   9
TORSDOF 5
ENDMDL
MODEL 7
REMARK VINA RESULT:      -5.6      2.144      2.592
REMARK  Name = 6994316
REMARK  5 active torsions:
REMARK  status: ('A' for Active; 'I' for Inactive)
REMARK    1  A    between atoms: CA_1  and  N_2
REMARK    2  A    between atoms: CA_1  and  C_8
REMARK    3  A    between atoms: CA_1  and  C_9
REMARK    4  A    between atoms: C_9  and  C_10
REMARK    5  A    between atoms: C_10  and  S_11
REMARK                            x       y       z     vdW  Elec       q    Type
REMARK                         _______ _______ _______ _____ _____    ______ ____
ROOT
ATOM      1  CA  UNL     1      36.143 -24.466 -14.907  0.00  0.00    +0.042 C 
ENDROOT
BRANCH   1   2
ATOM      2  N   UNL     1      35.604 -25.850 -14.725  0.00  0.00    +0.389 N 
ATOM      3  H1  UNL     1      35.095 -26.130 -15.563  0.00  0.00    -0.088 HD
ATOM      4  H2  UNL     1      34.973 -25.866 -13.923  0.00  0.00    -0.088 HD
ATOM      5  H3  UNL     1      36.375 -26.497 -14.563  0.00  0.00    -0.088 HD
ENDBRANCH   1   2
BRANCH   1   8
ATOM      6  O   UNL     1      38.148 -23.296 -15.386  0.00  0.00    -0.248 OA
ATOM      7  OXT UNL     1      38.294 -25.449 -14.650  0.00  0.00    -0.248 OA
ATOM      8  C   UNL     1      37.678 -24.403 -14.997  0.00  0.00    +0.345 C 
ENDBRANCH   1   8
BRANCH   1   9
ATOM      9  C   UNL     1      35.511 -23.550 -13.853  0.00  0.00    +0.014 C 
BRANCH   9  10
ATOM     10  C   UNL     1      34.863 -24.289 -12.687  0.00  0.00    +0.149 C 
BRANCH  10  11
ATOM     11  S   UNL     1      36.028 -24.580 -11.391  0.00  0.00    -0.008 S 
ATOM     12  O   UNL     1      35.332 -24.459 -10.121  0.00  0.00    -0.173 OA
ATOM     13  O   UNL     1      36.776 -25.783 -11.714  0.00  0.00    -0.173 OA
ATOM     14  C   UNL     1      37.142 -23.201 -11.526  0.00  0.00    +0.176 C 
ENDBRANCH  10  11
ENDBRANCH   9  10
ENDBRANCH   1   9
TORSDOF 5
ENDMDL
MODEL 8
REMARK VINA RESULT:      -5.5      2.811      4.401
REMARK  Name = 6994316
REMARK  5 active torsions:
REMARK  status: ('A' for Active; 'I' for Inactive)
REMARK    1  A    between atoms: CA_1  and  N_2
REMARK    2  A    between atoms: CA_1  and  C_8
REMARK    3  A    between atoms: CA_1  and  C_9
REMARK    4  A    between atoms: C_9  and  C_10
REMARK    5  A    between atoms: C_10  and  S_11
REMARK                            x       y       z     vdW  Elec       q    Type
REMARK                         _______ _______ _______ _____ _____    ______ ____
ROOT
ATOM      1  CA  UNL     1      36.535 -23.417 -12.905  0.00  0.00    +0.042 C 
ENDROOT
BRANCH   1   2
ATOM      2  N   UNL     1      37.001 -22.750 -14.162  0.00  0.00    +0.389 N 
ATOM      3  H1  UNL     1      36.364 -22.979 -14.924  0.00  0.00    -0.088 HD
ATOM      4  H2  UNL     1      37.939 -23.079 -14.392  0.00  0.00    -0.088 HD
ATOM      5  H3  UNL     1      37.019 -21.740 -14.024  0.00  0.00    -0.088 HD
ENDBRANCH   1   2
BRANCH   1   8
ATOM      6  O   UNL     1      37.692 -24.721 -11.300  0.00  0.00    -0.248 OA
ATOM      7  OXT UNL     1      38.371 -22.572 -11.650  0.00  0.00    -0.248 OA
ATOM      8  C   UNL     1      37.635 -23.580 -11.843  0.00  0.00    +0.345 C 
ENDBRANCH   1   8
BRANCH   1   9
ATOM      9  C   UNL     1      35.789 -24.703 -13.278  0.00  0.00    +0.014 C 
BRANCH   9  10
ATOM     10  C   UNL     1      36.004 -25.157 -14.718  0.00  0.00    +0.149 C 
BRANCH  10  11
ATOM     11  S   UNL     1      37.150 -26.501 -14.796  0.00  0.00    -0.008 S 
ATOM     12  O   UNL     1      37.143 -27.177 -13.510  0.00  0.00    -0.173 OA
ATOM     13  O   UNL     1      36.901 -27.239 -16.022  0.00  0.00    -0.173 OA
ATOM     14  C   UNL     1      38.722 -25.688 -14.967  0.00  0.00    +0.176 C 
ENDBRANCH  10  11
ENDBRANCH   9  10
ENDBRANCH   1   9
TORSDOF 5
ENDMDL
MODEL 9
REMARK VINA RESULT:      -5.5      7.092      8.785
REMARK  Name = 6994316
REMARK  5 active torsions:
REMARK  status: ('A' for Active; 'I' for Inactive)
REMARK    1  A    between atoms: CA_1  and  N_2
REMARK    2  A    between atoms: CA_1  and  C_8
REMARK    3  A    between atoms: CA_1  and  C_9
REMARK    4  A    between atoms: C_9  and  C_10
REMARK    5  A    between atoms: C_10  and  S_11
REMARK                            x       y       z     vdW  Elec       q    Type
REMARK                         _______ _______ _______ _____ _____    ______ ____
ROOT
ATOM      1  CA  UNL     1      31.689 -23.379 -14.781  0.00  0.00    +0.042 C 
ENDROOT
BRANCH   1   2
ATOM      2  N   UNL     1      31.951 -23.533 -16.247  0.00  0.00    +0.389 N 
ATOM      3  H1  UNL     1      32.889 -23.198 -16.461  0.00  0.00    -0.088 HD
ATOM      4  H2  UNL     1      31.267 -22.988 -16.772  0.00  0.00    -0.088 HD
ATOM      5  H3  UNL     1      31.872 -24.516 -16.505  0.00  0.00    -0.088 HD
ENDBRANCH   1   2
BRANCH   1   8
ATOM      6  O   UNL     1      31.671 -25.118 -13.170  0.00  0.00    -0.248 OA
ATOM      7  OXT UNL     1      33.674 -24.461 -14.040  0.00  0.00    -0.248 OA
ATOM      8  C   UNL     1      32.419 -24.414 -13.907  0.00  0.00    +0.345 C 
ENDBRANCH   1   8
BRANCH   1   9
ATOM      9  C   UNL     1      30.174 -23.287 -14.559  0.00  0.00    +0.014 C 
BRANCH   9  10
ATOM     10  C   UNL     1      29.351 -24.186 -15.476  0.00  0.00    +0.149 C 
BRANCH  10  11
ATOM     11  S   UNL     1      28.457 -23.234 -16.665  0.00  0.00    -0.008 S 
ATOM     12  O   UNL     1      29.360 -22.241 -17.223  0.00  0.00    -0.173 OA
ATOM     13  O   UNL     1      27.737 -24.150 -17.533  0.00  0.00    -0.173 OA
ATOM     14  C   UNL     1      27.255 -22.371 -15.678  0.00  0.00    +0.176 C 
ENDBRANCH  10  11
ENDBRANCH   9  10
ENDBRANCH   1   9
TORSDOF 5
ENDMDL
