MODEL 1
REMARK VINA RESULT:     -10.9      0.000      0.000
REMARK  Name = 66184
REMARK  0 active torsions:
REMARK  status: ('A' for Active; 'I' for Inactive)
REMARK                            x       y       z     vdW  Elec       q    Type
REMARK                         _______ _______ _______ _____ _____    ______ ____
ROOT
ATOM      1  O   UNL     1      38.582 -22.756 -11.950  0.00  0.00    -0.266 OA
ATOM      2  O   UNL     1      35.217 -24.925  -9.691  0.00  0.00    -0.193 OA
ATOM      3  N   UNL     1      34.427 -23.864 -14.161  0.00  0.00    -0.256 N 
ATOM      4  N   UNL     1      37.027 -22.736 -14.154  0.00  0.00    -0.396 NA
ATOM      5  N   UNL     1      34.826 -24.410 -11.873  0.00  0.00    -0.303 NA
ATOM      6  N   UNL     1      36.890 -23.855 -10.788  0.00  0.00    -0.196 N 
ATOM      7  C   UNL     1      34.935 -23.271 -15.338  0.00  0.00    +0.079 C 
ATOM      8  C   UNL     1      36.231 -22.717 -15.311  0.00  0.00    +0.127 C 
ATOM      9  C   UNL     1      35.200 -23.891 -13.006  0.00  0.00    +0.236 C 
ATOM     10  C   UNL     1      34.763 -22.606 -17.686  0.00  0.00    -0.028 C 
ATOM     11  C   UNL     1      34.216 -23.202 -16.547  0.00  0.00    +0.012 C 
ATOM     12  C   UNL     1      36.041 -22.065 -17.643  0.00  0.00    -0.041 C 
ATOM     13  C   UNL     1      36.771 -22.121 -16.460  0.00  0.00    +0.082 C 
ATOM     14  C   UNL     1      36.570 -23.276 -13.071  0.00  0.00    +0.230 C 
ATOM     15  C   UNL     1      33.082 -24.435 -14.201  0.00  0.00    +0.120 C 
ATOM     16  C   UNL     1      33.952 -22.562 -18.941  0.00  0.00    +0.030 C 
ATOM     17  C   UNL     1      36.649 -21.420 -18.845  0.00  0.00    +0.026 C 
ATOM     18  C   UNL     1      37.473 -23.259 -11.881  0.00  0.00    +0.293 C 
ATOM     19  C   UNL     1      35.616 -24.422 -10.744  0.00  0.00    +0.273 C 
ATOM     20  H   UNL     1      37.421 -23.884  -9.959  0.00  0.00    +0.169 HD
ENDROOT
TORSDOF 0
ENDMDL
MODEL 2
REMARK VINA RESULT:      -9.8      1.473      3.766
REMARK  Name = 66184
REMARK  0 active torsions:
REMARK  status: ('A' for Active; 'I' for Inactive)
REMARK                            x       y       z     vdW  Elec       q    Type
REMARK                         _______ _______ _______ _____ _____    ______ ____
ROOT
ATOM      1  O   UNL     1      35.253 -24.866 -10.078  0.00  0.00    -0.266 OA
ATOM      2  O   UNL     1      39.246 -23.345 -11.771  0.00  0.00    -0.193 OA
ATOM      3  N   UNL     1      35.527 -23.104 -14.572  0.00  0.00    -0.256 N 
ATOM      4  N   UNL     1      34.073 -24.241 -12.422  0.00  0.00    -0.396 NA
ATOM      5  N   UNL     1      37.434 -23.224 -13.143  0.00  0.00    -0.303 NA
ATOM      6  N   UNL     1      37.285 -24.102 -10.917  0.00  0.00    -0.196 N 
ATOM      7  C   UNL     1      34.145 -23.355 -14.719  0.00  0.00    +0.079 C 
ATOM      8  C   UNL     1      33.443 -23.921 -13.635  0.00  0.00    +0.127 C 
ATOM      9  C   UNL     1      36.169 -23.415 -13.379  0.00  0.00    +0.236 C 
ATOM     10  C   UNL     1      32.055 -23.336 -15.989  0.00  0.00    -0.028 C 
ATOM     11  C   UNL     1      33.423 -23.070 -15.894  0.00  0.00    +0.012 C 
ATOM     12  C   UNL     1      31.377 -23.893 -14.914  0.00  0.00    -0.041 C 
ATOM     13  C   UNL     1      32.068 -24.184 -13.742  0.00  0.00    +0.082 C 
ATOM     14  C   UNL     1      35.338 -24.015 -12.279  0.00  0.00    +0.230 C 
ATOM     15  C   UNL     1      36.246 -22.517 -15.702  0.00  0.00    +0.120 C 
ATOM     16  C   UNL     1      31.341 -23.013 -17.262  0.00  0.00    +0.030 C 
ATOM     17  C   UNL     1      29.916 -24.190 -14.990  0.00  0.00    +0.026 C 
ATOM     18  C   UNL     1      35.939 -24.380 -10.961  0.00  0.00    +0.293 C 
ATOM     19  C   UNL     1      38.042 -23.544 -11.948  0.00  0.00    +0.273 C 
ATOM     20  H   UNL     1      37.759 -24.315 -10.081  0.00  0.00    +0.169 HD
ENDROOT
TORSDOF 0
ENDMDL
MODEL 3
REMARK VINA RESULT:      -9.4      9.392     11.899
REMARK  Name = 66184
REMARK  0 active torsions:
REMARK  status: ('A' for Active; 'I' for Inactive)
REMARK                            x       y       z     vdW  Elec       q    Type
REMARK                         _______ _______ _______ _____ _____    ______ ____
ROOT
ATOM      1  O   UNL     1      34.808 -19.721 -24.560  0.00  0.00    -0.266 OA
ATOM      2  O   UNL     1      35.649 -19.748 -20.042  0.00  0.00    -0.193 OA
ATOM      3  N   UNL     1      34.540 -15.650 -21.967  0.00  0.00    -0.256 N 
ATOM      4  N   UNL     1      34.350 -17.066 -24.413  0.00  0.00    -0.396 NA
ATOM      5  N   UNL     1      35.107 -17.744 -20.976  0.00  0.00    -0.303 NA
ATOM      6  N   UNL     1      35.238 -19.756 -22.273  0.00  0.00    -0.196 N 
ATOM      7  C   UNL     1      34.196 -14.958 -23.149  0.00  0.00    +0.079 C 
ATOM      8  C   UNL     1      34.107 -15.685 -24.354  0.00  0.00    +0.127 C 
ATOM      9  C   UNL     1      34.785 -17.018 -22.004  0.00  0.00    +0.236 C 
ATOM     10  C   UNL     1      33.597 -12.937 -24.390  0.00  0.00    -0.028 C 
ATOM     11  C   UNL     1      33.934 -13.575 -23.194  0.00  0.00    +0.012 C 
ATOM     12  C   UNL     1      33.514 -13.666 -25.569  0.00  0.00    -0.041 C 
ATOM     13  C   UNL     1      33.768 -15.034 -25.550  0.00  0.00    +0.082 C 
ATOM     14  C   UNL     1      34.666 -17.708 -23.335  0.00  0.00    +0.230 C 
ATOM     15  C   UNL     1      34.629 -14.887 -20.722  0.00  0.00    +0.120 C 
ATOM     16  C   UNL     1      33.331 -11.467 -24.377  0.00  0.00    +0.030 C 
ATOM     17  C   UNL     1      33.157 -13.009 -26.861  0.00  0.00    +0.026 C 
ATOM     18  C   UNL     1      34.908 -19.175 -23.475  0.00  0.00    +0.293 C 
ATOM     19  C   UNL     1      35.344 -19.101 -21.046  0.00  0.00    +0.273 C 
ATOM     20  H   UNL     1      35.416 -20.725 -22.278  0.00  0.00    +0.169 HD
ENDROOT
TORSDOF 0
ENDMDL
MODEL 4
REMARK VINA RESULT:      -9.4      3.363      5.099
REMARK  Name = 66184
REMARK  0 active torsions:
REMARK  status: ('A' for Active; 'I' for Inactive)
REMARK                            x       y       z     vdW  Elec       q    Type
REMARK                         _______ _______ _______ _____ _____    ______ ____
ROOT
ATOM      1  O   UNL     1      29.568 -23.093 -16.823  0.00  0.00    -0.266 OA
ATOM      2  O   UNL     1      31.672 -25.160 -13.298  0.00  0.00    -0.193 OA
ATOM      3  N   UNL     1      34.390 -23.116 -16.487  0.00  0.00    -0.256 N 
ATOM      4  N   UNL     1      31.985 -22.407 -17.805  0.00  0.00    -0.396 NA
ATOM      5  N   UNL     1      33.004 -24.164 -14.852  0.00  0.00    -0.303 NA
ATOM      6  N   UNL     1      30.614 -24.146 -15.030  0.00  0.00    -0.196 N 
ATOM      7  C   UNL     1      34.445 -22.383 -17.692  0.00  0.00    +0.079 C 
ATOM      8  C   UNL     1      33.234 -22.041 -18.329  0.00  0.00    +0.127 C 
ATOM      9  C   UNL     1      33.163 -23.489 -15.952  0.00  0.00    +0.236 C 
ATOM     10  C   UNL     1      35.647 -21.243 -19.492  0.00  0.00    -0.028 C 
ATOM     11  C   UNL     1      35.647 -21.969 -18.298  0.00  0.00    +0.012 C 
ATOM     12  C   UNL     1      34.448 -20.914 -20.108  0.00  0.00    -0.041 C 
ATOM     13  C   UNL     1      33.247 -21.312 -19.528  0.00  0.00    +0.082 C 
ATOM     14  C   UNL     1      31.925 -23.080 -16.702  0.00  0.00    +0.230 C 
ATOM     15  C   UNL     1      35.651 -23.465 -15.834  0.00  0.00    +0.120 C 
ATOM     16  C   UNL     1      36.954 -20.832 -20.089  0.00  0.00    +0.030 C 
ATOM     17  C   UNL     1      34.420 -20.141 -21.385  0.00  0.00    +0.026 C 
ATOM     18  C   UNL     1      30.562 -23.432 -16.204  0.00  0.00    +0.293 C 
ATOM     19  C   UNL     1      31.772 -24.518 -14.347  0.00  0.00    +0.273 C 
ATOM     20  H   UNL     1      29.755 -24.420 -14.635  0.00  0.00    +0.169 HD
ENDROOT
TORSDOF 0
ENDMDL
MODEL 5
REMARK VINA RESULT:      -9.4     10.848     13.254
REMARK  Name = 66184
REMARK  0 active torsions:
REMARK  status: ('A' for Active; 'I' for Inactive)
REMARK                            x       y       z     vdW  Elec       q    Type
REMARK                         _______ _______ _______ _____ _____    ______ ____
ROOT
ATOM      1  O   UNL     1      33.759 -15.505 -26.459  0.00  0.00    -0.266 OA
ATOM      2  O   UNL     1      35.561 -18.901 -23.940  0.00  0.00    -0.193 OA
ATOM      3  N   UNL     1      33.651 -15.331 -21.629  0.00  0.00    -0.256 N 
ATOM      4  N   UNL     1      33.077 -14.236 -24.178  0.00  0.00    -0.396 NA
ATOM      5  N   UNL     1      34.629 -17.161 -22.806  0.00  0.00    -0.303 NA
ATOM      6  N   UNL     1      34.677 -17.235 -25.202  0.00  0.00    -0.196 N 
ATOM      7  C   UNL     1      32.990 -14.087 -21.722  0.00  0.00    +0.079 C 
ATOM      8  C   UNL     1      32.715 -13.562 -23.001  0.00  0.00    +0.127 C 
ATOM      9  C   UNL     1      34.019 -16.013 -22.783  0.00  0.00    +0.236 C 
ATOM     10  C   UNL     1      31.934 -12.108 -20.746  0.00  0.00    -0.028 C 
ATOM     11  C   UNL     1      32.586 -13.334 -20.602  0.00  0.00    +0.012 C 
ATOM     12  C   UNL     1      31.670 -11.604 -22.013  0.00  0.00    -0.041 C 
ATOM     13  C   UNL     1      32.059 -12.329 -23.135  0.00  0.00    +0.082 C 
ATOM     14  C   UNL     1      33.683 -15.376 -24.103  0.00  0.00    +0.230 C 
ATOM     15  C   UNL     1      33.931 -15.866 -20.297  0.00  0.00    +0.120 C 
ATOM     16  C   UNL     1      31.530 -11.353 -19.521  0.00  0.00    +0.030 C 
ATOM     17  C   UNL     1      30.976 -10.295 -22.196  0.00  0.00    +0.026 C 
ATOM     18  C   UNL     1      34.037 -16.034 -25.396  0.00  0.00    +0.293 C 
ATOM     19  C   UNL     1      34.981 -17.813 -23.969  0.00  0.00    +0.273 C 
ATOM     20  H   UNL     1      34.947 -17.734 -26.007  0.00  0.00    +0.169 HD
ENDROOT
TORSDOF 0
ENDMDL
MODEL 6
REMARK VINA RESULT:      -9.2      4.262      6.976
REMARK  Name = 66184
REMARK  0 active torsions:
REMARK  status: ('A' for Active; 'I' for Inactive)
REMARK                            x       y       z     vdW  Elec       q    Type
REMARK                         _______ _______ _______ _____ _____    ______ ____
ROOT
ATOM      1  O   UNL     1      32.622 -20.957 -20.520  0.00  0.00    -0.266 OA
ATOM      2  O   UNL     1      37.174 -21.136 -19.915  0.00  0.00    -0.193 OA
ATOM      3  N   UNL     1      34.519 -23.078 -16.612  0.00  0.00    -0.256 N 
ATOM      4  N   UNL     1      32.305 -22.272 -18.186  0.00  0.00    -0.396 NA
ATOM      5  N   UNL     1      35.883 -22.087 -18.299  0.00  0.00    -0.303 NA
ATOM      6  N   UNL     1      34.930 -21.037 -20.232  0.00  0.00    -0.196 N 
ATOM      7  C   UNL     1      33.208 -23.367 -16.174  0.00  0.00    +0.079 C 
ATOM      8  C   UNL     1      32.123 -22.956 -16.974  0.00  0.00    +0.127 C 
ATOM      9  C   UNL     1      34.721 -22.401 -17.809  0.00  0.00    +0.236 C 
ATOM     10  C   UNL     1      31.605 -24.311 -14.585  0.00  0.00    -0.028 C 
ATOM     11  C   UNL     1      32.920 -24.048 -14.975  0.00  0.00    +0.012 C 
ATOM     12  C   UNL     1      30.546 -23.900 -15.384  0.00  0.00    -0.041 C 
ATOM     13  C   UNL     1      30.805 -23.226 -16.573  0.00  0.00    +0.082 C 
ATOM     14  C   UNL     1      33.502 -22.002 -18.595  0.00  0.00    +0.230 C 
ATOM     15  C   UNL     1      35.637 -23.509 -15.774  0.00  0.00    +0.120 C 
ATOM     16  C   UNL     1      31.361 -25.036 -13.301  0.00  0.00    +0.030 C 
ATOM     17  C   UNL     1      29.131 -24.166 -14.990  0.00  0.00    +0.026 C 
ATOM     18  C   UNL     1      33.619 -21.273 -19.894  0.00  0.00    +0.293 C 
ATOM     19  C   UNL     1      36.050 -21.413 -19.490  0.00  0.00    +0.273 C 
ATOM     20  H   UNL     1      35.095 -20.557 -21.077  0.00  0.00    +0.169 HD
ENDROOT
TORSDOF 0
ENDMDL
MODEL 7
REMARK VINA RESULT:      -9.2      2.095      2.990
REMARK  Name = 66184
REMARK  0 active torsions:
REMARK  status: ('A' for Active; 'I' for Inactive)
REMARK                            x       y       z     vdW  Elec       q    Type
REMARK                         _______ _______ _______ _____ _____    ______ ____
ROOT
ATOM      1  O   UNL     1      38.757 -23.297 -15.568  0.00  0.00    -0.266 OA
ATOM      2  O   UNL     1      35.644 -25.375 -12.901  0.00  0.00    -0.193 OA
ATOM      3  N   UNL     1      34.048 -23.107 -16.649  0.00  0.00    -0.256 N 
ATOM      4  N   UNL     1      36.757 -22.465 -17.177  0.00  0.00    -0.396 NA
ATOM      5  N   UNL     1      34.859 -24.270 -14.730  0.00  0.00    -0.303 NA
ATOM      6  N   UNL     1      37.196 -24.355 -14.204  0.00  0.00    -0.196 N 
ATOM      7  C   UNL     1      34.374 -22.331 -17.783  0.00  0.00    +0.079 C 
ATOM      8  C   UNL     1      35.729 -22.025 -18.025  0.00  0.00    +0.127 C 
ATOM      9  C   UNL     1      35.052 -23.552 -15.797  0.00  0.00    +0.236 C 
ATOM     10  C   UNL     1      33.790 -21.078 -19.801  0.00  0.00    -0.028 C 
ATOM     11  C   UNL     1      33.417 -21.842 -18.693  0.00  0.00    +0.012 C 
ATOM     12  C   UNL     1      35.128 -20.785 -20.026  0.00  0.00    -0.041 C 
ATOM     13  C   UNL     1      36.093 -21.256 -19.141  0.00  0.00    +0.082 C 
ATOM     14  C   UNL     1      36.468 -23.176 -16.135  0.00  0.00    +0.230 C 
ATOM     15  C   UNL     1      32.640 -23.419 -16.407  0.00  0.00    +0.120 C 
ATOM     16  C   UNL     1      32.730 -20.586 -20.732  0.00  0.00    +0.030 C 
ATOM     17  C   UNL     1      35.555 -19.969 -21.201  0.00  0.00    +0.026 C 
ATOM     18  C   UNL     1      37.614 -23.610 -15.280  0.00  0.00    +0.293 C 
ATOM     19  C   UNL     1      35.877 -24.696 -13.904  0.00  0.00    +0.273 C 
ATOM     20  H   UNL     1      37.892 -24.680 -13.587  0.00  0.00    +0.169 HD
ENDROOT
TORSDOF 0
ENDMDL
MODEL 8
REMARK VINA RESULT:      -9.2     11.209     13.986
REMARK  Name = 66184
REMARK  0 active torsions:
REMARK  status: ('A' for Active; 'I' for Inactive)
REMARK                            x       y       z     vdW  Elec       q    Type
REMARK                         _______ _______ _______ _____ _____    ______ ____
ROOT
ATOM      1  O   UNL     1      33.564 -13.647 -27.727  0.00  0.00    -0.266 OA
ATOM      2  O   UNL     1      33.429 -10.446 -24.431  0.00  0.00    -0.193 OA
ATOM      3  N   UNL     1      34.208 -14.842 -23.087  0.00  0.00    -0.256 N 
ATOM      4  N   UNL     1      34.026 -15.513 -25.833  0.00  0.00    -0.396 NA
ATOM      5  N   UNL     1      33.810 -12.590 -23.769  0.00  0.00    -0.303 NA
ATOM      6  N   UNL     1      33.492 -12.011 -26.073  0.00  0.00    -0.196 N 
ATOM      7  C   UNL     1      34.362 -16.187 -23.489  0.00  0.00    +0.079 C 
ATOM      8  C   UNL     1      34.268 -16.496 -24.861  0.00  0.00    +0.127 C 
ATOM      9  C   UNL     1      33.967 -13.854 -24.034  0.00  0.00    +0.236 C 
ATOM     10  C   UNL     1      34.752 -18.559 -23.040  0.00  0.00    -0.028 C 
ATOM     11  C   UNL     1      34.606 -17.244 -22.592  0.00  0.00    +0.012 C 
ATOM     12  C   UNL     1      34.657 -18.848 -24.394  0.00  0.00    -0.041 C 
ATOM     13  C   UNL     1      34.416 -17.820 -25.301  0.00  0.00    +0.082 C 
ATOM     14  C   UNL     1      33.883 -14.278 -25.474  0.00  0.00    +0.230 C 
ATOM     15  C   UNL     1      34.307 -14.532 -21.661  0.00  0.00    +0.120 C 
ATOM     16  C   UNL     1      35.010 -19.640 -22.041  0.00  0.00    +0.030 C 
ATOM     17  C   UNL     1      34.807 -20.245 -24.900  0.00  0.00    +0.026 C 
ATOM     18  C   UNL     1      33.630 -13.288 -26.564  0.00  0.00    +0.293 C 
ATOM     19  C   UNL     1      33.572 -11.634 -24.732  0.00  0.00    +0.273 C 
ATOM     20  H   UNL     1      33.320 -11.296 -26.728  0.00  0.00    +0.169 HD
ENDROOT
TORSDOF 0
ENDMDL
MODEL 9
REMARK VINA RESULT:      -9.1      1.764      3.410
REMARK  Name = 66184
REMARK  0 active torsions:
REMARK  status: ('A' for Active; 'I' for Inactive)
REMARK                            x       y       z     vdW  Elec       q    Type
REMARK                         _______ _______ _______ _____ _____    ______ ____
ROOT
ATOM      1  O   UNL     1      32.272 -24.676 -13.829  0.00  0.00    -0.266 OA
ATOM      2  O   UNL     1      36.293 -25.159 -11.656  0.00  0.00    -0.193 OA
ATOM      3  N   UNL     1      36.372 -23.062 -15.819  0.00  0.00    -0.256 N 
ATOM      4  N   UNL     1      33.567 -23.465 -15.862  0.00  0.00    -0.396 NA
ATOM      5  N   UNL     1      36.338 -24.134 -13.688  0.00  0.00    -0.303 NA
ATOM      6  N   UNL     1      34.298 -24.931 -12.713  0.00  0.00    -0.196 N 
ATOM      7  C   UNL     1      35.619 -22.621 -16.930  0.00  0.00    +0.079 C 
ATOM      8  C   UNL     1      34.226 -22.832 -16.929  0.00  0.00    +0.127 C 
ATOM      9  C   UNL     1      35.738 -23.691 -14.754  0.00  0.00    +0.236 C 
ATOM     10  C   UNL     1      35.398 -21.558 -19.122  0.00  0.00    -0.028 C 
ATOM     11  C   UNL     1      36.186 -21.977 -18.047  0.00  0.00    +0.012 C 
ATOM     12  C   UNL     1      34.027 -21.773 -19.106  0.00  0.00    -0.041 C 
ATOM     13  C   UNL     1      33.444 -22.408 -18.014  0.00  0.00    +0.082 C 
ATOM     14  C   UNL     1      34.248 -23.873 -14.841  0.00  0.00    +0.230 C 
ATOM     15  C   UNL     1      37.817 -22.838 -15.831  0.00  0.00    +0.120 C 
ATOM     16  C   UNL     1      36.055 -20.881 -20.281  0.00  0.00    +0.030 C 
ATOM     17  C   UNL     1      33.162 -21.338 -20.243  0.00  0.00    +0.026 C 
ATOM     18  C   UNL     1      33.480 -24.536 -13.745  0.00  0.00    +0.293 C 
ATOM     19  C   UNL     1      35.681 -24.754 -12.648  0.00  0.00    +0.273 C 
ATOM     20  H   UNL     1      33.869 -25.379 -11.948  0.00  0.00    +0.169 HD
ENDROOT
TORSDOF 0
ENDMDL
