MODEL 1
REMARK VINA RESULT:     -10.1      0.000      0.000
REMARK  Name = 151075
REMARK  5 active torsions:
REMARK  status: ('A' for Active; 'I' for Inactive)
REMARK    1  A    between atoms: C_1  and  C_18
REMARK    2  A    between atoms: C_2  and  N_7
REMARK    3  A    between atoms: C_3  and  C_11
REMARK    4  A    between atoms: C_11  and  C_12
REMARK    5  A    between atoms: C_18  and  C_21
REMARK                            x       y       z     vdW  Elec       q    Type
REMARK                         _______ _______ _______ _____ _____    ______ ____
ROOT
ATOM      1  C   UNL     1      34.353 -15.755 -23.392  0.00  0.00    -0.000 C 
ATOM      2  C   UNL     1      34.887 -16.585 -22.407  0.00  0.00    +0.041 C 
ATOM      3  C   UNL     1      35.244 -17.869 -22.748  0.00  0.00    +0.052 C 
ATOM      4  C   UNL     1      34.191 -16.231 -24.693  0.00  0.00    -0.003 C 
ATOM      5  C   UNL     1      35.097 -18.368 -24.024  0.00  0.00    +0.004 C 
ATOM      6  C   UNL     1      34.563 -17.537 -25.009  0.00  0.00    -0.000 C 
ENDROOT
BRANCH   2   7
ATOM      7  N   UNL     1      35.052 -16.099 -21.088  0.00  0.00    -0.357 N 
ATOM      8  H   UNL     1      35.757 -15.442 -20.891  0.00  0.00    +0.142 HD
ATOM      9  H   UNL     1      34.461 -16.418 -20.369  0.00  0.00    +0.142 HD
ENDBRANCH   2   7
BRANCH   3  11
ATOM     10  O   UNL     1      37.043 -18.735 -21.529  0.00  0.00    -0.287 OA
ATOM     11  C   UNL     1      35.819 -18.787 -21.718  0.00  0.00    +0.197 C 
BRANCH  11  12
ATOM     12  C   UNL     1      34.997 -19.712 -20.954  0.00  0.00    +0.039 C 
ATOM     13  C   UNL     1      33.611 -19.562 -20.935  0.00  0.00    +0.003 C 
ATOM     14  C   UNL     1      35.597 -20.750 -20.239  0.00  0.00    +0.003 C 
ATOM     15  C   UNL     1      32.823 -20.450 -20.202  0.00  0.00    +0.000 C 
ATOM     16  C   UNL     1      34.809 -21.637 -19.507  0.00  0.00    +0.000 C 
ATOM     17  C   UNL     1      33.422 -21.487 -19.488  0.00  0.00    +0.000 C 
ENDBRANCH  11  12
ENDBRANCH   3  11
BRANCH   1  18
ATOM     18  C   UNL     1      33.947 -14.350 -23.084  0.00  0.00    +0.112 C 
BRANCH  18  21
ATOM     19  O   UNL     1      32.159 -15.075 -21.613  0.00  0.00    -0.275 OA
ATOM     20  N   UNL     1      31.908 -13.101 -22.762  0.00  0.00    -0.329 N 
ATOM     21  C   UNL     1      32.594 -14.242 -22.403  0.00  0.00    +0.224 C 
ATOM     22  H   UNL     1      31.017 -12.922 -22.383  0.00  0.00    +0.145 HD
ATOM     23  H   UNL     1      32.310 -12.465 -23.398  0.00  0.00    +0.145 HD
ENDBRANCH  18  21
ENDBRANCH   1  18
TORSDOF 5
ENDMDL
MODEL 2
REMARK VINA RESULT:     -10.0      0.072      1.111
REMARK  Name = 151075
REMARK  5 active torsions:
REMARK  status: ('A' for Active; 'I' for Inactive)
REMARK    1  A    between atoms: C_1  and  C_18
REMARK    2  A    between atoms: C_2  and  N_7
REMARK    3  A    between atoms: C_3  and  C_11
REMARK    4  A    between atoms: C_11  and  C_12
REMARK    5  A    between atoms: C_18  and  C_21
REMARK                            x       y       z     vdW  Elec       q    Type
REMARK                         _______ _______ _______ _____ _____    ______ ____
ROOT
ATOM      1  C   UNL     1      34.371 -15.822 -23.386  0.00  0.00    -0.000 C 
ATOM      2  C   UNL     1      34.896 -16.639 -22.386  0.00  0.00    +0.041 C 
ATOM      3  C   UNL     1      35.252 -17.929 -22.706  0.00  0.00    +0.052 C 
ATOM      4  C   UNL     1      34.217 -16.316 -24.682  0.00  0.00    -0.003 C 
ATOM      5  C   UNL     1      35.112 -18.446 -23.975  0.00  0.00    +0.004 C 
ATOM      6  C   UNL     1      34.587 -17.628 -24.976  0.00  0.00    -0.000 C 
ENDROOT
BRANCH   2   7
ATOM      7  N   UNL     1      35.052 -16.135 -21.073  0.00  0.00    -0.357 N 
ATOM      8  H   UNL     1      35.945 -16.110 -20.660  0.00  0.00    +0.142 HD
ATOM      9  H   UNL     1      34.270 -15.809 -20.574  0.00  0.00    +0.142 HD
ENDBRANCH   2   7
BRANCH   3  11
ATOM     10  O   UNL     1      37.036 -18.764 -21.445  0.00  0.00    -0.287 OA
ATOM     11  C   UNL     1      35.817 -18.833 -21.659  0.00  0.00    +0.197 C 
BRANCH  11  12
ATOM     12  C   UNL     1      34.991 -19.764 -20.906  0.00  0.00    +0.039 C 
ATOM     13  C   UNL     1      35.585 -20.806 -20.194  0.00  0.00    +0.003 C 
ATOM     14  C   UNL     1      33.604 -19.614 -20.896  0.00  0.00    +0.003 C 
ATOM     15  C   UNL     1      34.792 -21.698 -19.473  0.00  0.00    +0.000 C 
ATOM     16  C   UNL     1      32.812 -20.507 -20.174  0.00  0.00    +0.000 C 
ATOM     17  C   UNL     1      33.406 -21.549 -19.462  0.00  0.00    +0.000 C 
ENDBRANCH  11  12
ENDBRANCH   3  11
BRANCH   1  18
ATOM     18  C   UNL     1      33.966 -14.412 -23.102  0.00  0.00    +0.112 C 
BRANCH  18  21
ATOM     19  O   UNL     1      32.161 -15.115 -21.641  0.00  0.00    -0.275 OA
ATOM     20  N   UNL     1      31.933 -13.147 -22.805  0.00  0.00    -0.329 N 
ATOM     21  C   UNL     1      32.609 -14.290 -22.433  0.00  0.00    +0.224 C 
ATOM     22  H   UNL     1      31.041 -12.959 -22.435  0.00  0.00    +0.145 HD
ATOM     23  H   UNL     1      32.345 -12.518 -23.442  0.00  0.00    +0.145 HD
ENDBRANCH  18  21
ENDBRANCH   1  18
TORSDOF 5
ENDMDL
MODEL 3
REMARK VINA RESULT:      -9.6      2.531      6.398
REMARK  Name = 151075
REMARK  5 active torsions:
REMARK  status: ('A' for Active; 'I' for Inactive)
REMARK    1  A    between atoms: C_1  and  C_18
REMARK    2  A    between atoms: C_2  and  N_7
REMARK    3  A    between atoms: C_3  and  C_11
REMARK    4  A    between atoms: C_11  and  C_12
REMARK    5  A    between atoms: C_18  and  C_21
REMARK                            x       y       z     vdW  Elec       q    Type
REMARK                         _______ _______ _______ _____ _____    ______ ____
ROOT
ATOM      1  C   UNL     1      35.329 -20.990 -19.783  0.00  0.00    -0.000 C 
ATOM      2  C   UNL     1      35.614 -19.739 -20.330  0.00  0.00    +0.041 C 
ATOM      3  C   UNL     1      34.576 -18.982 -20.824  0.00  0.00    +0.052 C 
ATOM      4  C   UNL     1      34.013 -21.452 -19.745  0.00  0.00    -0.003 C 
ATOM      5  C   UNL     1      33.266 -19.411 -20.800  0.00  0.00    +0.004 C 
ATOM      6  C   UNL     1      32.982 -20.663 -20.254  0.00  0.00    -0.000 C 
ENDROOT
BRANCH   2   7
ATOM      7  N   UNL     1      36.948 -19.272 -20.366  0.00  0.00    -0.357 N 
ATOM      8  H   UNL     1      37.544 -19.543 -21.101  0.00  0.00    +0.142 HD
ATOM      9  H   UNL     1      37.281 -18.675 -19.658  0.00  0.00    +0.142 HD
ENDBRANCH   2   7
BRANCH   3  11
ATOM     10  O   UNL     1      35.252 -16.750 -20.654  0.00  0.00    -0.287 OA
ATOM     11  C   UNL     1      34.844 -17.637 -21.416  0.00  0.00    +0.197 C 
BRANCH  11  12
ATOM     12  C   UNL     1      34.642 -17.355 -22.829  0.00  0.00    +0.039 C 
ATOM     13  C   UNL     1      34.782 -18.373 -23.772  0.00  0.00    +0.003 C 
ATOM     14  C   UNL     1      34.307 -16.064 -23.240  0.00  0.00    +0.003 C 
ATOM     15  C   UNL     1      34.589 -18.100 -25.126  0.00  0.00    +0.000 C 
ATOM     16  C   UNL     1      34.113 -15.792 -24.594  0.00  0.00    +0.000 C 
ATOM     17  C   UNL     1      34.254 -16.811 -25.538  0.00  0.00    +0.000 C 
ENDBRANCH  11  12
ENDBRANCH   3  11
BRANCH   1  18
ATOM     18  C   UNL     1      36.413 -21.858 -19.231  0.00  0.00    +0.112 C 
BRANCH  18  21
ATOM     19  O   UNL     1      35.929 -22.741 -17.023  0.00  0.00    -0.275 OA
ATOM     20  N   UNL     1      37.184 -20.823 -17.192  0.00  0.00    -0.329 N 
ATOM     21  C   UNL     1      36.464 -21.877 -17.713  0.00  0.00    +0.224 C 
ATOM     22  H   UNL     1      37.287 -20.730 -16.218  0.00  0.00    +0.145 HD
ATOM     23  H   UNL     1      37.595 -20.162 -17.796  0.00  0.00    +0.145 HD
ENDBRANCH  18  21
ENDBRANCH   1  18
TORSDOF 5
ENDMDL
MODEL 4
REMARK VINA RESULT:      -9.5      2.702      6.363
REMARK  Name = 151075
REMARK  5 active torsions:
REMARK  status: ('A' for Active; 'I' for Inactive)
REMARK    1  A    between atoms: C_1  and  C_18
REMARK    2  A    between atoms: C_2  and  N_7
REMARK    3  A    between atoms: C_3  and  C_11
REMARK    4  A    between atoms: C_11  and  C_12
REMARK    5  A    between atoms: C_18  and  C_21
REMARK                            x       y       z     vdW  Elec       q    Type
REMARK                         _______ _______ _______ _____ _____    ______ ____
ROOT
ATOM      1  C   UNL     1      35.612 -20.931 -19.863  0.00  0.00    -0.000 C 
ATOM      2  C   UNL     1      35.896 -19.891 -20.748  0.00  0.00    +0.041 C 
ATOM      3  C   UNL     1      34.849 -19.245 -21.365  0.00  0.00    +0.052 C 
ATOM      4  C   UNL     1      34.289 -21.296 -19.617  0.00  0.00    -0.003 C 
ATOM      5  C   UNL     1      33.532 -19.583 -21.143  0.00  0.00    +0.004 C 
ATOM      6  C   UNL     1      33.249 -20.624 -20.257  0.00  0.00    -0.000 C 
ENDROOT
BRANCH   2   7
ATOM      7  N   UNL     1      37.239 -19.521 -20.995  0.00  0.00    -0.357 N 
ATOM      8  H   UNL     1      37.461 -18.974 -21.782  0.00  0.00    +0.142 HD
ATOM      9  H   UNL     1      37.950 -19.808 -20.379  0.00  0.00    +0.142 HD
ENDBRANCH   2   7
BRANCH   3  11
ATOM     10  O   UNL     1      35.756 -18.396 -23.347  0.00  0.00    -0.287 OA
ATOM     11  C   UNL     1      35.116 -18.127 -22.320  0.00  0.00    +0.197 C 
BRANCH  11  12
ATOM     12  C   UNL     1      34.653 -16.770 -22.079  0.00  0.00    +0.039 C 
ATOM     13  C   UNL     1      34.730 -16.223 -20.798  0.00  0.00    +0.003 C 
ATOM     14  C   UNL     1      34.132 -16.014 -23.130  0.00  0.00    +0.003 C 
ATOM     15  C   UNL     1      34.286 -14.921 -20.568  0.00  0.00    +0.000 C 
ATOM     16  C   UNL     1      33.688 -14.712 -22.899  0.00  0.00    +0.000 C 
ATOM     17  C   UNL     1      33.765 -14.165 -21.618  0.00  0.00    +0.000 C 
ENDBRANCH  11  12
ENDBRANCH   3  11
BRANCH   1  18
ATOM     18  C   UNL     1      36.705 -21.670 -19.161  0.00  0.00    +0.112 C 
BRANCH  18  21
ATOM     19  O   UNL     1      35.822 -22.618 -17.110  0.00  0.00    -0.275 OA
ATOM     20  N   UNL     1      37.202 -20.786 -16.973  0.00  0.00    -0.329 N 
ATOM     21  C   UNL     1      36.512 -21.763 -17.658  0.00  0.00    +0.224 C 
ATOM     22  H   UNL     1      37.153 -20.745 -15.990  0.00  0.00    +0.145 HD
ATOM     23  H   UNL     1      37.744 -20.128 -17.466  0.00  0.00    +0.145 HD
ENDBRANCH  18  21
ENDBRANCH   1  18
TORSDOF 5
ENDMDL
MODEL 5
REMARK VINA RESULT:      -9.3      1.688      2.550
REMARK  Name = 151075
REMARK  5 active torsions:
REMARK  status: ('A' for Active; 'I' for Inactive)
REMARK    1  A    between atoms: C_1  and  C_18
REMARK    2  A    between atoms: C_2  and  N_7
REMARK    3  A    between atoms: C_3  and  C_11
REMARK    4  A    between atoms: C_11  and  C_12
REMARK    5  A    between atoms: C_18  and  C_21
REMARK                            x       y       z     vdW  Elec       q    Type
REMARK                         _______ _______ _______ _____ _____    ______ ____
ROOT
ATOM      1  C   UNL     1      34.044 -14.886 -22.912  0.00  0.00    -0.000 C 
ATOM      2  C   UNL     1      34.444 -16.211 -23.081  0.00  0.00    +0.041 C 
ATOM      3  C   UNL     1      34.849 -16.926 -21.976  0.00  0.00    +0.052 C 
ATOM      4  C   UNL     1      34.059 -14.310 -21.641  0.00  0.00    -0.003 C 
ATOM      5  C   UNL     1      34.875 -16.384 -20.710  0.00  0.00    +0.004 C 
ATOM      6  C   UNL     1      34.474 -15.058 -20.540  0.00  0.00    -0.000 C 
ENDROOT
BRANCH   2   7
ATOM      7  N   UNL     1      34.427 -16.795 -24.370  0.00  0.00    -0.357 N 
ATOM      8  H   UNL     1      34.389 -17.773 -24.466  0.00  0.00    +0.142 HD
ATOM      9  H   UNL     1      34.451 -16.222 -25.169  0.00  0.00    +0.142 HD
ENDBRANCH   2   7
BRANCH   3  11
ATOM     10  O   UNL     1      36.086 -18.608 -23.029  0.00  0.00    -0.287 OA
ATOM     11  C   UNL     1      35.284 -18.347 -22.121  0.00  0.00    +0.197 C 
BRANCH  11  12
ATOM     12  C   UNL     1      34.803 -19.402 -21.243  0.00  0.00    +0.039 C 
ATOM     13  C   UNL     1      35.710 -20.227 -20.580  0.00  0.00    +0.003 C 
ATOM     14  C   UNL     1      33.431 -19.588 -21.065  0.00  0.00    +0.003 C 
ATOM     15  C   UNL     1      35.247 -21.239 -19.738  0.00  0.00    +0.000 C 
ATOM     16  C   UNL     1      32.969 -20.599 -20.222  0.00  0.00    +0.000 C 
ATOM     17  C   UNL     1      33.877 -21.425 -19.559  0.00  0.00    +0.000 C 
ENDBRANCH  11  12
ENDBRANCH   3  11
BRANCH   1  18
ATOM     18  C   UNL     1      33.593 -14.059 -24.072  0.00  0.00    +0.112 C 
BRANCH  18  21
ATOM     19  O   UNL     1      32.418 -12.189 -23.067  0.00  0.00    -0.275 OA
ATOM     20  N   UNL     1      34.354 -11.776 -24.234  0.00  0.00    -0.329 N 
ATOM     21  C   UNL     1      33.369 -12.597 -23.728  0.00  0.00    +0.224 C 
ATOM     22  H   UNL     1      34.315 -10.805 -24.076  0.00  0.00    +0.145 HD
ATOM     23  H   UNL     1      35.096 -12.160 -24.755  0.00  0.00    +0.145 HD
ENDBRANCH  18  21
ENDBRANCH   1  18
TORSDOF 5
ENDMDL
MODEL 6
REMARK VINA RESULT:      -9.3      5.564      8.898
REMARK  Name = 151075
REMARK  5 active torsions:
REMARK  status: ('A' for Active; 'I' for Inactive)
REMARK    1  A    between atoms: C_1  and  C_18
REMARK    2  A    between atoms: C_2  and  N_7
REMARK    3  A    between atoms: C_3  and  C_11
REMARK    4  A    between atoms: C_11  and  C_12
REMARK    5  A    between atoms: C_18  and  C_21
REMARK                            x       y       z     vdW  Elec       q    Type
REMARK                         _______ _______ _______ _____ _____    ______ ____
ROOT
ATOM      1  C   UNL     1      32.387 -23.136 -15.337  0.00  0.00    -0.000 C 
ATOM      2  C   UNL     1      32.491 -23.087 -16.727  0.00  0.00    +0.041 C 
ATOM      3  C   UNL     1      33.744 -23.069 -17.296  0.00  0.00    +0.052 C 
ATOM      4  C   UNL     1      33.540 -23.167 -14.552  0.00  0.00    -0.003 C 
ATOM      5  C   UNL     1      34.900 -23.099 -16.547  0.00  0.00    +0.004 C 
ATOM      6  C   UNL     1      34.797 -23.148 -15.156  0.00  0.00    -0.000 C 
ENDROOT
BRANCH   2   7
ATOM      7  N   UNL     1      31.320 -23.057 -17.521  0.00  0.00    -0.357 N 
ATOM      8  H   UNL     1      31.308 -23.511 -18.394  0.00  0.00    +0.142 HD
ATOM      9  H   UNL     1      30.520 -22.585 -17.200  0.00  0.00    +0.142 HD
ENDBRANCH   2   7
BRANCH   3  11
ATOM     10  O   UNL     1      33.814 -24.087 -19.400  0.00  0.00    -0.287 OA
ATOM     11  C   UNL     1      33.893 -23.016 -18.781  0.00  0.00    +0.197 C 
BRANCH  11  12
ATOM     12  C   UNL     1      34.120 -21.771 -19.497  0.00  0.00    +0.039 C 
ATOM     13  C   UNL     1      33.038 -20.985 -19.892  0.00  0.00    +0.003 C 
ATOM     14  C   UNL     1      35.423 -21.362 -19.788  0.00  0.00    +0.003 C 
ATOM     15  C   UNL     1      33.258 -19.791 -20.579  0.00  0.00    +0.000 C 
ATOM     16  C   UNL     1      35.641 -20.168 -20.473  0.00  0.00    +0.000 C 
ATOM     17  C   UNL     1      34.559 -19.382 -20.870  0.00  0.00    +0.000 C 
ENDBRANCH  11  12
ENDBRANCH   3  11
BRANCH   1  18
ATOM     18  C   UNL     1      31.055 -23.158 -14.660  0.00  0.00    +0.112 C 
BRANCH  18  21
ATOM     19  O   UNL     1      30.078 -25.246 -15.417  0.00  0.00    -0.275 OA
ATOM     20  N   UNL     1      30.469 -24.963 -13.170  0.00  0.00    -0.329 N 
ATOM     21  C   UNL     1      30.482 -24.553 -14.486  0.00  0.00    +0.224 C 
ATOM     22  H   UNL     1      30.119 -25.852 -12.934  0.00  0.00    +0.145 HD
ATOM     23  H   UNL     1      30.810 -24.364 -12.465  0.00  0.00    +0.145 HD
ENDBRANCH  18  21
ENDBRANCH   1  18
TORSDOF 5
ENDMDL
MODEL 7
REMARK VINA RESULT:      -9.2      3.137      5.296
REMARK  Name = 151075
REMARK  5 active torsions:
REMARK  status: ('A' for Active; 'I' for Inactive)
REMARK    1  A    between atoms: C_1  and  C_18
REMARK    2  A    between atoms: C_2  and  N_7
REMARK    3  A    between atoms: C_3  and  C_11
REMARK    4  A    between atoms: C_11  and  C_12
REMARK    5  A    between atoms: C_18  and  C_21
REMARK                            x       y       z     vdW  Elec       q    Type
REMARK                         _______ _______ _______ _____ _____    ______ ____
ROOT
ATOM      1  C   UNL     1      34.882 -19.740 -20.670  0.00  0.00    -0.000 C 
ATOM      2  C   UNL     1      34.147 -20.818 -20.178  0.00  0.00    +0.041 C 
ATOM      3  C   UNL     1      34.802 -21.788 -19.453  0.00  0.00    +0.052 C 
ATOM      4  C   UNL     1      36.253 -19.659 -20.424  0.00  0.00    -0.003 C 
ATOM      5  C   UNL     1      36.154 -21.736 -19.194  0.00  0.00    +0.004 C 
ATOM      6  C   UNL     1      36.889 -20.657 -19.686  0.00  0.00    -0.000 C 
ENDROOT
BRANCH   2   7
ATOM      7  N   UNL     1      32.757 -20.897 -20.427  0.00  0.00    -0.357 N 
ATOM      8  H   UNL     1      32.359 -20.375 -21.160  0.00  0.00    +0.142 HD
ATOM      9  H   UNL     1      32.189 -21.474 -19.869  0.00  0.00    +0.142 HD
ENDBRANCH   2   7
BRANCH   3  11
ATOM     10  O   UNL     1      33.813 -23.893 -19.688  0.00  0.00    -0.287 OA
ATOM     11  C   UNL     1      34.047 -22.957 -18.911  0.00  0.00    +0.197 C 
BRANCH  11  12
ATOM     12  C   UNL     1      33.594 -23.019 -17.530  0.00  0.00    +0.039 C 
ATOM     13  C   UNL     1      32.231 -22.968 -17.240  0.00  0.00    +0.003 C 
ATOM     14  C   UNL     1      34.524 -23.131 -16.496  0.00  0.00    +0.003 C 
ATOM     15  C   UNL     1      31.797 -23.028 -15.915  0.00  0.00    +0.000 C 
ATOM     16  C   UNL     1      34.090 -23.191 -15.172  0.00  0.00    +0.000 C 
ATOM     17  C   UNL     1      32.726 -23.139 -14.881  0.00  0.00    +0.000 C 
ENDBRANCH  11  12
ENDBRANCH   3  11
BRANCH   1  18
ATOM     18  C   UNL     1      34.229 -18.655 -21.463  0.00  0.00    +0.112 C 
BRANCH  18  21
ATOM     19  O   UNL     1      34.700 -19.256 -23.766  0.00  0.00    -0.275 OA
ATOM     20  N   UNL     1      35.543 -17.281 -22.948  0.00  0.00    -0.329 N 
ATOM     21  C   UNL     1      34.833 -18.458 -22.842  0.00  0.00    +0.224 C 
ATOM     22  H   UNL     1      35.981 -17.045 -23.797  0.00  0.00    +0.145 HD
ATOM     23  H   UNL     1      35.612 -16.676 -22.173  0.00  0.00    +0.145 HD
ENDBRANCH  18  21
ENDBRANCH   1  18
TORSDOF 5
ENDMDL
MODEL 8
REMARK VINA RESULT:      -9.1      3.011      6.527
REMARK  Name = 151075
REMARK  5 active torsions:
REMARK  status: ('A' for Active; 'I' for Inactive)
REMARK    1  A    between atoms: C_1  and  C_18
REMARK    2  A    between atoms: C_2  and  N_7
REMARK    3  A    between atoms: C_3  and  C_11
REMARK    4  A    between atoms: C_11  and  C_12
REMARK    5  A    between atoms: C_18  and  C_21
REMARK                            x       y       z     vdW  Elec       q    Type
REMARK                         _______ _______ _______ _____ _____    ______ ____
ROOT
ATOM      1  C   UNL     1      34.253 -21.157 -19.565  0.00  0.00    -0.000 C 
ATOM      2  C   UNL     1      33.939 -20.283 -20.605  0.00  0.00    +0.041 C 
ATOM      3  C   UNL     1      34.965 -19.640 -21.259  0.00  0.00    +0.052 C 
ATOM      4  C   UNL     1      35.585 -21.366 -19.207  0.00  0.00    -0.003 C 
ATOM      5  C   UNL     1      36.290 -19.825 -20.929  0.00  0.00    +0.004 C 
ATOM      6  C   UNL     1      36.603 -20.700 -19.888  0.00  0.00    -0.000 C 
ENDROOT
BRANCH   2   7
ATOM      7  N   UNL     1      32.588 -20.074 -20.968  0.00  0.00    -0.357 N 
ATOM      8  H   UNL     1      31.944 -19.748 -20.298  0.00  0.00    +0.142 HD
ATOM      9  H   UNL     1      32.292 -20.252 -21.889  0.00  0.00    +0.142 HD
ENDBRANCH   2   7
BRANCH   3  11
ATOM     10  O   UNL     1      34.472 -19.185 -23.500  0.00  0.00    -0.287 OA
ATOM     11  C   UNL     1      34.666 -18.695 -22.378  0.00  0.00    +0.197 C 
BRANCH  11  12
ATOM     12  C   UNL     1      34.597 -17.256 -22.184  0.00  0.00    +0.039 C 
ATOM     13  C   UNL     1      34.551 -16.726 -20.895  0.00  0.00    +0.003 C 
ATOM     14  C   UNL     1      34.579 -16.404 -23.290  0.00  0.00    +0.003 C 
ATOM     15  C   UNL     1      34.486 -15.345 -20.711  0.00  0.00    +0.000 C 
ATOM     16  C   UNL     1      34.514 -15.023 -23.105  0.00  0.00    +0.000 C 
ATOM     17  C   UNL     1      34.467 -14.493 -21.815  0.00  0.00    +0.000 C 
ENDBRANCH  11  12
ENDBRANCH   3  11
BRANCH   1  18
ATOM     18  C   UNL     1      33.184 -21.886 -18.817  0.00  0.00    +0.112 C 
BRANCH  18  21
ATOM     19  O   UNL     1      33.794 -24.209 -19.162  0.00  0.00    -0.275 OA
ATOM     20  N   UNL     1      33.704 -23.401 -17.013  0.00  0.00    -0.329 N 
ATOM     21  C   UNL     1      33.587 -23.283 -18.382  0.00  0.00    +0.224 C 
ATOM     22  H   UNL     1      33.961 -24.262 -16.612  0.00  0.00    +0.145 HD
ATOM     23  H   UNL     1      33.529 -22.622 -16.436  0.00  0.00    +0.145 HD
ENDBRANCH  18  21
ENDBRANCH   1  18
TORSDOF 5
ENDMDL
MODEL 9
REMARK VINA RESULT:      -9.0      1.864      2.316
REMARK  Name = 151075
REMARK  5 active torsions:
REMARK  status: ('A' for Active; 'I' for Inactive)
REMARK    1  A    between atoms: C_1  and  C_18
REMARK    2  A    between atoms: C_2  and  N_7
REMARK    3  A    between atoms: C_3  and  C_11
REMARK    4  A    between atoms: C_11  and  C_12
REMARK    5  A    between atoms: C_18  and  C_21
REMARK                            x       y       z     vdW  Elec       q    Type
REMARK                         _______ _______ _______ _____ _____    ______ ____
ROOT
ATOM      1  C   UNL     1      33.552 -15.235 -24.454  0.00  0.00    -0.000 C 
ATOM      2  C   UNL     1      33.785 -15.595 -23.127  0.00  0.00    +0.041 C 
ATOM      3  C   UNL     1      34.533 -16.721 -22.870  0.00  0.00    +0.052 C 
ATOM      4  C   UNL     1      34.074 -16.010 -25.489  0.00  0.00    -0.003 C 
ATOM      5  C   UNL     1      35.062 -17.507 -23.871  0.00  0.00    +0.004 C 
ATOM      6  C   UNL     1      34.828 -17.146 -25.198  0.00  0.00    -0.000 C 
ENDROOT
BRANCH   2   7
ATOM      7  N   UNL     1      33.256 -14.806 -22.078  0.00  0.00    -0.357 N 
ATOM      8  H   UNL     1      33.821 -14.570 -21.308  0.00  0.00    +0.142 HD
ATOM      9  H   UNL     1      32.325 -14.493 -22.119  0.00  0.00    +0.142 HD
ENDBRANCH   2   7
BRANCH   3  11
ATOM     10  O   UNL     1      35.159 -16.256 -20.665  0.00  0.00    -0.287 OA
ATOM     11  C   UNL     1      34.802 -17.137 -21.460  0.00  0.00    +0.197 C 
BRANCH  11  12
ATOM     12  C   UNL     1      34.658 -18.514 -21.014  0.00  0.00    +0.039 C 
ATOM     13  C   UNL     1      35.790 -19.288 -20.759  0.00  0.00    +0.003 C 
ATOM     14  C   UNL     1      33.386 -19.060 -20.840  0.00  0.00    +0.003 C 
ATOM     15  C   UNL     1      35.651 -20.608 -20.331  0.00  0.00    +0.000 C 
ATOM     16  C   UNL     1      33.247 -20.381 -20.411  0.00  0.00    +0.000 C 
ATOM     17  C   UNL     1      34.380 -21.155 -20.157  0.00  0.00    +0.000 C 
ENDBRANCH  11  12
ENDBRANCH   3  11
BRANCH   1  18
ATOM     18  C   UNL     1      32.748 -14.023 -24.797  0.00  0.00    +0.112 C 
BRANCH  18  21
ATOM     19  O   UNL     1      33.989 -12.208 -23.771  0.00  0.00    -0.275 OA
ATOM     20  N   UNL     1      33.747 -12.223 -26.056  0.00  0.00    -0.329 N 
ATOM     21  C   UNL     1      33.553 -12.735 -24.790  0.00  0.00    +0.224 C 
ATOM     22  H   UNL     1      34.255 -11.389 -26.177  0.00  0.00    +0.145 HD
ATOM     23  H   UNL     1      33.376 -12.692 -26.839  0.00  0.00    +0.145 HD
ENDBRANCH  18  21
ENDBRANCH   1  18
TORSDOF 5
ENDMDL
