MODEL 1
REMARK VINA RESULT:      -8.8      0.000      0.000
REMARK  Name = 76961482
REMARK  5 active torsions:
REMARK  status: ('A' for Active; 'I' for Inactive)
REMARK    1  A    between atoms: N_2  and  C_12
REMARK    2  A    between atoms: C_3  and  C_18
REMARK    3  A    between atoms: C_18  and  C_19
REMARK    4  A    between atoms: C_19  and  C_20
REMARK    5  A    between atoms: C_20  and  N_21
REMARK                            x       y       z     vdW  Elec       q    Type
REMARK                         _______ _______ _______ _____ _____    ______ ____
ROOT
ATOM      1  O   UNL     1      34.568 -24.784 -11.714  0.00  0.00    -0.274 OA
ATOM      2  N   UNL     1      34.337 -23.842 -13.888  0.00  0.00    -0.237 N 
ATOM      3  C   UNL     1      36.519 -23.955 -12.936  0.00  0.00    +0.090 C 
ATOM      4  C   UNL     1      36.532 -23.348 -14.314  0.00  0.00    -0.001 C 
ATOM      5  C   UNL     1      35.023 -24.280 -12.734  0.00  0.00    +0.236 C 
ATOM      6  C   UNL     1      35.236 -23.312 -14.841  0.00  0.00    +0.055 C 
ATOM      7  C   UNL     1      36.972 -22.952 -11.874  0.00  0.00    +0.014 C 
ATOM      8  C   UNL     1      37.624 -22.897 -15.045  0.00  0.00    -0.003 C 
ATOM      9  C   UNL     1      35.025 -22.879 -16.143  0.00  0.00    +0.015 C 
ATOM     10  C   UNL     1      37.409 -22.423 -16.338  0.00  0.00    -0.000 C 
ATOM     11  C   UNL     1      36.121 -22.423 -16.885  0.00  0.00    +0.001 C 
ENDROOT
BRANCH   2  12
ATOM     12  C   UNL     1      32.929 -23.917 -14.060  0.00  0.00    +0.058 C 
ATOM     13  C   UNL     1      32.271 -25.137 -13.899  0.00  0.00    +0.015 C 
ATOM     14  C   UNL     1      32.204 -22.772 -14.389  0.00  0.00    +0.015 C 
ATOM     15  C   UNL     1      30.889 -25.212 -14.068  0.00  0.00    +0.001 C 
ATOM     16  C   UNL     1      30.822 -22.847 -14.558  0.00  0.00    +0.001 C 
ATOM     17  C   UNL     1      30.165 -24.066 -14.398  0.00  0.00    +0.000 C 
ENDBRANCH   2  12
BRANCH   3  18
ATOM     18  C   UNL     1      37.333 -25.246 -12.870  0.00  0.00    +0.011 C 
BRANCH  18  19
ATOM     19  C   UNL     1      36.928 -26.213 -13.980  0.00  0.00    -0.023 C 
BRANCH  19  20
ATOM     20  C   UNL     1      38.140 -26.627 -14.812  0.00  0.00    -0.082 C 
BRANCH  20  21
ATOM     21  N   UNL     1      39.374 -26.269 -14.123  0.00  0.00    +0.382 N 
ATOM     22  C   UNL     1      40.270 -25.537 -15.007  0.00  0.00    -0.106 C 
ATOM     23  H   UNL     1      39.838 -27.121 -13.806  0.00  0.00    -0.085 HD
ATOM     24  H   UNL     1      39.142 -25.673 -13.327  0.00  0.00    -0.085 HD
ENDBRANCH  20  21
ENDBRANCH  19  20
ENDBRANCH  18  19
ENDBRANCH   3  18
TORSDOF 5
ENDMDL
MODEL 2
REMARK VINA RESULT:      -8.4      2.046      6.277
REMARK  Name = 76961482
REMARK  5 active torsions:
REMARK  status: ('A' for Active; 'I' for Inactive)
REMARK    1  A    between atoms: N_2  and  C_12
REMARK    2  A    between atoms: C_3  and  C_18
REMARK    3  A    between atoms: C_18  and  C_19
REMARK    4  A    between atoms: C_19  and  C_20
REMARK    5  A    between atoms: C_20  and  N_21
REMARK                            x       y       z     vdW  Elec       q    Type
REMARK                         _______ _______ _______ _____ _____    ______ ____
ROOT
ATOM      1  O   UNL     1      32.997 -24.611 -12.887  0.00  0.00    -0.274 OA
ATOM      2  N   UNL     1      34.514 -23.935 -14.593  0.00  0.00    -0.237 N 
ATOM      3  C   UNL     1      32.179 -23.827 -15.055  0.00  0.00    +0.090 C 
ATOM      4  C   UNL     1      33.010 -23.358 -16.220  0.00  0.00    -0.001 C 
ATOM      5  C   UNL     1      33.252 -24.171 -14.001  0.00  0.00    +0.236 C 
ATOM      6  C   UNL     1      34.371 -23.425 -15.902  0.00  0.00    +0.055 C 
ATOM      7  C   UNL     1      31.381 -25.086 -15.401  0.00  0.00    +0.014 C 
ATOM      8  C   UNL     1      32.575 -22.880 -17.449  0.00  0.00    -0.003 C 
ATOM      9  C   UNL     1      35.319 -22.949 -16.799  0.00  0.00    +0.015 C 
ATOM     10  C   UNL     1      33.528 -22.441 -18.367  0.00  0.00    -0.000 C 
ATOM     11  C   UNL     1      34.888 -22.467 -18.039  0.00  0.00    +0.001 C 
ENDROOT
BRANCH   2  12
ATOM     12  C   UNL     1      35.757 -24.186 -13.954  0.00  0.00    +0.058 C 
ATOM     13  C   UNL     1      36.258 -23.279 -13.020  0.00  0.00    +0.015 C 
ATOM     14  C   UNL     1      36.479 -25.340 -14.261  0.00  0.00    +0.015 C 
ATOM     15  C   UNL     1      37.479 -23.526 -12.393  0.00  0.00    +0.001 C 
ATOM     16  C   UNL     1      37.700 -25.586 -13.634  0.00  0.00    +0.001 C 
ATOM     17  C   UNL     1      38.199 -24.679 -12.701  0.00  0.00    +0.000 C 
ENDBRANCH   2  12
BRANCH   3  18
ATOM     18  C   UNL     1      31.272 -22.721 -14.515  0.00  0.00    +0.011 C 
BRANCH  18  19
ATOM     19  C   UNL     1      29.802 -23.127 -14.587  0.00  0.00    -0.023 C 
BRANCH  19  20
ATOM     20  C   UNL     1      29.024 -22.195 -15.515  0.00  0.00    -0.082 C 
BRANCH  20  21
ATOM     21  N   UNL     1      29.002 -22.731 -16.870  0.00  0.00    +0.382 N 
ATOM     22  C   UNL     1      28.224 -23.961 -16.929  0.00  0.00    -0.106 C 
ATOM     23  H   UNL     1      29.958 -22.926 -17.168  0.00  0.00    -0.085 HD
ATOM     24  H   UNL     1      28.571 -22.042 -17.487  0.00  0.00    -0.085 HD
ENDBRANCH  20  21
ENDBRANCH  19  20
ENDBRANCH  18  19
ENDBRANCH   3  18
TORSDOF 5
ENDMDL
MODEL 3
REMARK VINA RESULT:      -8.4      8.536     10.998
REMARK  Name = 76961482
REMARK  5 active torsions:
REMARK  status: ('A' for Active; 'I' for Inactive)
REMARK    1  A    between atoms: N_2  and  C_12
REMARK    2  A    between atoms: C_3  and  C_18
REMARK    3  A    between atoms: C_18  and  C_19
REMARK    4  A    between atoms: C_19  and  C_20
REMARK    5  A    between atoms: C_20  and  N_21
REMARK                            x       y       z     vdW  Elec       q    Type
REMARK                         _______ _______ _______ _____ _____    ______ ____
ROOT
ATOM      1  O   UNL     1      35.228 -16.704 -20.134  0.00  0.00    -0.274 OA
ATOM      2  N   UNL     1      34.457 -16.714 -22.386  0.00  0.00    -0.237 N 
ATOM      3  C   UNL     1      35.603 -18.641 -21.579  0.00  0.00    +0.090 C 
ATOM      4  C   UNL     1      35.166 -18.799 -23.012  0.00  0.00    -0.001 C 
ATOM      5  C   UNL     1      35.072 -17.236 -21.226  0.00  0.00    +0.236 C 
ATOM      6  C   UNL     1      34.487 -17.653 -23.441  0.00  0.00    +0.055 C 
ATOM      7  C   UNL     1      37.126 -18.660 -21.449  0.00  0.00    +0.014 C 
ATOM      8  C   UNL     1      35.336 -19.896 -23.847  0.00  0.00    -0.003 C 
ATOM      9  C   UNL     1      33.911 -17.617 -24.704  0.00  0.00    +0.015 C 
ATOM     10  C   UNL     1      34.794 -19.846 -25.130  0.00  0.00    -0.000 C 
ATOM     11  C   UNL     1      34.079 -18.718 -25.551  0.00  0.00    +0.001 C 
ENDROOT
BRANCH   2  12
ATOM     12  C   UNL     1      33.892 -15.414 -22.477  0.00  0.00    +0.058 C 
ATOM     13  C   UNL     1      32.809 -15.066 -21.670  0.00  0.00    +0.015 C 
ATOM     14  C   UNL     1      34.420 -14.485 -23.374  0.00  0.00    +0.015 C 
ATOM     15  C   UNL     1      32.254 -13.789 -21.759  0.00  0.00    +0.001 C 
ATOM     16  C   UNL     1      33.866 -13.209 -23.463  0.00  0.00    +0.001 C 
ATOM     17  C   UNL     1      32.783 -12.862 -22.656  0.00  0.00    +0.000 C 
ENDBRANCH   2  12
BRANCH   3  18
ATOM     18  C   UNL     1      34.950 -19.677 -20.663  0.00  0.00    +0.011 C 
BRANCH  18  19
ATOM     19  C   UNL     1      33.446 -19.764 -20.912  0.00  0.00    -0.023 C 
BRANCH  19  20
ATOM     20  C   UNL     1      32.752 -20.531 -19.787  0.00  0.00    -0.082 C 
BRANCH  20  21
ATOM     21  N   UNL     1      33.073 -21.950 -19.868  0.00  0.00    +0.382 N 
ATOM     22  C   UNL     1      33.542 -22.452 -18.584  0.00  0.00    -0.106 C 
ATOM     23  H   UNL     1      33.803 -22.088 -20.568  0.00  0.00    -0.085 HD
ATOM     24  H   UNL     1      32.229 -22.461 -20.130  0.00  0.00    -0.085 HD
ENDBRANCH  20  21
ENDBRANCH  19  20
ENDBRANCH  18  19
ENDBRANCH   3  18
TORSDOF 5
ENDMDL
MODEL 4
REMARK VINA RESULT:      -8.3      1.853      2.708
REMARK  Name = 76961482
REMARK  5 active torsions:
REMARK  status: ('A' for Active; 'I' for Inactive)
REMARK    1  A    between atoms: N_2  and  C_12
REMARK    2  A    between atoms: C_3  and  C_18
REMARK    3  A    between atoms: C_18  and  C_19
REMARK    4  A    between atoms: C_19  and  C_20
REMARK    5  A    between atoms: C_20  and  N_21
REMARK                            x       y       z     vdW  Elec       q    Type
REMARK                         _______ _______ _______ _____ _____    ______ ____
ROOT
ATOM      1  O   UNL     1      33.019 -24.684 -13.744  0.00  0.00    -0.274 OA
ATOM      2  N   UNL     1      32.478 -23.578 -15.781  0.00  0.00    -0.237 N 
ATOM      3  C   UNL     1      34.778 -23.845 -15.223  0.00  0.00    +0.090 C 
ATOM      4  C   UNL     1      34.593 -23.141 -16.540  0.00  0.00    -0.001 C 
ATOM      5  C   UNL     1      33.323 -24.126 -14.791  0.00  0.00    +0.236 C 
ATOM      6  C   UNL     1      33.231 -23.016 -16.836  0.00  0.00    +0.055 C 
ATOM      7  C   UNL     1      35.452 -22.941 -14.190  0.00  0.00    +0.014 C 
ATOM      8  C   UNL     1      35.570 -22.681 -17.414  0.00  0.00    -0.003 C 
ATOM      9  C   UNL     1      32.829 -22.481 -18.053  0.00  0.00    +0.015 C 
ATOM     10  C   UNL     1      35.167 -22.105 -18.618  0.00  0.00    -0.000 C 
ATOM     11  C   UNL     1      33.807 -22.015 -18.938  0.00  0.00    +0.001 C 
ENDROOT
BRANCH   2  12
ATOM     12  C   UNL     1      31.059 -23.585 -15.717  0.00  0.00    +0.058 C 
ATOM     13  C   UNL     1      30.357 -24.772 -15.932  0.00  0.00    +0.015 C 
ATOM     14  C   UNL     1      30.367 -22.407 -15.438  0.00  0.00    +0.015 C 
ATOM     15  C   UNL     1      28.964 -24.780 -15.868  0.00  0.00    +0.001 C 
ATOM     16  C   UNL     1      28.974 -22.415 -15.374  0.00  0.00    +0.001 C 
ATOM     17  C   UNL     1      28.273 -23.601 -15.590  0.00  0.00    +0.000 C 
ENDBRANCH   2  12
BRANCH   3  18
ATOM     18  C   UNL     1      35.526 -25.169 -15.380  0.00  0.00    +0.011 C 
BRANCH  18  19
ATOM     19  C   UNL     1      36.990 -25.030 -14.971  0.00  0.00    -0.023 C 
BRANCH  19  20
ATOM     20  C   UNL     1      37.624 -26.400 -14.741  0.00  0.00    -0.082 C 
BRANCH  20  21
ATOM     21  N   UNL     1      37.167 -26.964 -13.476  0.00  0.00    +0.382 N 
ATOM     22  C   UNL     1      37.344 -26.013 -12.388  0.00  0.00    -0.106 C 
ATOM     23  H   UNL     1      37.704 -27.808 -13.274  0.00  0.00    -0.085 HD
ATOM     24  H   UNL     1      36.174 -27.186 -13.558  0.00  0.00    -0.085 HD
ENDBRANCH  20  21
ENDBRANCH  19  20
ENDBRANCH  18  19
ENDBRANCH   3  18
TORSDOF 5
ENDMDL
MODEL 5
REMARK VINA RESULT:      -8.2     13.174     15.767
REMARK  Name = 76961482
REMARK  5 active torsions:
REMARK  status: ('A' for Active; 'I' for Inactive)
REMARK    1  A    between atoms: N_2  and  C_12
REMARK    2  A    between atoms: C_3  and  C_18
REMARK    3  A    between atoms: C_18  and  C_19
REMARK    4  A    between atoms: C_19  and  C_20
REMARK    5  A    between atoms: C_20  and  N_21
REMARK                            x       y       z     vdW  Elec       q    Type
REMARK                         _______ _______ _______ _____ _____    ______ ____
ROOT
ATOM      1  O   UNL     1      31.733 -13.982 -21.671  0.00  0.00    -0.274 OA
ATOM      2  N   UNL     1      33.163 -13.081 -23.348  0.00  0.00    -0.237 N 
ATOM      3  C   UNL     1      31.991 -11.563 -21.933  0.00  0.00    +0.090 C 
ATOM      4  C   UNL     1      32.862 -10.850 -22.933  0.00  0.00    -0.001 C 
ATOM      5  C   UNL     1      32.265 -13.048 -22.257  0.00  0.00    +0.236 C 
ATOM      6  C   UNL     1      33.541 -11.775 -23.733  0.00  0.00    +0.055 C 
ATOM      7  C   UNL     1      30.509 -11.258 -22.156  0.00  0.00    +0.014 C 
ATOM      8  C   UNL     1      33.052  -9.482 -23.086  0.00  0.00    -0.003 C 
ATOM      9  C   UNL     1      34.475 -11.339 -24.662  0.00  0.00    +0.015 C 
ATOM     10  C   UNL     1      33.959  -9.041 -24.047  0.00  0.00    -0.000 C 
ATOM     11  C   UNL     1      34.672  -9.963 -24.822  0.00  0.00    +0.001 C 
ENDROOT
BRANCH   2  12
ATOM     12  C   UNL     1      33.616 -14.272 -23.976  0.00  0.00    +0.058 C 
ATOM     13  C   UNL     1      34.540 -15.093 -23.329  0.00  0.00    +0.015 C 
ATOM     14  C   UNL     1      33.138 -14.620 -25.238  0.00  0.00    +0.015 C 
ATOM     15  C   UNL     1      34.985 -16.262 -23.945  0.00  0.00    +0.001 C 
ATOM     16  C   UNL     1      33.583 -15.789 -25.855  0.00  0.00    +0.001 C 
ATOM     17  C   UNL     1      34.507 -16.610 -25.208  0.00  0.00    +0.000 C 
ENDBRANCH   2  12
BRANCH   3  18
ATOM     18  C   UNL     1      32.412 -11.271 -20.493  0.00  0.00    +0.011 C 
BRANCH  18  19
ATOM     19  C   UNL     1      31.215 -10.862 -19.639  0.00  0.00    -0.023 C 
BRANCH  19  20
ATOM     20  C   UNL     1      31.339  -9.407 -19.189  0.00  0.00    -0.082 C 
BRANCH  20  21
ATOM     21  N   UNL     1      32.622  -8.856 -19.606  0.00  0.00    +0.382 N 
ATOM     22  C   UNL     1      32.470  -7.489 -20.087  0.00  0.00    -0.106 C 
ATOM     23  H   UNL     1      33.006  -9.433 -20.355  0.00  0.00    -0.085 HD
ATOM     24  H   UNL     1      33.252  -8.851 -18.803  0.00  0.00    -0.085 HD
ENDBRANCH  20  21
ENDBRANCH  19  20
ENDBRANCH  18  19
ENDBRANCH   3  18
TORSDOF 5
ENDMDL
MODEL 6
REMARK VINA RESULT:      -8.2      9.573     12.479
REMARK  Name = 76961482
REMARK  5 active torsions:
REMARK  status: ('A' for Active; 'I' for Inactive)
REMARK    1  A    between atoms: N_2  and  C_12
REMARK    2  A    between atoms: C_3  and  C_18
REMARK    3  A    between atoms: C_18  and  C_19
REMARK    4  A    between atoms: C_19  and  C_20
REMARK    5  A    between atoms: C_20  and  N_21
REMARK                            x       y       z     vdW  Elec       q    Type
REMARK                         _______ _______ _______ _____ _____    ______ ____
ROOT
ATOM      1  O   UNL     1      34.553 -16.067 -19.945  0.00  0.00    -0.274 OA
ATOM      2  N   UNL     1      34.776 -17.548 -21.796  0.00  0.00    -0.237 N 
ATOM      3  C   UNL     1      33.867 -15.381 -22.191  0.00  0.00    +0.090 C 
ATOM      4  C   UNL     1      33.958 -16.196 -23.453  0.00  0.00    -0.001 C 
ATOM      5  C   UNL     1      34.454 -16.341 -21.135  0.00  0.00    +0.236 C 
ATOM      6  C   UNL     1      34.507 -17.454 -23.180  0.00  0.00    +0.055 C 
ATOM      7  C   UNL     1      32.417 -15.053 -21.833  0.00  0.00    +0.014 C 
ATOM      8  C   UNL     1      33.605 -15.824 -24.744  0.00  0.00    -0.003 C 
ATOM      9  C   UNL     1      34.772 -18.338 -24.218  0.00  0.00    +0.015 C 
ATOM     10  C   UNL     1      33.832 -16.727 -25.782  0.00  0.00    -0.000 C 
ATOM     11  C   UNL     1      34.419 -17.971 -25.521  0.00  0.00    +0.001 C 
ENDROOT
BRANCH   2  12
ATOM     12  C   UNL     1      35.293 -18.702 -21.150  0.00  0.00    +0.058 C 
ATOM     13  C   UNL     1      36.670 -18.850 -20.983  0.00  0.00    +0.015 C 
ATOM     14  C   UNL     1      34.424 -19.688 -20.682  0.00  0.00    +0.015 C 
ATOM     15  C   UNL     1      37.178 -19.984 -20.349  0.00  0.00    +0.001 C 
ATOM     16  C   UNL     1      34.932 -20.821 -20.048  0.00  0.00    +0.001 C 
ATOM     17  C   UNL     1      36.308 -20.969 -19.882  0.00  0.00    +0.000 C 
ENDBRANCH   2  12
BRANCH   3  18
ATOM     18  C   UNL     1      34.725 -14.117 -22.262  0.00  0.00    +0.011 C 
BRANCH  18  19
ATOM     19  C   UNL     1      33.867 -12.881 -22.515  0.00  0.00    -0.023 C 
BRANCH  19  20
ATOM     20  C   UNL     1      33.869 -12.510 -23.998  0.00  0.00    -0.082 C 
BRANCH  20  21
ATOM     21  N   UNL     1      34.530 -11.226 -24.198  0.00  0.00    +0.382 N 
ATOM     22  C   UNL     1      33.626 -10.124 -23.903  0.00  0.00    -0.106 C 
ATOM     23  H   UNL     1      34.838 -11.157 -25.168  0.00  0.00    -0.085 HD
ATOM     24  H   UNL     1      35.331 -11.169 -23.567  0.00  0.00    -0.085 HD
ENDBRANCH  20  21
ENDBRANCH  19  20
ENDBRANCH  18  19
ENDBRANCH   3  18
TORSDOF 5
ENDMDL
MODEL 7
REMARK VINA RESULT:      -8.2      2.516      5.003
REMARK  Name = 76961482
REMARK  5 active torsions:
REMARK  status: ('A' for Active; 'I' for Inactive)
REMARK    1  A    between atoms: N_2  and  C_12
REMARK    2  A    between atoms: C_3  and  C_18
REMARK    3  A    between atoms: C_18  and  C_19
REMARK    4  A    between atoms: C_19  and  C_20
REMARK    5  A    between atoms: C_20  and  N_21
REMARK                            x       y       z     vdW  Elec       q    Type
REMARK                         _______ _______ _______ _____ _____    ______ ____
ROOT
ATOM      1  O   UNL     1      36.990 -23.039 -16.293  0.00  0.00    -0.274 OA
ATOM      2  N   UNL     1      34.715 -22.804 -16.951  0.00  0.00    -0.237 N 
ATOM      3  C   UNL     1      35.189 -24.002 -14.947  0.00  0.00    +0.090 C 
ATOM      4  C   UNL     1      33.711 -23.927 -15.227  0.00  0.00    -0.001 C 
ATOM      5  C   UNL     1      35.789 -23.210 -16.128  0.00  0.00    +0.236 C 
ATOM      6  C   UNL     1      33.477 -23.205 -16.402  0.00  0.00    +0.055 C 
ATOM      7  C   UNL     1      35.698 -25.444 -14.989  0.00  0.00    +0.014 C 
ATOM      8  C   UNL     1      32.666 -24.436 -14.468  0.00  0.00    -0.003 C 
ATOM      9  C   UNL     1      32.175 -22.929 -16.801  0.00  0.00    +0.015 C 
ATOM     10  C   UNL     1      31.359 -24.195 -14.889  0.00  0.00    -0.000 C 
ATOM     11  C   UNL     1      31.117 -23.439 -16.042  0.00  0.00    +0.001 C 
ENDROOT
BRANCH   2  12
ATOM     12  C   UNL     1      34.865 -22.094 -18.172  0.00  0.00    +0.058 C 
ATOM     13  C   UNL     1      33.744 -21.791 -18.946  0.00  0.00    +0.015 C 
ATOM     14  C   UNL     1      36.133 -21.699 -18.599  0.00  0.00    +0.015 C 
ATOM     15  C   UNL     1      33.891 -21.095 -20.145  0.00  0.00    +0.001 C 
ATOM     16  C   UNL     1      36.280 -21.003 -19.798  0.00  0.00    +0.001 C 
ATOM     17  C   UNL     1      35.159 -20.701 -20.570  0.00  0.00    +0.000 C 
ENDBRANCH   2  12
BRANCH   3  18
ATOM     18  C   UNL     1      35.560 -23.315 -13.633  0.00  0.00    +0.011 C 
BRANCH  18  19
ATOM     19  C   UNL     1      35.906 -24.337 -12.554  0.00  0.00    -0.023 C 
BRANCH  19  20
ATOM     20  C   UNL     1      36.744 -23.699 -11.447  0.00  0.00    -0.082 C 
BRANCH  20  21
ATOM     21  N   UNL     1      38.157 -24.001 -11.644  0.00  0.00    +0.382 N 
ATOM     22  C   UNL     1      38.325 -25.230 -12.406  0.00  0.00    -0.106 C 
ATOM     23  H   UNL     1      38.605 -24.107 -10.733  0.00  0.00    -0.085 HD
ATOM     24  H   UNL     1      38.585 -23.234 -12.163  0.00  0.00    -0.085 HD
ENDBRANCH  20  21
ENDBRANCH  19  20
ENDBRANCH  18  19
ENDBRANCH   3  18
TORSDOF 5
ENDMDL
MODEL 8
REMARK VINA RESULT:      -8.0      1.902      3.915
REMARK  Name = 76961482
REMARK  5 active torsions:
REMARK  status: ('A' for Active; 'I' for Inactive)
REMARK    1  A    between atoms: N_2  and  C_12
REMARK    2  A    between atoms: C_3  and  C_18
REMARK    3  A    between atoms: C_18  and  C_19
REMARK    4  A    between atoms: C_19  and  C_20
REMARK    5  A    between atoms: C_20  and  N_21
REMARK                            x       y       z     vdW  Elec       q    Type
REMARK                         _______ _______ _______ _____ _____    ______ ____
ROOT
ATOM      1  O   UNL     1      34.879 -24.598 -16.526  0.00  0.00    -0.274 OA
ATOM      2  N   UNL     1      34.470 -24.245 -14.208  0.00  0.00    -0.237 N 
ATOM      3  C   UNL     1      36.708 -24.677 -14.903  0.00  0.00    +0.090 C 
ATOM      4  C   UNL     1      36.607 -24.463 -13.416  0.00  0.00    -0.001 C 
ATOM      5  C   UNL     1      35.246 -24.491 -15.362  0.00  0.00    +0.236 C 
ATOM      6  C   UNL     1      35.281 -24.200 -13.052  0.00  0.00    +0.055 C 
ATOM      7  C   UNL     1      37.173 -26.094 -15.239  0.00  0.00    +0.014 C 
ATOM      8  C   UNL     1      37.628 -24.471 -12.475  0.00  0.00    -0.003 C 
ATOM      9  C   UNL     1      34.971 -23.877 -11.738  0.00  0.00    +0.015 C 
ATOM     10  C   UNL     1      37.312 -24.187 -11.147  0.00  0.00    -0.000 C 
ATOM     11  C   UNL     1      35.995 -23.884 -10.784  0.00  0.00    +0.001 C 
ENDROOT
BRANCH   2  12
ATOM     12  C   UNL     1      33.060 -24.075 -14.212  0.00  0.00    +0.058 C 
ATOM     13  C   UNL     1      32.502 -22.889 -14.692  0.00  0.00    +0.015 C 
ATOM     14  C   UNL     1      32.232 -25.092 -13.737  0.00  0.00    +0.015 C 
ATOM     15  C   UNL     1      31.117 -22.722 -14.696  0.00  0.00    +0.001 C 
ATOM     16  C   UNL     1      30.848 -24.925 -13.741  0.00  0.00    +0.001 C 
ATOM     17  C   UNL     1      30.291 -23.740 -14.220  0.00  0.00    +0.000 C 
ENDBRANCH   2  12
BRANCH   3  18
ATOM     18  C   UNL     1      37.589 -23.624 -15.575  0.00  0.00    +0.011 C 
BRANCH  18  19
ATOM     19  C   UNL     1      36.909 -22.258 -15.584  0.00  0.00    -0.023 C 
BRANCH  19  20
ATOM     20  C   UNL     1      37.118 -21.554 -16.924  0.00  0.00    -0.082 C 
BRANCH  20  21
ATOM     21  N   UNL     1      36.130 -22.008 -17.894  0.00  0.00    +0.382 N 
ATOM     22  C   UNL     1      36.340 -21.373 -19.188  0.00  0.00    -0.106 C 
ATOM     23  H   UNL     1      35.196 -21.773 -17.554  0.00  0.00    -0.085 HD
ATOM     24  H   UNL     1      36.223 -23.018 -18.007  0.00  0.00    -0.085 HD
ENDBRANCH  20  21
ENDBRANCH  19  20
ENDBRANCH  18  19
ENDBRANCH   3  18
TORSDOF 5
ENDMDL
MODEL 9
REMARK VINA RESULT:      -8.0      2.404      6.045
REMARK  Name = 76961482
REMARK  5 active torsions:
REMARK  status: ('A' for Active; 'I' for Inactive)
REMARK    1  A    between atoms: N_2  and  C_12
REMARK    2  A    between atoms: C_3  and  C_18
REMARK    3  A    between atoms: C_18  and  C_19
REMARK    4  A    between atoms: C_19  and  C_20
REMARK    5  A    between atoms: C_20  and  N_21
REMARK                            x       y       z     vdW  Elec       q    Type
REMARK                         _______ _______ _______ _____ _____    ______ ____
ROOT
ATOM      1  O   UNL     1      31.814 -23.006 -16.444  0.00  0.00    -0.274 OA
ATOM      2  N   UNL     1      34.156 -23.172 -16.051  0.00  0.00    -0.237 N 
ATOM      3  C   UNL     1      32.672 -23.812 -14.300  0.00  0.00    +0.090 C 
ATOM      4  C   UNL     1      34.116 -23.982 -13.910  0.00  0.00    -0.001 C 
ATOM      5  C   UNL     1      32.780 -23.292 -15.749  0.00  0.00    +0.236 C 
ATOM      6  C   UNL     1      34.951 -23.608 -14.968  0.00  0.00    +0.055 C 
ATOM      7  C   UNL     1      31.972 -22.765 -13.432  0.00  0.00    +0.014 C 
ATOM      8  C   UNL     1      34.632 -24.464 -12.714  0.00  0.00    -0.003 C 
ATOM      9  C   UNL     1      36.326 -23.774 -14.862  0.00  0.00    +0.015 C 
ATOM     10  C   UNL     1      36.015 -24.593 -12.591  0.00  0.00    -0.000 C 
ATOM     11  C   UNL     1      36.854 -24.260 -13.661  0.00  0.00    +0.001 C 
ENDROOT
BRANCH   2  12
ATOM     12  C   UNL     1      34.666 -22.670 -17.278  0.00  0.00    +0.058 C 
ATOM     13  C   UNL     1      33.889 -22.736 -18.435  0.00  0.00    +0.015 C 
ATOM     14  C   UNL     1      35.942 -22.111 -17.327  0.00  0.00    +0.015 C 
ATOM     15  C   UNL     1      34.389 -22.244 -19.640  0.00  0.00    +0.001 C 
ATOM     16  C   UNL     1      36.443 -21.619 -18.532  0.00  0.00    +0.001 C 
ATOM     17  C   UNL     1      35.666 -21.686 -19.688  0.00  0.00    +0.000 C 
ENDBRANCH   2  12
BRANCH   3  18
ATOM     18  C   UNL     1      31.915 -25.140 -14.292  0.00  0.00    +0.011 C 
BRANCH  18  19
ATOM     19  C   UNL     1      30.494 -24.964 -13.766  0.00  0.00    -0.023 C 
BRANCH  19  20
ATOM     20  C   UNL     1      29.472 -25.139 -14.889  0.00  0.00    -0.082 C 
BRANCH  20  21
ATOM     21  N   UNL     1      29.091 -23.842 -15.434  0.00  0.00    +0.382 N 
ATOM     22  C   UNL     1      28.368 -23.997 -16.688  0.00  0.00    -0.106 C 
ATOM     23  H   UNL     1      29.933 -23.289 -15.599  0.00  0.00    -0.085 HD
ATOM     24  H   UNL     1      28.484 -23.371 -14.763  0.00  0.00    -0.085 HD
ENDBRANCH  20  21
ENDBRANCH  19  20
ENDBRANCH  18  19
ENDBRANCH   3  18
TORSDOF 5
ENDMDL
