MODEL 1
REMARK VINA RESULT:     -11.1      0.000      0.000
REMARK  Name = 447733
REMARK  5 active torsions:
REMARK  status: ('A' for Active; 'I' for Inactive)
REMARK    1  A    between atoms: C_3  and  C_19
REMARK    2  A    between atoms: C_9  and  C_13
REMARK    3  A    between atoms: N_18  and  C_21
REMARK    4  A    between atoms: C_22  and  C_27
REMARK    5  A    between atoms: C_27  and  N_28
REMARK                            x       y       z     vdW  Elec       q    Type
REMARK                         _______ _______ _______ _____ _____    ______ ____
ROOT
ATOM      1  C   UNL     1      35.458 -20.051 -20.607  0.00  0.00    +0.000 C 
ATOM      2  C   UNL     1      34.184 -19.733 -21.136  0.00  0.00    +0.000 C 
ATOM      3  C   UNL     1      34.422 -21.654 -19.101  0.00  0.00    +0.054 C 
ATOM      4  C   UNL     1      35.560 -21.013 -19.589  0.00  0.00    +0.005 C 
ATOM      5  C   UNL     1      33.050 -20.391 -20.632  0.00  0.00    +0.000 C 
ATOM      6  C   UNL     1      34.083 -18.772 -22.153  0.00  0.00    +0.003 C 
ATOM      7  C   UNL     1      36.593 -19.395 -21.111  0.00  0.00    +0.000 C 
ATOM      8  C   UNL     1      33.169 -21.343 -19.620  0.00  0.00    +0.005 C 
ATOM      9  C   UNL     1      35.221 -18.129 -22.642  0.00  0.00    +0.031 C 
ATOM     10  C   UNL     1      36.474 -18.441 -22.122  0.00  0.00    +0.003 C 
ENDROOT
BRANCH   9  13
ATOM     11  N   UNL     1      34.656 -17.480 -24.971  0.00  0.00    -0.343 N 
ATOM     12  N   UNL     1      35.419 -15.876 -23.453  0.00  0.00    -0.285 NA
ATOM     13  C   UNL     1      35.100 -17.135 -23.696  0.00  0.00    +0.117 C 
ATOM     14  H   UNL     1      34.583 -16.791 -25.670  0.00  0.00    +0.144 HD
ATOM     15  H   UNL     1      34.417 -18.414 -25.173  0.00  0.00    +0.144 HD
ATOM     16  H   UNL     1      35.338 -15.202 -24.165  0.00  0.00    +0.188 HD
ENDBRANCH   9  13
BRANCH   3  19
ATOM     17  O   UNL     1      33.851 -23.677 -18.102  0.00  0.00    -0.270 OA
ATOM     18  N   UNL     1      35.478 -22.361 -17.040  0.00  0.00    -0.280 N 
ATOM     19  C   UNL     1      34.544 -22.648 -18.046  0.00  0.00    +0.249 C 
ATOM     20  H   UNL     1      35.953 -21.503 -17.130  0.00  0.00    +0.155 HD
BRANCH  18  21
ATOM     21  C   UNL     1      35.827 -23.143 -15.911  0.00  0.00    +0.051 C 
ATOM     22  C   UNL     1      36.510 -24.671 -13.707  0.00  0.00    -0.044 C 
ATOM     23  C   UNL     1      37.164 -23.355 -15.624  0.00  0.00    +0.014 C 
ATOM     24  C   UNL     1      34.822 -23.679 -15.123  0.00  0.00    +0.014 C 
ATOM     25  C   UNL     1      37.509 -24.125 -14.512  0.00  0.00    -0.005 C 
ATOM     26  C   UNL     1      35.167 -24.448 -14.012  0.00  0.00    -0.005 C 
BRANCH  22  27
ATOM     27  C   UNL     1      36.878 -25.494 -12.518  0.00  0.00    -0.059 C 
BRANCH  27  28
ATOM     28  N   UNL     1      38.187 -26.132 -12.666  0.00  0.00    +0.383 N 
ATOM     29  H   UNL     1      38.709 -26.042 -11.794  0.00  0.00    -0.089 HD
ATOM     30  H   UNL     1      38.704 -25.678 -13.419  0.00  0.00    -0.089 HD
ATOM     31  H   UNL     1      38.061 -27.120 -12.886  0.00  0.00    -0.089 HD
ENDBRANCH  27  28
ENDBRANCH  22  27
ENDBRANCH  18  21
ENDBRANCH   3  19
TORSDOF 5
ENDMDL
MODEL 2
REMARK VINA RESULT:     -10.9      1.926      9.455
REMARK  Name = 447733
REMARK  5 active torsions:
REMARK  status: ('A' for Active; 'I' for Inactive)
REMARK    1  A    between atoms: C_3  and  C_19
REMARK    2  A    between atoms: C_9  and  C_13
REMARK    3  A    between atoms: N_18  and  C_21
REMARK    4  A    between atoms: C_22  and  C_27
REMARK    5  A    between atoms: C_27  and  N_28
REMARK                            x       y       z     vdW  Elec       q    Type
REMARK                         _______ _______ _______ _____ _____    ______ ____
ROOT
ATOM      1  C   UNL     1      36.310 -22.450 -16.609  0.00  0.00    +0.000 C 
ATOM      2  C   UNL     1      35.049 -23.075 -16.459  0.00  0.00    +0.000 C 
ATOM      3  C   UNL     1      35.622 -21.605 -18.783  0.00  0.00    +0.054 C 
ATOM      4  C   UNL     1      36.582 -21.719 -17.777  0.00  0.00    +0.005 C 
ATOM      5  C   UNL     1      34.095 -22.949 -17.483  0.00  0.00    +0.000 C 
ATOM      6  C   UNL     1      34.778 -23.805 -15.291  0.00  0.00    +0.003 C 
ATOM      7  C   UNL     1      37.263 -22.575 -15.585  0.00  0.00    +0.000 C 
ATOM      8  C   UNL     1      34.382 -22.220 -18.637  0.00  0.00    +0.005 C 
ATOM      9  C   UNL     1      35.737 -23.920 -14.284  0.00  0.00    +0.031 C 
ATOM     10  C   UNL     1      36.978 -23.305 -14.431  0.00  0.00    +0.003 C 
ENDROOT
BRANCH   9  13
ATOM     11  N   UNL     1      36.403 -25.489 -12.478  0.00  0.00    -0.343 N 
ATOM     12  N   UNL     1      34.237 -24.613 -12.540  0.00  0.00    -0.285 NA
ATOM     13  C   UNL     1      35.441 -24.680 -13.080  0.00  0.00    +0.117 C 
ATOM     14  H   UNL     1      36.180 -25.995 -11.664  0.00  0.00    +0.144 HD
ATOM     15  H   UNL     1      37.305 -25.554 -12.868  0.00  0.00    +0.144 HD
ATOM     16  H   UNL     1      34.035 -25.127 -11.725  0.00  0.00    +0.188 HD
ENDBRANCH   9  13
BRANCH   3  19
ATOM     17  O   UNL     1      36.991 -21.046 -20.579  0.00  0.00    -0.270 OA
ATOM     18  N   UNL     1      34.929 -19.942 -20.399  0.00  0.00    -0.280 N 
ATOM     19  C   UNL     1      35.919 -20.846 -19.987  0.00  0.00    +0.249 C 
ATOM     20  H   UNL     1      34.130 -19.892 -19.826  0.00  0.00    +0.155 HD
BRANCH  18  21
ATOM     21  C   UNL     1      34.927 -19.092 -21.534  0.00  0.00    +0.051 C 
ATOM     22  C   UNL     1      34.925 -17.433 -23.749  0.00  0.00    -0.044 C 
ATOM     23  C   UNL     1      34.721 -19.640 -22.788  0.00  0.00    +0.014 C 
ATOM     24  C   UNL     1      35.134 -17.734 -21.360  0.00  0.00    +0.014 C 
ATOM     25  C   UNL     1      34.720 -18.803 -23.905  0.00  0.00    -0.005 C 
ATOM     26  C   UNL     1      35.132 -16.898 -22.476  0.00  0.00    -0.005 C 
BRANCH  22  27
ATOM     27  C   UNL     1      34.924 -16.538 -24.942  0.00  0.00    -0.059 C 
BRANCH  27  28
ATOM     28  N   UNL     1      33.728 -15.696 -25.007  0.00  0.00    +0.383 N 
ATOM     29  H   UNL     1      33.145 -15.871 -24.188  0.00  0.00    -0.089 HD
ATOM     30  H   UNL     1      33.202 -15.917 -25.852  0.00  0.00    -0.089 HD
ATOM     31  H   UNL     1      34.004 -14.715 -25.024  0.00  0.00    -0.089 HD
ENDBRANCH  27  28
ENDBRANCH  22  27
ENDBRANCH  18  21
ENDBRANCH   3  19
TORSDOF 5
ENDMDL
MODEL 3
REMARK VINA RESULT:     -10.9      1.944      9.463
REMARK  Name = 447733
REMARK  5 active torsions:
REMARK  status: ('A' for Active; 'I' for Inactive)
REMARK    1  A    between atoms: C_3  and  C_19
REMARK    2  A    between atoms: C_9  and  C_13
REMARK    3  A    between atoms: N_18  and  C_21
REMARK    4  A    between atoms: C_22  and  C_27
REMARK    5  A    between atoms: C_27  and  N_28
REMARK                            x       y       z     vdW  Elec       q    Type
REMARK                         _______ _______ _______ _____ _____    ______ ____
ROOT
ATOM      1  C   UNL     1      36.406 -22.405 -16.714  0.00  0.00    +0.000 C 
ATOM      2  C   UNL     1      35.152 -23.045 -16.568  0.00  0.00    +0.000 C 
ATOM      3  C   UNL     1      35.682 -21.495 -18.849  0.00  0.00    +0.054 C 
ATOM      4  C   UNL     1      36.656 -21.635 -17.860  0.00  0.00    +0.005 C 
ATOM      5  C   UNL     1      34.183 -22.892 -17.574  0.00  0.00    +0.000 C 
ATOM      6  C   UNL     1      34.902 -23.815 -15.421  0.00  0.00    +0.003 C 
ATOM      7  C   UNL     1      37.374 -22.557 -15.708  0.00  0.00    +0.000 C 
ATOM      8  C   UNL     1      34.449 -22.123 -18.707  0.00  0.00    +0.005 C 
ATOM      9  C   UNL     1      35.876 -23.956 -14.431  0.00  0.00    +0.031 C 
ATOM     10  C   UNL     1      37.110 -23.327 -14.575  0.00  0.00    +0.003 C 
ENDROOT
BRANCH   9  13
ATOM     11  N   UNL     1      36.520 -25.694 -12.780  0.00  0.00    -0.343 N 
ATOM     12  N   UNL     1      34.460 -24.605 -12.603  0.00  0.00    -0.285 NA
ATOM     13  C   UNL     1      35.602 -24.757 -13.250  0.00  0.00    +0.117 C 
ATOM     14  H   UNL     1      36.313 -26.227 -11.978  0.00  0.00    +0.144 HD
ATOM     15  H   UNL     1      37.375 -25.825 -13.251  0.00  0.00    +0.144 HD
ATOM     16  H   UNL     1      34.273 -25.147 -11.802  0.00  0.00    +0.188 HD
ENDBRANCH   9  13
BRANCH   3  19
ATOM     17  O   UNL     1      37.074 -20.770 -20.567  0.00  0.00    -0.270 OA
ATOM     18  N   UNL     1      34.897 -19.897 -20.490  0.00  0.00    -0.280 N 
ATOM     19  C   UNL     1      35.956 -20.693 -20.031  0.00  0.00    +0.249 C 
ATOM     20  H   UNL     1      34.069 -19.939 -19.959  0.00  0.00    +0.155 HD
BRANCH  18  21
ATOM     21  C   UNL     1      34.862 -19.039 -21.617  0.00  0.00    +0.051 C 
ATOM     22  C   UNL     1      34.793 -17.362 -23.818  0.00  0.00    -0.044 C 
ATOM     23  C   UNL     1      34.957 -17.671 -21.428  0.00  0.00    +0.014 C 
ATOM     24  C   UNL     1      34.732 -19.589 -22.882  0.00  0.00    +0.014 C 
ATOM     25  C   UNL     1      34.923 -16.826 -22.538  0.00  0.00    -0.005 C 
ATOM     26  C   UNL     1      34.698 -18.744 -23.990  0.00  0.00    -0.005 C 
BRANCH  22  27
ATOM     27  C   UNL     1      34.756 -16.459 -25.004  0.00  0.00    -0.059 C 
BRANCH  27  28
ATOM     28  N   UNL     1      33.727 -15.425 -24.887  0.00  0.00    +0.383 N 
ATOM     29  H   UNL     1      33.295 -15.270 -25.798  0.00  0.00    -0.089 HD
ATOM     30  H   UNL     1      34.152 -14.557 -24.560  0.00  0.00    -0.089 HD
ATOM     31  H   UNL     1      33.016 -15.728 -24.221  0.00  0.00    -0.089 HD
ENDBRANCH  27  28
ENDBRANCH  22  27
ENDBRANCH  18  21
ENDBRANCH   3  19
TORSDOF 5
ENDMDL
MODEL 4
REMARK VINA RESULT:     -10.9      1.593      9.567
REMARK  Name = 447733
REMARK  5 active torsions:
REMARK  status: ('A' for Active; 'I' for Inactive)
REMARK    1  A    between atoms: C_3  and  C_19
REMARK    2  A    between atoms: C_9  and  C_13
REMARK    3  A    between atoms: N_18  and  C_21
REMARK    4  A    between atoms: C_22  and  C_27
REMARK    5  A    between atoms: C_27  and  N_28
REMARK                            x       y       z     vdW  Elec       q    Type
REMARK                         _______ _______ _______ _____ _____    ______ ____
ROOT
ATOM      1  C   UNL     1      35.137 -23.146 -15.543  0.00  0.00    +0.000 C 
ATOM      2  C   UNL     1      36.426 -22.900 -15.014  0.00  0.00    +0.000 C 
ATOM      3  C   UNL     1      35.834 -22.178 -17.663  0.00  0.00    +0.054 C 
ATOM      4  C   UNL     1      34.856 -22.778 -16.869  0.00  0.00    +0.005 C 
ATOM      5  C   UNL     1      37.398 -22.296 -15.829  0.00  0.00    +0.000 C 
ATOM      6  C   UNL     1      36.706 -23.269 -13.689  0.00  0.00    +0.003 C 
ATOM      7  C   UNL     1      34.165 -23.751 -14.730  0.00  0.00    +0.000 C 
ATOM      8  C   UNL     1      37.102 -21.936 -17.143  0.00  0.00    +0.005 C 
ATOM      9  C   UNL     1      35.729 -23.869 -12.894  0.00  0.00    +0.031 C 
ATOM     10  C   UNL     1      34.460 -24.110 -13.414  0.00  0.00    +0.003 C 
ENDROOT
BRANCH   9  13
ATOM     11  N   UNL     1      37.131 -23.707 -10.851  0.00  0.00    -0.343 N 
ATOM     12  N   UNL     1      35.267 -25.116 -10.894  0.00  0.00    -0.285 NA
ATOM     13  C   UNL     1      36.035 -24.244 -11.523  0.00  0.00    +0.117 C 
ATOM     14  H   UNL     1      37.319 -23.977  -9.923  0.00  0.00    +0.144 HD
ATOM     15  H   UNL     1      37.717 -23.059 -11.304  0.00  0.00    +0.144 HD
ATOM     16  H   UNL     1      35.472 -25.372  -9.965  0.00  0.00    +0.188 HD
ENDBRANCH   9  13
BRANCH   3  19
ATOM     17  O   UNL     1      35.044 -22.652 -19.799  0.00  0.00    -0.270 OA
ATOM     18  N   UNL     1      35.790 -20.468 -19.376  0.00  0.00    -0.280 N 
ATOM     19  C   UNL     1      35.527 -21.802 -19.034  0.00  0.00    +0.249 C 
ATOM     20  H   UNL     1      36.175 -19.911 -18.661  0.00  0.00    +0.155 HD
BRANCH  18  21
ATOM     21  C   UNL     1      35.574 -19.816 -20.616  0.00  0.00    +0.051 C 
ATOM     22  C   UNL     1      35.151 -18.544 -23.037  0.00  0.00    -0.044 C 
ATOM     23  C   UNL     1      34.331 -19.907 -21.219  0.00  0.00    +0.014 C 
ATOM     24  C   UNL     1      36.611 -19.105 -21.195  0.00  0.00    +0.014 C 
ATOM     25  C   UNL     1      34.118 -19.266 -22.440  0.00  0.00    -0.005 C 
ATOM     26  C   UNL     1      36.398 -18.464 -22.415  0.00  0.00    -0.005 C 
BRANCH  22  27
ATOM     27  C   UNL     1      34.924 -17.858 -24.342  0.00  0.00    -0.059 C 
BRANCH  27  28
ATOM     28  N   UNL     1      35.328 -16.452 -24.311  0.00  0.00    +0.383 N 
ATOM     29  H   UNL     1      36.244 -16.371 -23.869  0.00  0.00    -0.089 HD
ATOM     30  H   UNL     1      34.646 -15.914 -23.776  0.00  0.00    -0.089 HD
ATOM     31  H   UNL     1      35.376 -16.091 -25.263  0.00  0.00    -0.089 HD
ENDBRANCH  27  28
ENDBRANCH  22  27
ENDBRANCH  18  21
ENDBRANCH   3  19
TORSDOF 5
ENDMDL
MODEL 5
REMARK VINA RESULT:     -10.7      7.559     13.225
REMARK  Name = 447733
REMARK  5 active torsions:
REMARK  status: ('A' for Active; 'I' for Inactive)
REMARK    1  A    between atoms: C_3  and  C_19
REMARK    2  A    between atoms: C_9  and  C_13
REMARK    3  A    between atoms: N_18  and  C_21
REMARK    4  A    between atoms: C_22  and  C_27
REMARK    5  A    between atoms: C_27  and  N_28
REMARK                            x       y       z     vdW  Elec       q    Type
REMARK                         _______ _______ _______ _____ _____    ______ ____
ROOT
ATOM      1  C   UNL     1      33.391 -14.555 -22.851  0.00  0.00    +0.000 C 
ATOM      2  C   UNL     1      33.443 -15.242 -21.615  0.00  0.00    +0.000 C 
ATOM      3  C   UNL     1      32.226 -12.716 -21.767  0.00  0.00    +0.054 C 
ATOM      4  C   UNL     1      32.778 -13.293 -22.912  0.00  0.00    +0.005 C 
ATOM      5  C   UNL     1      32.883 -14.644 -20.474  0.00  0.00    +0.000 C 
ATOM      6  C   UNL     1      34.056 -16.504 -21.555  0.00  0.00    +0.003 C 
ATOM      7  C   UNL     1      33.952 -15.152 -23.992  0.00  0.00    +0.000 C 
ATOM      8  C   UNL     1      32.278 -13.390 -20.552  0.00  0.00    +0.005 C 
ATOM      9  C   UNL     1      34.608 -17.082 -22.699  0.00  0.00    +0.031 C 
ATOM     10  C   UNL     1      34.556 -16.407 -23.915  0.00  0.00    +0.003 C 
ENDROOT
BRANCH   9  13
ATOM     11  N   UNL     1      34.924 -19.403 -23.523  0.00  0.00    -0.343 N 
ATOM     12  N   UNL     1      36.129 -18.635 -21.675  0.00  0.00    -0.285 NA
ATOM     13  C   UNL     1      35.240 -18.390 -22.620  0.00  0.00    +0.117 C 
ATOM     14  H   UNL     1      35.363 -20.281 -23.451  0.00  0.00    +0.144 HD
ATOM     15  H   UNL     1      34.261 -19.241 -24.233  0.00  0.00    +0.144 HD
ATOM     16  H   UNL     1      36.558 -19.519 -21.620  0.00  0.00    +0.188 HD
ENDBRANCH   9  13
BRANCH   3  19
ATOM     17  O   UNL     1      30.428 -11.275 -21.445  0.00  0.00    -0.270 OA
ATOM     18  N   UNL     1      32.390 -10.375 -22.363  0.00  0.00    -0.280 N 
ATOM     19  C   UNL     1      31.595 -11.408 -21.846  0.00  0.00    +0.249 C 
ATOM     20  H   UNL     1      33.298 -10.633 -22.642  0.00  0.00    +0.155 HD
BRANCH  18  21
ATOM     21  C   UNL     1      32.058  -9.008 -22.536  0.00  0.00    +0.051 C 
ATOM     22  C   UNL     1      31.409  -6.339 -22.874  0.00  0.00    -0.044 C 
ATOM     23  C   UNL     1      32.313  -8.116 -21.509  0.00  0.00    +0.014 C 
ATOM     24  C   UNL     1      31.485  -8.598 -23.728  0.00  0.00    +0.014 C 
ATOM     25  C   UNL     1      31.986  -6.770 -21.679  0.00  0.00    -0.005 C 
ATOM     26  C   UNL     1      31.158  -7.253 -23.898  0.00  0.00    -0.005 C 
BRANCH  22  27
ATOM     27  C   UNL     1      31.059  -4.900 -23.056  0.00  0.00    -0.059 C 
BRANCH  27  28
ATOM     28  N   UNL     1      30.323  -4.356 -21.914  0.00  0.00    +0.383 N 
ATOM     29  H   UNL     1      30.871  -4.485 -21.063  0.00  0.00    -0.089 HD
ATOM     30  H   UNL     1      29.432  -4.844 -21.820  0.00  0.00    -0.089 HD
ATOM     31  H   UNL     1      30.153  -3.362 -22.062  0.00  0.00    -0.089 HD
ENDBRANCH  27  28
ENDBRANCH  22  27
ENDBRANCH  18  21
ENDBRANCH   3  19
TORSDOF 5
ENDMDL
MODEL 6
REMARK VINA RESULT:     -10.5      2.353      9.439
REMARK  Name = 447733
REMARK  5 active torsions:
REMARK  status: ('A' for Active; 'I' for Inactive)
REMARK    1  A    between atoms: C_3  and  C_19
REMARK    2  A    between atoms: C_9  and  C_13
REMARK    3  A    between atoms: N_18  and  C_21
REMARK    4  A    between atoms: C_22  and  C_27
REMARK    5  A    between atoms: C_27  and  N_28
REMARK                            x       y       z     vdW  Elec       q    Type
REMARK                         _______ _______ _______ _____ _____    ______ ____
ROOT
ATOM      1  C   UNL     1      34.060 -22.656 -17.366  0.00  0.00    +0.000 C 
ATOM      2  C   UNL     1      35.085 -22.829 -16.406  0.00  0.00    +0.000 C 
ATOM      3  C   UNL     1      35.636 -21.518 -18.828  0.00  0.00    +0.054 C 
ATOM      4  C   UNL     1      34.351 -21.997 -18.572  0.00  0.00    +0.005 C 
ATOM      5  C   UNL     1      36.373 -22.340 -16.682  0.00  0.00    +0.000 C 
ATOM      6  C   UNL     1      34.794 -23.488 -15.201  0.00  0.00    +0.003 C 
ATOM      7  C   UNL     1      32.773 -23.146 -17.092  0.00  0.00    +0.000 C 
ATOM      8  C   UNL     1      36.644 -21.688 -17.884  0.00  0.00    +0.005 C 
ATOM      9  C   UNL     1      33.509 -23.968 -14.944  0.00  0.00    +0.031 C 
ATOM     10  C   UNL     1      32.500 -23.797 -15.888  0.00  0.00    +0.003 C 
ENDROOT
BRANCH   9  13
ATOM     11  N   UNL     1      32.025 -25.332 -13.494  0.00  0.00    -0.343 N 
ATOM     12  N   UNL     1      34.108 -24.618 -12.711  0.00  0.00    -0.285 NA
ATOM     13  C   UNL     1      33.223 -24.648 -13.691  0.00  0.00    +0.117 C 
ATOM     14  H   UNL     1      31.852 -25.784 -12.637  0.00  0.00    +0.144 HD
ATOM     15  H   UNL     1      31.352 -25.362 -14.211  0.00  0.00    +0.144 HD
ATOM     16  H   UNL     1      33.916 -25.078 -11.861  0.00  0.00    +0.188 HD
ENDBRANCH   9  13
BRANCH   3  19
ATOM     17  O   UNL     1      36.949 -21.136 -20.711  0.00  0.00    -0.270 OA
ATOM     18  N   UNL     1      34.971 -19.893 -20.494  0.00  0.00    -0.280 N 
ATOM     19  C   UNL     1      35.921 -20.838 -20.081  0.00  0.00    +0.249 C 
ATOM     20  H   UNL     1      34.206 -19.762 -19.888  0.00  0.00    +0.155 HD
BRANCH  18  21
ATOM     21  C   UNL     1      34.968 -19.100 -21.669  0.00  0.00    +0.051 C 
ATOM     22  C   UNL     1      34.961 -17.551 -23.962  0.00  0.00    -0.044 C 
ATOM     23  C   UNL     1      35.317 -17.763 -21.582  0.00  0.00    +0.014 C 
ATOM     24  C   UNL     1      34.615 -19.680 -22.875  0.00  0.00    +0.014 C 
ATOM     25  C   UNL     1      35.314 -16.982 -22.739  0.00  0.00    -0.005 C 
ATOM     26  C   UNL     1      34.612 -18.900 -24.031  0.00  0.00    -0.005 C 
BRANCH  22  27
ATOM     27  C   UNL     1      34.958 -16.716 -25.199  0.00  0.00    -0.059 C 
BRANCH  27  28
ATOM     28  N   UNL     1      33.759 -15.883 -25.306  0.00  0.00    +0.383 N 
ATOM     29  H   UNL     1      33.235 -16.148 -26.140  0.00  0.00    -0.089 HD
ATOM     30  H   UNL     1      34.032 -14.902 -25.373  0.00  0.00    -0.089 HD
ATOM     31  H   UNL     1      33.176 -16.019 -24.480  0.00  0.00    -0.089 HD
ENDBRANCH  27  28
ENDBRANCH  22  27
ENDBRANCH  18  21
ENDBRANCH   3  19
TORSDOF 5
ENDMDL
MODEL 7
REMARK VINA RESULT:     -10.2      1.836      9.556
REMARK  Name = 447733
REMARK  5 active torsions:
REMARK  status: ('A' for Active; 'I' for Inactive)
REMARK    1  A    between atoms: C_3  and  C_19
REMARK    2  A    between atoms: C_9  and  C_13
REMARK    3  A    between atoms: N_18  and  C_21
REMARK    4  A    between atoms: C_22  and  C_27
REMARK    5  A    between atoms: C_27  and  N_28
REMARK                            x       y       z     vdW  Elec       q    Type
REMARK                         _______ _______ _______ _____ _____    ______ ____
ROOT
ATOM      1  C   UNL     1      34.617 -22.815 -17.132  0.00  0.00    +0.000 C 
ATOM      2  C   UNL     1      35.992 -22.724 -16.809  0.00  0.00    +0.000 C 
ATOM      3  C   UNL     1      34.983 -21.371 -19.054  0.00  0.00    +0.054 C 
ATOM      4  C   UNL     1      34.127 -22.132 -18.257  0.00  0.00    +0.005 C 
ATOM      5  C   UNL     1      36.838 -21.953 -17.624  0.00  0.00    +0.000 C 
ATOM      6  C   UNL     1      36.481 -23.407 -15.684  0.00  0.00    +0.003 C 
ATOM      7  C   UNL     1      33.771 -23.587 -16.318  0.00  0.00    +0.000 C 
ATOM      8  C   UNL     1      36.334 -21.281 -18.738  0.00  0.00    +0.005 C 
ATOM      9  C   UNL     1      35.627 -24.168 -14.886  0.00  0.00    +0.031 C 
ATOM     10  C   UNL     1      34.274 -24.258 -15.203  0.00  0.00    +0.003 C 
ENDROOT
BRANCH   9  13
ATOM     11  N   UNL     1      37.456 -25.349 -13.692  0.00  0.00    -0.343 N 
ATOM     12  N   UNL     1      35.373 -25.067 -12.673  0.00  0.00    -0.285 NA
ATOM     13  C   UNL     1      36.148 -24.870 -13.724  0.00  0.00    +0.117 C 
ATOM     14  H   UNL     1      37.788 -25.822 -12.896  0.00  0.00    +0.144 HD
ATOM     15  H   UNL     1      38.048 -25.214 -14.468  0.00  0.00    +0.144 HD
ATOM     16  H   UNL     1      35.724 -25.542 -11.885  0.00  0.00    +0.188 HD
ENDBRANCH   9  13
BRANCH   3  19
ATOM     17  O   UNL     1      33.291 -20.884 -20.575  0.00  0.00    -0.270 OA
ATOM     18  N   UNL     1      35.340 -19.769 -20.833  0.00  0.00    -0.280 N 
ATOM     19  C   UNL     1      34.460 -20.670 -20.216  0.00  0.00    +0.249 C 
ATOM     20  H   UNL     1      36.238 -19.707 -20.434  0.00  0.00    +0.155 HD
BRANCH  18  21
ATOM     21  C   UNL     1      35.106 -18.936 -21.956  0.00  0.00    +0.051 C 
ATOM     22  C   UNL     1      34.650 -17.311 -24.150  0.00  0.00    -0.044 C 
ATOM     23  C   UNL     1      34.951 -19.514 -23.204  0.00  0.00    +0.014 C 
ATOM     24  C   UNL     1      35.039 -17.565 -21.778  0.00  0.00    +0.014 C 
ATOM     25  C   UNL     1      34.721 -18.695 -24.310  0.00  0.00    -0.005 C 
ATOM     26  C   UNL     1      34.809 -16.746 -22.884  0.00  0.00    -0.005 C 
BRANCH  22  27
ATOM     27  C   UNL     1      34.404 -16.436 -25.332  0.00  0.00    -0.059 C 
BRANCH  27  28
ATOM     28  N   UNL     1      33.604 -15.257 -24.995  0.00  0.00    +0.383 N 
ATOM     29  H   UNL     1      33.449 -15.227 -23.987  0.00  0.00    -0.089 HD
ATOM     30  H   UNL     1      32.705 -15.308 -25.475  0.00  0.00    -0.089 HD
ATOM     31  H   UNL     1      34.099 -14.415 -25.289  0.00  0.00    -0.089 HD
ENDBRANCH  27  28
ENDBRANCH  22  27
ENDBRANCH  18  21
ENDBRANCH   3  19
TORSDOF 5
ENDMDL
MODEL 8
REMARK VINA RESULT:     -10.2      9.040     13.432
REMARK  Name = 447733
REMARK  5 active torsions:
REMARK  status: ('A' for Active; 'I' for Inactive)
REMARK    1  A    between atoms: C_3  and  C_19
REMARK    2  A    between atoms: C_9  and  C_13
REMARK    3  A    between atoms: N_18  and  C_21
REMARK    4  A    between atoms: C_22  and  C_27
REMARK    5  A    between atoms: C_27  and  N_28
REMARK                            x       y       z     vdW  Elec       q    Type
REMARK                         _______ _______ _______ _____ _____    ______ ____
ROOT
ATOM      1  C   UNL     1      31.571  -7.811 -23.384  0.00  0.00    +0.000 C 
ATOM      2  C   UNL     1      31.748  -7.168 -22.136  0.00  0.00    +0.000 C 
ATOM      3  C   UNL     1      32.050  -9.953 -22.335  0.00  0.00    +0.054 C 
ATOM      4  C   UNL     1      31.726  -9.204 -23.468  0.00  0.00    +0.005 C 
ATOM      5  C   UNL     1      32.073  -7.938 -21.007  0.00  0.00    +0.000 C 
ATOM      6  C   UNL     1      31.592  -5.775 -22.053  0.00  0.00    +0.003 C 
ATOM      7  C   UNL     1      31.245  -7.042 -24.513  0.00  0.00    +0.000 C 
ATOM      8  C   UNL     1      32.224  -9.321 -21.108  0.00  0.00    +0.005 C 
ATOM      9  C   UNL     1      31.268  -5.025 -23.185  0.00  0.00    +0.031 C 
ATOM     10  C   UNL     1      31.095  -5.659 -24.413  0.00  0.00    +0.003 C 
ENDROOT
BRANCH   9  13
ATOM     11  N   UNL     1      31.899  -2.712 -23.831  0.00  0.00    -0.343 N 
ATOM     12  N   UNL     1      30.207  -3.078 -22.262  0.00  0.00    -0.285 NA
ATOM     13  C   UNL     1      31.110  -3.584 -23.083  0.00  0.00    +0.117 C 
ATOM     14  H   UNL     1      31.775  -1.740 -23.745  0.00  0.00    +0.144 HD
ATOM     15  H   UNL     1      32.580  -3.070 -24.446  0.00  0.00    +0.144 HD
ATOM     16  H   UNL     1      30.098  -2.102 -22.191  0.00  0.00    +0.188 HD
ENDBRANCH   9  13
BRANCH   3  19
ATOM     17  O   UNL     1      31.536 -12.131 -21.698  0.00  0.00    -0.270 OA
ATOM     18  N   UNL     1      33.115 -11.843 -23.410  0.00  0.00    -0.280 N 
ATOM     19  C   UNL     1      32.208 -11.395 -22.439  0.00  0.00    +0.249 C 
ATOM     20  H   UNL     1      33.576 -11.139 -23.921  0.00  0.00    +0.155 HD
BRANCH  18  21
ATOM     21  C   UNL     1      33.455 -13.176 -23.751  0.00  0.00    +0.051 C 
ATOM     22  C   UNL     1      34.118 -15.779 -24.418  0.00  0.00    -0.044 C 
ATOM     23  C   UNL     1      33.016 -13.697 -24.956  0.00  0.00    +0.014 C 
ATOM     24  C   UNL     1      34.216 -13.926 -22.871  0.00  0.00    +0.014 C 
ATOM     25  C   UNL     1      33.351 -15.009 -25.293  0.00  0.00    -0.005 C 
ATOM     26  C   UNL     1      34.551 -15.237 -23.207  0.00  0.00    -0.005 C 
BRANCH  22  27
ATOM     27  C   UNL     1      34.476 -17.181 -24.778  0.00  0.00    -0.059 C 
BRANCH  27  28
ATOM     28  N   UNL     1      35.499 -17.740 -23.893  0.00  0.00    +0.383 N 
ATOM     29  H   UNL     1      36.414 -17.373 -24.157  0.00  0.00    -0.089 HD
ATOM     30  H   UNL     1      35.504 -18.756 -23.978  0.00  0.00    -0.089 HD
ATOM     31  H   UNL     1      35.294 -17.479 -22.929  0.00  0.00    -0.089 HD
ENDBRANCH  27  28
ENDBRANCH  22  27
ENDBRANCH  18  21
ENDBRANCH   3  19
TORSDOF 5
ENDMDL
MODEL 9
REMARK VINA RESULT:     -10.2      2.496      9.727
REMARK  Name = 447733
REMARK  5 active torsions:
REMARK  status: ('A' for Active; 'I' for Inactive)
REMARK    1  A    between atoms: C_3  and  C_19
REMARK    2  A    between atoms: C_9  and  C_13
REMARK    3  A    between atoms: N_18  and  C_21
REMARK    4  A    between atoms: C_22  and  C_27
REMARK    5  A    between atoms: C_27  and  N_28
REMARK                            x       y       z     vdW  Elec       q    Type
REMARK                         _______ _______ _______ _____ _____    ______ ____
ROOT
ATOM      1  C   UNL     1      34.121 -21.821 -18.710  0.00  0.00    +0.000 C 
ATOM      2  C   UNL     1      35.434 -22.014 -18.219  0.00  0.00    +0.000 C 
ATOM      3  C   UNL     1      34.980 -20.259 -20.364  0.00  0.00    +0.054 C 
ATOM      4  C   UNL     1      33.910 -20.939 -19.782  0.00  0.00    +0.005 C 
ATOM      5  C   UNL     1      36.499 -21.320 -18.818  0.00  0.00    +0.000 C 
ATOM      6  C   UNL     1      35.644 -22.895 -17.146  0.00  0.00    +0.003 C 
ATOM      7  C   UNL     1      33.056 -22.514 -18.112  0.00  0.00    +0.000 C 
ATOM      8  C   UNL     1      36.272 -20.449 -19.882  0.00  0.00    +0.005 C 
ATOM      9  C   UNL     1      34.574 -23.576 -16.564  0.00  0.00    +0.031 C 
ATOM     10  C   UNL     1      33.282 -23.386 -17.047  0.00  0.00    +0.003 C 
ENDROOT
BRANCH   9  13
ATOM     11  N   UNL     1      33.888 -24.616 -14.416  0.00  0.00    -0.343 N 
ATOM     12  N   UNL     1      35.916 -25.205 -15.416  0.00  0.00    -0.285 NA
ATOM     13  C   UNL     1      34.808 -24.486 -15.454  0.00  0.00    +0.117 C 
ATOM     14  H   UNL     1      34.067 -25.237 -13.674  0.00  0.00    +0.144 HD
ATOM     15  H   UNL     1      33.058 -24.085 -14.425  0.00  0.00    +0.144 HD
ATOM     16  H   UNL     1      36.076 -25.821 -14.665  0.00  0.00    +0.188 HD
ENDBRANCH   9  13
BRANCH   3  19
ATOM     17  O   UNL     1      34.663 -19.809 -22.625  0.00  0.00    -0.270 OA
ATOM     18  N   UNL     1      34.606 -17.996 -21.137  0.00  0.00    -0.280 N 
ATOM     19  C   UNL     1      34.746 -19.350 -21.474  0.00  0.00    +0.249 C 
ATOM     20  H   UNL     1      34.698 -17.782 -20.180  0.00  0.00    +0.155 HD
BRANCH  18  21
ATOM     21  C   UNL     1      34.350 -16.895 -21.992  0.00  0.00    +0.051 C 
ATOM     22  C   UNL     1      33.850 -14.745 -23.662  0.00  0.00    -0.044 C 
ATOM     23  C   UNL     1      33.439 -15.930 -21.598  0.00  0.00    +0.014 C 
ATOM     24  C   UNL     1      35.017 -16.811 -23.203  0.00  0.00    +0.014 C 
ATOM     25  C   UNL     1      33.187 -14.846 -22.439  0.00  0.00    -0.005 C 
ATOM     26  C   UNL     1      34.765 -15.728 -24.044  0.00  0.00    -0.005 C 
BRANCH  22  27
ATOM     27  C   UNL     1      33.581 -13.587 -24.562  0.00  0.00    -0.059 C 
BRANCH  27  28
ATOM     28  N   UNL     1      34.092 -12.328 -24.018  0.00  0.00    +0.383 N 
ATOM     29  H   UNL     1      34.970 -12.500 -23.529  0.00  0.00    -0.089 HD
ATOM     30  H   UNL     1      33.411 -11.938 -23.366  0.00  0.00    -0.089 HD
ATOM     31  H   UNL     1      34.251 -11.668 -24.780  0.00  0.00    -0.089 HD
ENDBRANCH  27  28
ENDBRANCH  22  27
ENDBRANCH  18  21
ENDBRANCH   3  19
TORSDOF 5
ENDMDL
