MODEL 1
REMARK VINA RESULT:      -9.1      0.000      0.000
REMARK  Name = 154048
REMARK  3 active torsions:
REMARK  status: ('A' for Active; 'I' for Inactive)
REMARK    1  A    between atoms: C_6  and  C_16
REMARK    2  A    between atoms: C_10  and  O_18
REMARK    3  A    between atoms: O_18  and  C_19
REMARK                            x       y       z     vdW  Elec       q    Type
REMARK                         _______ _______ _______ _____ _____    ______ ____
ROOT
ATOM      1  F   UNL     1      29.341 -22.526 -14.804  0.00  0.00    -0.204 F 
ATOM      2  O   UNL     1      36.377 -25.421 -14.984  0.00  0.00    -0.273 OA
ATOM      3  O   UNL     1      32.452 -22.564 -18.297  0.00  0.00    -0.226 OA
ATOM      4  N   UNL     1      33.809 -23.357 -16.542  0.00  0.00    -0.217 N 
ATOM      5  N   UNL     1      34.239 -25.015 -14.300  0.00  0.00    -0.282 N 
ATOM      6  C   UNL     1      35.189 -23.676 -16.125  0.00  0.00    +0.159 C 
ATOM      7  C   UNL     1      32.774 -23.534 -15.564  0.00  0.00    +0.073 C 
ATOM      8  C   UNL     1      35.312 -24.817 -15.129  0.00  0.00    +0.245 C 
ATOM      9  C   UNL     1      33.014 -24.357 -14.455  0.00  0.00    +0.064 C 
ATOM     10  C   UNL     1      33.553 -22.863 -17.842  0.00  0.00    +0.409 C 
ATOM     11  C   UNL     1      31.517 -22.917 -15.658  0.00  0.00    +0.046 C 
ATOM     12  C   UNL     1      32.023 -24.584 -13.490  0.00  0.00    +0.018 C 
ATOM     13  C   UNL     1      30.531 -23.134 -14.690  0.00  0.00    +0.141 C 
ATOM     14  C   UNL     1      30.780 -23.971 -13.611  0.00  0.00    +0.031 C 
ATOM     15  H   UNL     1      34.334 -25.653 -13.557  0.00  0.00    +0.155 HD
ENDROOT
BRANCH   6  16
ATOM     16  C   UNL     1      35.871 -22.435 -15.541  0.00  0.00    +0.030 C 
ATOM     17  C   UNL     1      37.303 -22.319 -16.024  0.00  0.00    +0.002 C 
ENDBRANCH   6  16
BRANCH  10  18
ATOM     18  O   UNL     1      34.699 -22.763 -18.594  0.00  0.00    -0.438 OA
BRANCH  18  19
ATOM     19  C   UNL     1      35.079 -21.444 -19.005  0.00  0.00    +0.171 C 
ATOM     20  C   UNL     1      36.534 -21.456 -19.448  0.00  0.00    +0.047 C 
ATOM     21  C   UNL     1      34.152 -20.979 -20.116  0.00  0.00    +0.047 C 
ENDBRANCH  18  19
ENDBRANCH  10  18
TORSDOF 3
ENDMDL
MODEL 2
REMARK VINA RESULT:      -8.8      9.592     12.250
REMARK  Name = 154048
REMARK  3 active torsions:
REMARK  status: ('A' for Active; 'I' for Inactive)
REMARK    1  A    between atoms: C_6  and  C_16
REMARK    2  A    between atoms: C_10  and  O_18
REMARK    3  A    between atoms: O_18  and  C_19
REMARK                            x       y       z     vdW  Elec       q    Type
REMARK                         _______ _______ _______ _____ _____    ______ ____
ROOT
ATOM      1  F   UNL     1      35.570 -17.586 -20.600  0.00  0.00    -0.204 F 
ATOM      2  O   UNL     1      32.652 -14.335 -26.831  0.00  0.00    -0.273 OA
ATOM      3  O   UNL     1      32.391 -14.173 -20.962  0.00  0.00    -0.226 OA
ATOM      4  N   UNL     1      33.074 -14.327 -23.211  0.00  0.00    -0.217 N 
ATOM      5  N   UNL     1      33.737 -15.837 -25.500  0.00  0.00    -0.282 N 
ATOM      6  C   UNL     1      33.006 -13.697 -24.545  0.00  0.00    +0.159 C 
ATOM      7  C   UNL     1      33.872 -15.512 -23.089  0.00  0.00    +0.073 C 
ATOM      8  C   UNL     1      33.062 -14.664 -25.716  0.00  0.00    +0.245 C 
ATOM      9  C   UNL     1      34.195 -16.242 -24.242  0.00  0.00    +0.064 C 
ATOM     10  C   UNL     1      32.405 -13.741 -22.112  0.00  0.00    +0.409 C 
ATOM     11  C   UNL     1      34.357 -15.988 -21.860  0.00  0.00    +0.046 C 
ATOM     12  C   UNL     1      34.945 -17.424 -24.168  0.00  0.00    +0.018 C 
ATOM     13  C   UNL     1      35.116 -17.160 -21.787  0.00  0.00    +0.141 C 
ATOM     14  C   UNL     1      35.404 -17.882 -22.938  0.00  0.00    +0.031 C 
ATOM     15  H   UNL     1      33.908 -16.426 -26.271  0.00  0.00    +0.155 HD
ENDROOT
BRANCH   6  16
ATOM     16  C   UNL     1      34.125 -12.662 -24.705  0.00  0.00    +0.030 C 
ATOM     17  C   UNL     1      33.704 -11.542 -25.635  0.00  0.00    +0.002 C 
ENDBRANCH   6  16
BRANCH  10  18
ATOM     18  O   UNL     1      31.719 -12.605 -22.467  0.00  0.00    -0.438 OA
BRANCH  18  19
ATOM     19  C   UNL     1      31.949 -11.444 -21.659  0.00  0.00    +0.171 C 
ATOM     20  C   UNL     1      32.139 -10.234 -22.563  0.00  0.00    +0.047 C 
ATOM     21  C   UNL     1      30.781 -11.259 -20.703  0.00  0.00    +0.047 C 
ENDBRANCH  18  19
ENDBRANCH  10  18
TORSDOF 3
ENDMDL
MODEL 3
REMARK VINA RESULT:      -8.3     11.116     13.893
REMARK  Name = 154048
REMARK  3 active torsions:
REMARK  status: ('A' for Active; 'I' for Inactive)
REMARK    1  A    between atoms: C_6  and  C_16
REMARK    2  A    between atoms: C_10  and  O_18
REMARK    3  A    between atoms: O_18  and  C_19
REMARK                            x       y       z     vdW  Elec       q    Type
REMARK                         _______ _______ _______ _____ _____    ______ ____
ROOT
ATOM      1  F   UNL     1      32.385 -14.848 -19.542  0.00  0.00    -0.204 F 
ATOM      2  O   UNL     1      33.826 -12.042 -26.467  0.00  0.00    -0.273 OA
ATOM      3  O   UNL     1      31.059 -10.782 -21.437  0.00  0.00    -0.226 OA
ATOM      4  N   UNL     1      32.573 -11.519 -23.085  0.00  0.00    -0.217 N 
ATOM      5  N   UNL     1      33.629 -13.534 -24.753  0.00  0.00    -0.282 N 
ATOM      6  C   UNL     1      33.321 -11.141 -24.301  0.00  0.00    +0.159 C 
ATOM      7  C   UNL     1      32.781 -12.844 -22.576  0.00  0.00    +0.073 C 
ATOM      8  C   UNL     1      33.560 -12.273 -25.286  0.00  0.00    +0.245 C 
ATOM      9  C   UNL     1      33.314 -13.827 -23.422  0.00  0.00    +0.064 C 
ATOM     10  C   UNL     1      31.727 -10.582 -22.449  0.00  0.00    +0.409 C 
ATOM     11  C   UNL     1      32.477 -13.215 -21.256  0.00  0.00    +0.046 C 
ATOM     12  C   UNL     1      33.505 -15.142 -22.978  0.00  0.00    +0.018 C 
ATOM     13  C   UNL     1      32.678 -14.525 -20.809  0.00  0.00    +0.141 C 
ATOM     14  C   UNL     1      33.186 -15.490 -21.670  0.00  0.00    +0.031 C 
ATOM     15  H   UNL     1      33.915 -14.273 -25.338  0.00  0.00    +0.155 HD
ENDROOT
BRANCH   6  16
ATOM     16  C   UNL     1      34.670 -10.518 -23.926  0.00  0.00    +0.030 C 
ATOM     17  C   UNL     1      34.853  -9.170 -24.591  0.00  0.00    +0.002 C 
ENDBRANCH   6  16
BRANCH  10  18
ATOM     18  O   UNL     1      31.699  -9.377 -23.108  0.00  0.00    -0.438 OA
BRANCH  18  19
ATOM     19  C   UNL     1      31.602  -8.205 -22.290  0.00  0.00    +0.171 C 
ATOM     20  C   UNL     1      32.982  -7.849 -21.758  0.00  0.00    +0.047 C 
ATOM     21  C   UNL     1      30.999  -7.072 -23.105  0.00  0.00    +0.047 C 
ENDBRANCH  18  19
ENDBRANCH  10  18
TORSDOF 3
ENDMDL
MODEL 4
REMARK VINA RESULT:      -8.3      7.176     10.207
REMARK  Name = 154048
REMARK  3 active torsions:
REMARK  status: ('A' for Active; 'I' for Inactive)
REMARK    1  A    between atoms: C_6  and  C_16
REMARK    2  A    between atoms: C_10  and  O_18
REMARK    3  A    between atoms: O_18  and  C_19
REMARK                            x       y       z     vdW  Elec       q    Type
REMARK                         _______ _______ _______ _____ _____    ______ ____
ROOT
ATOM      1  F   UNL     1      32.073 -13.735 -19.948  0.00  0.00    -0.204 F 
ATOM      2  O   UNL     1      35.290 -16.771 -26.140  0.00  0.00    -0.273 OA
ATOM      3  O   UNL     1      35.421 -16.986 -20.269  0.00  0.00    -0.226 OA
ATOM      4  N   UNL     1      34.784 -16.841 -22.532  0.00  0.00    -0.217 N 
ATOM      5  N   UNL     1      34.103 -15.338 -24.821  0.00  0.00    -0.282 N 
ATOM      6  C   UNL     1      34.914 -17.451 -23.870  0.00  0.00    +0.159 C 
ATOM      7  C   UNL     1      33.927 -15.696 -22.417  0.00  0.00    +0.073 C 
ATOM      8  C   UNL     1      34.839 -16.475 -25.032  0.00  0.00    +0.245 C 
ATOM      9  C   UNL     1      33.596 -14.970 -23.569  0.00  0.00    +0.064 C 
ATOM     10  C   UNL     1      35.455 -17.406 -21.423  0.00  0.00    +0.409 C 
ATOM     11  C   UNL     1      33.391 -15.259 -21.195  0.00  0.00    +0.046 C 
ATOM     12  C   UNL     1      32.788 -13.827 -23.502  0.00  0.00    +0.018 C 
ATOM     13  C   UNL     1      32.575 -14.125 -21.127  0.00  0.00    +0.141 C 
ATOM     14  C   UNL     1      32.278 -13.405 -22.278  0.00  0.00    +0.031 C 
ATOM     15  H   UNL     1      33.921 -14.750 -25.589  0.00  0.00    +0.155 HD
ENDROOT
BRANCH   6  16
ATOM     16  C   UNL     1      33.851 -18.537 -24.068  0.00  0.00    +0.030 C 
ATOM     17  C   UNL     1      34.442 -19.768 -24.724  0.00  0.00    +0.002 C 
ENDBRANCH   6  16
BRANCH  10  18
ATOM     18  O   UNL     1      36.203 -18.503 -21.773  0.00  0.00    -0.438 OA
BRANCH  18  19
ATOM     19  C   UNL     1      35.792 -19.759 -21.217  0.00  0.00    +0.171 C 
ATOM     20  C   UNL     1      36.724 -20.130 -20.074  0.00  0.00    +0.047 C 
ATOM     21  C   UNL     1      34.346 -19.654 -20.759  0.00  0.00    +0.047 C 
ENDBRANCH  18  19
ENDBRANCH  10  18
TORSDOF 3
ENDMDL
MODEL 5
REMARK VINA RESULT:      -8.2      9.914     12.888
REMARK  Name = 154048
REMARK  3 active torsions:
REMARK  status: ('A' for Active; 'I' for Inactive)
REMARK    1  A    between atoms: C_6  and  C_16
REMARK    2  A    between atoms: C_10  and  O_18
REMARK    3  A    between atoms: O_18  and  C_19
REMARK                            x       y       z     vdW  Elec       q    Type
REMARK                         _______ _______ _______ _____ _____    ______ ____
ROOT
ATOM      1  F   UNL     1      31.188 -11.905 -19.297  0.00  0.00    -0.204 F 
ATOM      2  O   UNL     1      34.359 -11.535 -26.205  0.00  0.00    -0.273 OA
ATOM      3  O   UNL     1      34.277 -14.785 -21.309  0.00  0.00    -0.226 OA
ATOM      4  N   UNL     1      33.730 -13.429 -23.156  0.00  0.00    -0.217 N 
ATOM      5  N   UNL     1      33.246 -10.904 -24.317  0.00  0.00    -0.282 N 
ATOM      6  C   UNL     1      33.856 -13.263 -24.618  0.00  0.00    +0.159 C 
ATOM      7  C   UNL     1      32.962 -12.444 -22.450  0.00  0.00    +0.073 C 
ATOM      8  C   UNL     1      33.897 -11.822 -25.099  0.00  0.00    +0.245 C 
ATOM      9  C   UNL     1      32.729 -11.199 -23.051  0.00  0.00    +0.064 C 
ATOM     10  C   UNL     1      34.317 -14.543 -22.513  0.00  0.00    +0.409 C 
ATOM     11  C   UNL     1      32.422 -12.663 -21.173  0.00  0.00    +0.046 C 
ATOM     12  C   UNL     1      32.011 -10.195 -22.387  0.00  0.00    +0.018 C 
ATOM     13  C   UNL     1      31.696 -11.665 -20.514  0.00  0.00    +0.141 C 
ATOM     14  C   UNL     1      31.496 -10.430 -21.116  0.00  0.00    +0.031 C 
ATOM     15  H   UNL     1      33.137  -9.989 -24.663  0.00  0.00    +0.155 HD
ENDROOT
BRANCH   6  16
ATOM     16  C   UNL     1      32.717 -13.992 -25.339  0.00  0.00    +0.030 C 
ATOM     17  C   UNL     1      33.197 -14.603 -26.640  0.00  0.00    +0.002 C 
ENDBRANCH   6  16
BRANCH  10  18
ATOM     18  O   UNL     1      34.987 -15.357 -23.394  0.00  0.00    -0.438 OA
BRANCH  18  19
ATOM     19  C   UNL     1      34.635 -16.746 -23.371  0.00  0.00    +0.171 C 
ATOM     20  C   UNL     1      34.582 -17.273 -24.797  0.00  0.00    +0.047 C 
ATOM     21  C   UNL     1      35.645 -17.505 -22.524  0.00  0.00    +0.047 C 
ENDBRANCH  18  19
ENDBRANCH  10  18
TORSDOF 3
ENDMDL
MODEL 6
REMARK VINA RESULT:      -7.9     14.070     16.413
REMARK  Name = 154048
REMARK  3 active torsions:
REMARK  status: ('A' for Active; 'I' for Inactive)
REMARK    1  A    between atoms: C_6  and  C_16
REMARK    2  A    between atoms: C_10  and  O_18
REMARK    3  A    between atoms: O_18  and  C_19
REMARK                            x       y       z     vdW  Elec       q    Type
REMARK                         _______ _______ _______ _____ _____    ______ ____
ROOT
ATOM      1  F   UNL     1      31.622 -12.901 -22.767  0.00  0.00    -0.204 F 
ATOM      2  O   UNL     1      32.652  -6.230 -19.253  0.00  0.00    -0.273 OA
ATOM      3  O   UNL     1      33.717  -9.017 -24.317  0.00  0.00    -0.226 OA
ATOM      4  N   UNL     1      32.776  -8.196 -22.320  0.00  0.00    -0.217 N 
ATOM      5  N   UNL     1      32.201  -8.444 -19.569  0.00  0.00    -0.282 N 
ATOM      6  C   UNL     1      32.483  -6.987 -21.524  0.00  0.00    +0.159 C 
ATOM      7  C   UNL     1      32.340  -9.453 -21.782  0.00  0.00    +0.073 C 
ATOM      8  C   UNL     1      32.509  -7.187 -20.018  0.00  0.00    +0.245 C 
ATOM      9  C   UNL     1      32.053  -9.549 -20.413  0.00  0.00    +0.064 C 
ATOM     10  C   UNL     1      33.424  -8.086 -23.571  0.00  0.00    +0.409 C 
ATOM     11  C   UNL     1      32.180 -10.608 -22.565  0.00  0.00    +0.046 C 
ATOM     12  C   UNL     1      31.654 -10.764 -19.838  0.00  0.00    +0.018 C 
ATOM     13  C   UNL     1      31.771 -11.817 -21.994  0.00  0.00    +0.141 C 
ATOM     14  C   UNL     1      31.515 -11.898 -20.631  0.00  0.00    +0.031 C 
ATOM     15  H   UNL     1      32.077  -8.577 -18.601  0.00  0.00    +0.155 HD
ENDROOT
BRANCH   6  16
ATOM     16  C   UNL     1      31.123  -6.403 -21.921  0.00  0.00    +0.030 C 
ATOM     17  C   UNL     1      31.210  -4.905 -22.126  0.00  0.00    +0.002 C 
ENDBRANCH   6  16
BRANCH  10  18
ATOM     18  O   UNL     1      33.731  -6.783 -23.883  0.00  0.00    -0.438 OA
BRANCH  18  19
ATOM     19  C   UNL     1      33.487  -6.377 -25.236  0.00  0.00    +0.171 C 
ATOM     20  C   UNL     1      32.477  -5.241 -25.244  0.00  0.00    +0.047 C 
ATOM     21  C   UNL     1      34.802  -5.972 -25.882  0.00  0.00    +0.047 C 
ENDBRANCH  18  19
ENDBRANCH  10  18
TORSDOF 3
ENDMDL
MODEL 7
REMARK VINA RESULT:      -7.9      8.984     11.124
REMARK  Name = 154048
REMARK  3 active torsions:
REMARK  status: ('A' for Active; 'I' for Inactive)
REMARK    1  A    between atoms: C_6  and  C_16
REMARK    2  A    between atoms: C_10  and  O_18
REMARK    3  A    between atoms: O_18  and  C_19
REMARK                            x       y       z     vdW  Elec       q    Type
REMARK                         _______ _______ _______ _____ _____    ______ ____
ROOT
ATOM      1  F   UNL     1      34.359 -19.788 -25.466  0.00  0.00    -0.204 F 
ATOM      2  O   UNL     1      35.058 -14.374 -20.165  0.00  0.00    -0.273 OA
ATOM      3  O   UNL     1      33.637 -15.179 -25.810  0.00  0.00    -0.226 OA
ATOM      4  N   UNL     1      33.915 -15.369 -23.479  0.00  0.00    -0.217 N 
ATOM      5  N   UNL     1      35.269 -16.384 -21.221  0.00  0.00    -0.282 N 
ATOM      6  C   UNL     1      33.794 -14.673 -22.182  0.00  0.00    +0.159 C 
ATOM      7  C   UNL     1      34.344 -16.738 -23.448  0.00  0.00    +0.073 C 
ATOM      8  C   UNL     1      34.801 -15.099 -21.128  0.00  0.00    +0.245 C 
ATOM      9  C   UNL     1      35.008 -17.221 -22.312  0.00  0.00    +0.064 C 
ATOM     10  C   UNL     1      33.577 -14.703 -24.679  0.00  0.00    +0.409 C 
ATOM     11  C   UNL     1      34.129 -17.633 -24.508  0.00  0.00    +0.046 C 
ATOM     12  C   UNL     1      35.473 -18.542 -22.248  0.00  0.00    +0.018 C 
ATOM     13  C   UNL     1      34.583 -18.954 -24.441  0.00  0.00    +0.141 C 
ATOM     14  C   UNL     1      35.260 -19.408 -23.316  0.00  0.00    +0.031 C 
ATOM     15  H   UNL     1      35.816 -16.737 -20.483  0.00  0.00    +0.155 HD
ENDROOT
BRANCH   6  16
ATOM     16  C   UNL     1      32.381 -14.844 -21.614  0.00  0.00    +0.030 C 
ATOM     17  C   UNL     1      31.897 -13.567 -20.958  0.00  0.00    +0.002 C 
ENDBRANCH   6  16
BRANCH  10  18
ATOM     18  O   UNL     1      33.179 -13.407 -24.459  0.00  0.00    -0.438 OA
BRANCH  18  19
ATOM     19  C   UNL     1      34.040 -12.381 -24.967  0.00  0.00    +0.171 C 
ATOM     20  C   UNL     1      33.704 -12.122 -26.428  0.00  0.00    +0.047 C 
ATOM     21  C   UNL     1      33.884 -11.129 -24.119  0.00  0.00    +0.047 C 
ENDBRANCH  18  19
ENDBRANCH  10  18
TORSDOF 3
ENDMDL
MODEL 8
REMARK VINA RESULT:      -7.7      2.623      5.700
REMARK  Name = 154048
REMARK  3 active torsions:
REMARK  status: ('A' for Active; 'I' for Inactive)
REMARK    1  A    between atoms: C_6  and  C_16
REMARK    2  A    between atoms: C_10  and  O_18
REMARK    3  A    between atoms: O_18  and  C_19
REMARK                            x       y       z     vdW  Elec       q    Type
REMARK                         _______ _______ _______ _____ _____    ______ ____
ROOT
ATOM      1  F   UNL     1      36.930 -20.958 -19.320  0.00  0.00    -0.204 F 
ATOM      2  O   UNL     1      30.840 -24.250 -16.160  0.00  0.00    -0.273 OA
ATOM      3  O   UNL     1      36.704 -24.051 -15.817  0.00  0.00    -0.226 OA
ATOM      4  N   UNL     1      34.415 -23.549 -16.059  0.00  0.00    -0.217 N 
ATOM      5  N   UNL     1      32.131 -23.112 -17.656  0.00  0.00    -0.282 N 
ATOM      6  C   UNL     1      33.071 -23.701 -15.467  0.00  0.00    +0.159 C 
ATOM      7  C   UNL     1      34.513 -22.780 -17.266  0.00  0.00    +0.073 C 
ATOM      8  C   UNL     1      31.931 -23.766 -16.469  0.00  0.00    +0.245 C 
ATOM      9  C   UNL     1      33.363 -22.570 -18.039  0.00  0.00    +0.064 C 
ATOM     10  C   UNL     1      35.543 -24.113 -15.420  0.00  0.00    +0.409 C 
ATOM     11  C   UNL     1      35.716 -22.216 -17.720  0.00  0.00    +0.046 C 
ATOM     12  C   UNL     1      33.417 -21.852 -19.242  0.00  0.00    +0.018 C 
ATOM     13  C   UNL     1      35.769 -21.490 -18.914  0.00  0.00    +0.141 C 
ATOM     14  C   UNL     1      34.622 -21.313 -19.678  0.00  0.00    +0.031 C 
ATOM     15  H   UNL     1      31.369 -23.018 -18.273  0.00  0.00    +0.155 HD
ENDROOT
BRANCH   6  16
ATOM     16  C   UNL     1      32.793 -22.568 -14.474  0.00  0.00    +0.030 C 
ATOM     17  C   UNL     1      31.911 -23.041 -13.337  0.00  0.00    +0.002 C 
ENDBRANCH   6  16
BRANCH  10  18
ATOM     18  O   UNL     1      35.205 -24.790 -14.273  0.00  0.00    -0.438 OA
BRANCH  18  19
ATOM     19  C   UNL     1      36.056 -24.584 -13.138  0.00  0.00    +0.171 C 
ATOM     20  C   UNL     1      35.204 -24.209 -11.934  0.00  0.00    +0.047 C 
ATOM     21  C   UNL     1      36.870 -25.843 -12.886  0.00  0.00    +0.047 C 
ENDBRANCH  18  19
ENDBRANCH  10  18
TORSDOF 3
ENDMDL
MODEL 9
REMARK VINA RESULT:      -7.7      9.790     12.249
REMARK  Name = 154048
REMARK  3 active torsions:
REMARK  status: ('A' for Active; 'I' for Inactive)
REMARK    1  A    between atoms: C_6  and  C_16
REMARK    2  A    between atoms: C_10  and  O_18
REMARK    3  A    between atoms: O_18  and  C_19
REMARK                            x       y       z     vdW  Elec       q    Type
REMARK                         _______ _______ _______ _____ _____    ______ ____
ROOT
ATOM      1  F   UNL     1      34.673 -10.994 -26.466  0.00  0.00    -0.204 F 
ATOM      2  O   UNL     1      31.908 -14.740 -20.447  0.00  0.00    -0.273 OA
ATOM      3  O   UNL     1      34.067 -15.591 -25.846  0.00  0.00    -0.226 OA
ATOM      4  N   UNL     1      33.620 -14.829 -23.662  0.00  0.00    -0.217 N 
ATOM      5  N   UNL     1      32.394 -13.027 -21.871  0.00  0.00    -0.282 N 
ATOM      6  C   UNL     1      33.403 -15.231 -22.258  0.00  0.00    +0.159 C 
ATOM      7  C   UNL     1      33.603 -13.423 -23.949  0.00  0.00    +0.073 C 
ATOM      8  C   UNL     1      32.459 -14.336 -21.473  0.00  0.00    +0.245 C 
ATOM      9  C   UNL     1      32.994 -12.547 -23.041  0.00  0.00    +0.064 C 
ATOM     10  C   UNL     1      33.873 -15.806 -24.652  0.00  0.00    +0.409 C 
ATOM     11  C   UNL     1      34.173 -12.870 -25.107  0.00  0.00    +0.046 C 
ATOM     12  C   UNL     1      32.925 -11.170 -23.294  0.00  0.00    +0.018 C 
ATOM     13  C   UNL     1      34.115 -11.495 -25.355  0.00  0.00    +0.141 C 
ATOM     14  C   UNL     1      33.486 -10.645 -24.454  0.00  0.00    +0.031 C 
ATOM     15  H   UNL     1      31.899 -12.390 -21.307  0.00  0.00    +0.155 HD
ENDROOT
BRANCH   6  16
ATOM     16  C   UNL     1      34.740 -15.314 -21.513  0.00  0.00    +0.030 C 
ATOM     17  C   UNL     1      34.826 -16.578 -20.684  0.00  0.00    +0.002 C 
ENDBRANCH   6  16
BRANCH  10  18
ATOM     18  O   UNL     1      33.856 -17.081 -24.139  0.00  0.00    -0.438 OA
BRANCH  18  19
ATOM     19  C   UNL     1      34.884 -17.967 -24.601  0.00  0.00    +0.171 C 
ATOM     20  C   UNL     1      35.753 -18.382 -23.424  0.00  0.00    +0.047 C 
ATOM     21  C   UNL     1      34.243 -19.165 -25.283  0.00  0.00    +0.047 C 
ENDBRANCH  18  19
ENDBRANCH  10  18
TORSDOF 3
ENDMDL
