MODEL 1
REMARK VINA RESULT:      -8.5      0.000      0.000
REMARK  Name = 1536
REMARK  4 active torsions:
REMARK  status: ('A' for Active; 'I' for Inactive)
REMARK    1  A    between atoms: S_1  and  C_4
REMARK    2  A    between atoms: S_1  and  C_12
REMARK    3  A    between atoms: C_13  and  C_22
REMARK    4  A    between atoms: C_15  and  N_18
REMARK                            x       y       z     vdW  Elec       q    Type
REMARK                         _______ _______ _______ _____ _____    ______ ____
ROOT
ATOM      1  S   UNL     1      35.371 -18.641 -22.696  0.00  0.00    +0.028 S 
ATOM      2  O   UNL     1      34.442 -19.055 -23.735  0.00  0.00    -0.164 OA
ATOM      3  O   UNL     1      36.804 -18.661 -22.948  0.00  0.00    -0.164 OA
ENDROOT
BRANCH   1   4
ATOM      4  C   UNL     1      35.132 -19.698 -21.296  0.00  0.00    +0.110 C 
ATOM      5  C   UNL     1      36.239 -20.171 -20.614  0.00  0.00    +0.014 C 
ATOM      6  C   UNL     1      33.845 -20.030 -20.915  0.00  0.00    +0.014 C 
ATOM      7  C   UNL     1      36.050 -21.005 -19.511  0.00  0.00    -0.021 C 
ATOM      8  C   UNL     1      33.657 -20.863 -19.812  0.00  0.00    -0.021 C 
ATOM      9  C   UNL     1      34.760 -21.351 -19.111  0.00  0.00    -0.008 C 
ATOM     10  C   UNL     1      37.229 -21.527 -18.762  0.00  0.00    +0.031 C 
ATOM     11  C   UNL     1      32.277 -21.233 -19.383  0.00  0.00    +0.031 C 
ENDBRANCH   1   4
BRANCH   1  12
ATOM     12  C   UNL     1      34.900 -17.014 -22.242  0.00  0.00    +0.121 C 
ATOM     13  C   UNL     1      34.612 -16.035 -23.192  0.00  0.00    +0.099 C 
ATOM     14  C   UNL     1      34.820 -16.711 -20.882  0.00  0.00    +0.020 C 
ATOM     15  C   UNL     1      34.244 -14.753 -22.784  0.00  0.00    +0.053 C 
ATOM     16  C   UNL     1      34.451 -15.429 -20.474  0.00  0.00    +0.003 C 
ATOM     17  C   UNL     1      34.164 -14.450 -21.425  0.00  0.00    +0.015 C 
BRANCH  15  18
ATOM     18  N   UNL     1      33.945 -13.739 -23.723  0.00  0.00    -0.356 N 
ATOM     19  H   UNL     1      33.205 -13.860 -24.360  0.00  0.00    +0.142 HD
ATOM     20  H   UNL     1      34.478 -12.910 -23.739  0.00  0.00    +0.142 HD
ENDBRANCH  15  18
BRANCH  13  22
ATOM     21  N   UNL     1      34.758 -16.587 -25.720  0.00  0.00    -0.191 NA
ATOM     22  C   UNL     1      34.693 -16.341 -24.592  0.00  0.00    +0.103 C 
ENDBRANCH  13  22
ENDBRANCH   1  12
TORSDOF 4
ENDMDL
MODEL 2
REMARK VINA RESULT:      -8.5      0.003      1.915
REMARK  Name = 1536
REMARK  4 active torsions:
REMARK  status: ('A' for Active; 'I' for Inactive)
REMARK    1  A    between atoms: S_1  and  C_4
REMARK    2  A    between atoms: S_1  and  C_12
REMARK    3  A    between atoms: C_13  and  C_22
REMARK    4  A    between atoms: C_15  and  N_18
REMARK                            x       y       z     vdW  Elec       q    Type
REMARK                         _______ _______ _______ _____ _____    ______ ____
ROOT
ATOM      1  S   UNL     1      35.372 -18.641 -22.694  0.00  0.00    +0.028 S 
ATOM      2  O   UNL     1      34.445 -19.055 -23.734  0.00  0.00    -0.164 OA
ATOM      3  O   UNL     1      36.806 -18.661 -22.945  0.00  0.00    -0.164 OA
ENDROOT
BRANCH   1   4
ATOM      4  C   UNL     1      35.132 -19.699 -21.295  0.00  0.00    +0.110 C 
ATOM      5  C   UNL     1      33.844 -20.030 -20.915  0.00  0.00    +0.014 C 
ATOM      6  C   UNL     1      36.237 -20.171 -20.611  0.00  0.00    +0.014 C 
ATOM      7  C   UNL     1      33.655 -20.863 -19.812  0.00  0.00    -0.021 C 
ATOM      8  C   UNL     1      36.048 -21.005 -19.509  0.00  0.00    -0.021 C 
ATOM      9  C   UNL     1      34.757 -21.350 -19.110  0.00  0.00    -0.008 C 
ATOM     10  C   UNL     1      32.275 -21.232 -19.385  0.00  0.00    +0.031 C 
ATOM     11  C   UNL     1      37.226 -21.527 -18.757  0.00  0.00    +0.031 C 
ENDBRANCH   1   4
BRANCH   1  12
ATOM     12  C   UNL     1      34.900 -17.014 -22.241  0.00  0.00    +0.121 C 
ATOM     13  C   UNL     1      34.613 -16.035 -23.191  0.00  0.00    +0.099 C 
ATOM     14  C   UNL     1      34.820 -16.712 -20.880  0.00  0.00    +0.020 C 
ATOM     15  C   UNL     1      34.243 -14.754 -22.783  0.00  0.00    +0.053 C 
ATOM     16  C   UNL     1      34.451 -15.430 -20.473  0.00  0.00    +0.003 C 
ATOM     17  C   UNL     1      34.163 -14.451 -21.424  0.00  0.00    +0.015 C 
BRANCH  15  18
ATOM     18  N   UNL     1      33.944 -13.739 -23.722  0.00  0.00    -0.356 N 
ATOM     19  H   UNL     1      33.163 -13.831 -24.312  0.00  0.00    +0.142 HD
ATOM     20  H   UNL     1      34.519 -12.941 -23.784  0.00  0.00    +0.142 HD
ENDBRANCH  15  18
BRANCH  13  22
ATOM     21  N   UNL     1      34.759 -16.587 -25.719  0.00  0.00    -0.191 NA
ATOM     22  C   UNL     1      34.694 -16.341 -24.590  0.00  0.00    +0.103 C 
ENDBRANCH  13  22
ENDBRANCH   1  12
TORSDOF 4
ENDMDL
MODEL 3
REMARK VINA RESULT:      -8.3      2.374      3.872
REMARK  Name = 1536
REMARK  4 active torsions:
REMARK  status: ('A' for Active; 'I' for Inactive)
REMARK    1  A    between atoms: S_1  and  C_4
REMARK    2  A    between atoms: S_1  and  C_12
REMARK    3  A    between atoms: C_13  and  C_22
REMARK    4  A    between atoms: C_15  and  N_18
REMARK                            x       y       z     vdW  Elec       q    Type
REMARK                         _______ _______ _______ _____ _____    ______ ____
ROOT
ATOM      1  S   UNL     1      33.756 -15.868 -21.524  0.00  0.00    +0.028 S 
ATOM      2  O   UNL     1      34.775 -14.964 -21.017  0.00  0.00    -0.164 OA
ATOM      3  O   UNL     1      32.392 -15.784 -21.024  0.00  0.00    -0.164 OA
ENDROOT
BRANCH   1   4
ATOM      4  C   UNL     1      34.274 -17.525 -21.178  0.00  0.00    +0.110 C 
ATOM      5  C   UNL     1      33.317 -18.488 -20.913  0.00  0.00    +0.014 C 
ATOM      6  C   UNL     1      35.624 -17.822 -21.179  0.00  0.00    +0.014 C 
ATOM      7  C   UNL     1      33.726 -19.794 -20.640  0.00  0.00    -0.021 C 
ATOM      8  C   UNL     1      36.033 -19.128 -20.906  0.00  0.00    -0.021 C 
ATOM      9  C   UNL     1      35.083 -20.113 -20.637  0.00  0.00    -0.008 C 
ATOM     10  C   UNL     1      32.711 -20.847 -20.350  0.00  0.00    +0.031 C 
ATOM     11  C   UNL     1      37.485 -19.470 -20.903  0.00  0.00    +0.031 C 
ENDBRANCH   1   4
BRANCH   1  12
ATOM     12  C   UNL     1      33.735 -15.651 -23.263  0.00  0.00    +0.121 C 
ATOM     13  C   UNL     1      33.224 -14.498 -23.859  0.00  0.00    +0.099 C 
ATOM     14  C   UNL     1      34.247 -16.678 -24.057  0.00  0.00    +0.020 C 
ATOM     15  C   UNL     1      33.226 -14.370 -25.248  0.00  0.00    +0.053 C 
ATOM     16  C   UNL     1      34.249 -16.550 -25.446  0.00  0.00    +0.003 C 
ATOM     17  C   UNL     1      33.738 -15.396 -26.041  0.00  0.00    +0.015 C 
BRANCH  15  18
ATOM     18  N   UNL     1      32.717 -13.213 -25.882  0.00  0.00    -0.356 N 
ATOM     19  H   UNL     1      33.012 -12.980 -26.791  0.00  0.00    +0.142 HD
ATOM     20  H   UNL     1      32.065 -12.642 -25.413  0.00  0.00    +0.142 HD
ENDBRANCH  15  18
BRANCH  13  22
ATOM     21  N   UNL     1      32.269 -12.586 -22.393  0.00  0.00    -0.191 NA
ATOM     22  C   UNL     1      32.696 -13.439 -23.047  0.00  0.00    +0.103 C 
ENDBRANCH  13  22
ENDBRANCH   1  12
TORSDOF 4
ENDMDL
MODEL 4
REMARK VINA RESULT:      -8.2      3.330      7.023
REMARK  Name = 1536
REMARK  4 active torsions:
REMARK  status: ('A' for Active; 'I' for Inactive)
REMARK    1  A    between atoms: S_1  and  C_4
REMARK    2  A    between atoms: S_1  and  C_12
REMARK    3  A    between atoms: C_13  and  C_22
REMARK    4  A    between atoms: C_15  and  N_18
REMARK                            x       y       z     vdW  Elec       q    Type
REMARK                         _______ _______ _______ _____ _____    ______ ____
ROOT
ATOM      1  S   UNL     1      33.723 -15.354 -21.529  0.00  0.00    +0.028 S 
ATOM      2  O   UNL     1      32.628 -16.032 -20.855  0.00  0.00    -0.164 OA
ATOM      3  O   UNL     1      34.979 -15.124 -20.831  0.00  0.00    -0.164 OA
ENDROOT
BRANCH   1   4
ATOM      4  C   UNL     1      33.158 -13.747 -22.010  0.00  0.00    +0.110 C 
ATOM      5  C   UNL     1      32.153 -13.141 -21.278  0.00  0.00    +0.014 C 
ATOM      6  C   UNL     1      33.734 -13.131 -23.106  0.00  0.00    +0.014 C 
ATOM      7  C   UNL     1      31.708 -11.874 -21.657  0.00  0.00    -0.021 C 
ATOM      8  C   UNL     1      33.289 -11.865 -23.485  0.00  0.00    -0.021 C 
ATOM      9  C   UNL     1      32.276 -11.237 -22.760  0.00  0.00    -0.008 C 
ATOM     10  C   UNL     1      30.624 -11.203 -20.884  0.00  0.00    +0.031 C 
ATOM     11  C   UNL     1      33.895 -11.182 -24.664  0.00  0.00    +0.031 C 
ENDBRANCH   1   4
BRANCH   1  12
ATOM     12  C   UNL     1      34.047 -16.281 -22.982  0.00  0.00    +0.121 C 
ATOM     13  C   UNL     1      34.512 -17.594 -22.935  0.00  0.00    +0.099 C 
ATOM     14  C   UNL     1      33.828 -15.663 -24.214  0.00  0.00    +0.020 C 
ATOM     15  C   UNL     1      34.758 -18.291 -24.118  0.00  0.00    +0.053 C 
ATOM     16  C   UNL     1      34.073 -16.360 -25.397  0.00  0.00    +0.003 C 
ATOM     17  C   UNL     1      34.539 -17.674 -25.349  0.00  0.00    +0.015 C 
BRANCH  15  18
ATOM     18  N   UNL     1      35.229 -19.624 -24.102  0.00  0.00    -0.356 N 
ATOM     19  H   UNL     1      34.835 -20.278 -23.482  0.00  0.00    +0.142 HD
ATOM     20  H   UNL     1      35.952 -19.898 -24.714  0.00  0.00    +0.142 HD
ENDBRANCH  15  18
BRANCH  13  22
ATOM     21  N   UNL     1      34.922 -18.750 -20.652  0.00  0.00    -0.191 NA
ATOM     22  C   UNL     1      34.739 -18.234 -21.670  0.00  0.00    +0.103 C 
ENDBRANCH  13  22
ENDBRANCH   1  12
TORSDOF 4
ENDMDL
MODEL 5
REMARK VINA RESULT:      -8.2      3.329      6.876
REMARK  Name = 1536
REMARK  4 active torsions:
REMARK  status: ('A' for Active; 'I' for Inactive)
REMARK    1  A    between atoms: S_1  and  C_4
REMARK    2  A    between atoms: S_1  and  C_12
REMARK    3  A    between atoms: C_13  and  C_22
REMARK    4  A    between atoms: C_15  and  N_18
REMARK                            x       y       z     vdW  Elec       q    Type
REMARK                         _______ _______ _______ _____ _____    ______ ____
ROOT
ATOM      1  S   UNL     1      33.732 -15.352 -21.528  0.00  0.00    +0.028 S 
ATOM      2  O   UNL     1      32.639 -16.030 -20.850  0.00  0.00    -0.164 OA
ATOM      3  O   UNL     1      34.989 -15.119 -20.831  0.00  0.00    -0.164 OA
ENDROOT
BRANCH   1   4
ATOM      4  C   UNL     1      33.165 -13.746 -22.010  0.00  0.00    +0.110 C 
ATOM      5  C   UNL     1      33.740 -13.131 -23.108  0.00  0.00    +0.014 C 
ATOM      6  C   UNL     1      32.161 -13.139 -21.280  0.00  0.00    +0.014 C 
ATOM      7  C   UNL     1      33.293 -11.865 -23.488  0.00  0.00    -0.021 C 
ATOM      8  C   UNL     1      31.714 -11.874 -21.659  0.00  0.00    -0.021 C 
ATOM      9  C   UNL     1      32.280 -11.237 -22.764  0.00  0.00    -0.008 C 
ATOM     10  C   UNL     1      33.900 -11.185 -24.667  0.00  0.00    +0.031 C 
ATOM     11  C   UNL     1      30.630 -11.201 -20.886  0.00  0.00    +0.031 C 
ENDBRANCH   1   4
BRANCH   1  12
ATOM     12  C   UNL     1      34.055 -16.280 -22.979  0.00  0.00    +0.121 C 
ATOM     13  C   UNL     1      34.519 -17.594 -22.930  0.00  0.00    +0.099 C 
ATOM     14  C   UNL     1      33.836 -15.663 -24.212  0.00  0.00    +0.020 C 
ATOM     15  C   UNL     1      34.764 -18.293 -24.112  0.00  0.00    +0.053 C 
ATOM     16  C   UNL     1      34.081 -16.362 -25.394  0.00  0.00    +0.003 C 
ATOM     17  C   UNL     1      34.546 -17.677 -25.344  0.00  0.00    +0.015 C 
BRANCH  15  18
ATOM     18  N   UNL     1      35.233 -19.627 -24.095  0.00  0.00    -0.356 N 
ATOM     19  H   UNL     1      35.562 -20.022 -23.256  0.00  0.00    +0.142 HD
ATOM     20  H   UNL     1      35.230 -20.160 -24.924  0.00  0.00    +0.142 HD
ENDBRANCH  15  18
BRANCH  13  22
ATOM     21  N   UNL     1      34.927 -18.749 -20.646  0.00  0.00    -0.191 NA
ATOM     22  C   UNL     1      34.745 -18.233 -21.665  0.00  0.00    +0.103 C 
ENDBRANCH  13  22
ENDBRANCH   1  12
TORSDOF 4
ENDMDL
MODEL 6
REMARK VINA RESULT:      -8.2      8.686     11.275
REMARK  Name = 1536
REMARK  4 active torsions:
REMARK  status: ('A' for Active; 'I' for Inactive)
REMARK    1  A    between atoms: S_1  and  C_4
REMARK    2  A    between atoms: S_1  and  C_12
REMARK    3  A    between atoms: C_13  and  C_22
REMARK    4  A    between atoms: C_15  and  N_18
REMARK                            x       y       z     vdW  Elec       q    Type
REMARK                         _______ _______ _______ _____ _____    ______ ____
ROOT
ATOM      1  S   UNL     1      35.211 -23.996 -13.217  0.00  0.00    +0.028 S 
ATOM      2  O   UNL     1      34.759 -24.608 -11.978  0.00  0.00    -0.164 OA
ATOM      3  O   UNL     1      35.791 -22.661 -13.201  0.00  0.00    -0.164 OA
ENDROOT
BRANCH   1   4
ATOM      4  C   UNL     1      33.823 -23.884 -14.310  0.00  0.00    +0.110 C 
ATOM      5  C   UNL     1      34.014 -23.397 -15.591  0.00  0.00    +0.014 C 
ATOM      6  C   UNL     1      32.579 -24.285 -13.861  0.00  0.00    +0.014 C 
ATOM      7  C   UNL     1      32.920 -23.310 -16.453  0.00  0.00    -0.021 C 
ATOM      8  C   UNL     1      31.485 -24.197 -14.723  0.00  0.00    -0.021 C 
ATOM      9  C   UNL     1      31.657 -23.709 -16.018  0.00  0.00    -0.008 C 
ATOM     10  C   UNL     1      33.103 -22.787 -17.837  0.00  0.00    +0.031 C 
ATOM     11  C   UNL     1      30.134 -24.625 -14.260  0.00  0.00    +0.031 C 
ENDBRANCH   1   4
BRANCH   1  12
ATOM     12  C   UNL     1      36.373 -25.109 -13.913  0.00  0.00    +0.121 C 
ATOM     13  C   UNL     1      37.705 -25.140 -13.505  0.00  0.00    +0.099 C 
ATOM     14  C   UNL     1      35.927 -25.980 -14.909  0.00  0.00    +0.020 C 
ATOM     15  C   UNL     1      38.594 -26.041 -14.090  0.00  0.00    +0.053 C 
ATOM     16  C   UNL     1      36.816 -26.882 -15.494  0.00  0.00    +0.003 C 
ATOM     17  C   UNL     1      38.150 -26.912 -15.085  0.00  0.00    +0.015 C 
BRANCH  15  18
ATOM     18  N   UNL     1      39.951 -26.098 -13.697  0.00  0.00    -0.356 N 
ATOM     19  H   UNL     1      40.270 -26.840 -13.135  0.00  0.00    +0.142 HD
ATOM     20  H   UNL     1      40.577 -25.394 -13.987  0.00  0.00    +0.142 HD
ENDBRANCH  15  18
BRANCH  13  22
ATOM     21  N   UNL     1      38.542 -23.526 -11.658  0.00  0.00    -0.191 NA
ATOM     22  C   UNL     1      38.168 -24.246 -12.482  0.00  0.00    +0.103 C 
ENDBRANCH  13  22
ENDBRANCH   1  12
TORSDOF 4
ENDMDL
MODEL 7
REMARK VINA RESULT:      -8.1      3.851      7.575
REMARK  Name = 1536
REMARK  4 active torsions:
REMARK  status: ('A' for Active; 'I' for Inactive)
REMARK    1  A    between atoms: S_1  and  C_4
REMARK    2  A    between atoms: S_1  and  C_12
REMARK    3  A    between atoms: C_13  and  C_22
REMARK    4  A    between atoms: C_15  and  N_18
REMARK                            x       y       z     vdW  Elec       q    Type
REMARK                         _______ _______ _______ _____ _____    ______ ____
ROOT
ATOM      1  S   UNL     1      33.332 -13.588 -24.118  0.00  0.00    +0.028 S 
ATOM      2  O   UNL     1      34.442 -13.268 -25.001  0.00  0.00    -0.164 OA
ATOM      3  O   UNL     1      32.097 -14.129 -24.665  0.00  0.00    -0.164 OA
ENDROOT
BRANCH   1   4
ATOM      4  C   UNL     1      32.856 -12.103 -23.280  0.00  0.00    +0.110 C 
ATOM      5  C   UNL     1      31.959 -12.182 -22.229  0.00  0.00    +0.014 C 
ATOM      6  C   UNL     1      33.388 -10.896 -23.693  0.00  0.00    +0.014 C 
ATOM      7  C   UNL     1      31.584 -11.011 -21.569  0.00  0.00    -0.021 C 
ATOM      8  C   UNL     1      33.013  -9.726 -23.033  0.00  0.00    -0.021 C 
ATOM      9  C   UNL     1      32.110  -9.785 -21.971  0.00  0.00    -0.008 C 
ATOM     10  C   UNL     1      30.618 -11.073 -20.435  0.00  0.00    +0.031 C 
ATOM     11  C   UNL     1      33.576  -8.414 -23.462  0.00  0.00    +0.031 C 
ENDBRANCH   1   4
BRANCH   1  12
ATOM     12  C   UNL     1      33.964 -14.711 -22.930  0.00  0.00    +0.121 C 
ATOM     13  C   UNL     1      34.484 -15.954 -23.289  0.00  0.00    +0.099 C 
ATOM     14  C   UNL     1      33.932 -14.330 -21.588  0.00  0.00    +0.020 C 
ATOM     15  C   UNL     1      34.974 -16.816 -22.309  0.00  0.00    +0.053 C 
ATOM     16  C   UNL     1      34.422 -15.192 -20.607  0.00  0.00    +0.003 C 
ATOM     17  C   UNL     1      34.942 -16.436 -20.967  0.00  0.00    +0.015 C 
BRANCH  15  18
ATOM     18  N   UNL     1      35.509 -18.082 -22.641  0.00  0.00    -0.356 N 
ATOM     19  H   UNL     1      34.907 -18.823 -22.879  0.00  0.00    +0.142 HD
ATOM     20  H   UNL     1      36.484 -18.221 -22.635  0.00  0.00    +0.142 HD
ENDBRANCH  15  18
BRANCH  13  22
ATOM     21  N   UNL     1      34.548 -16.671 -25.779  0.00  0.00    -0.191 NA
ATOM     22  C   UNL     1      34.519 -16.351 -24.668  0.00  0.00    +0.103 C 
ENDBRANCH  13  22
ENDBRANCH   1  12
TORSDOF 4
ENDMDL
MODEL 8
REMARK VINA RESULT:      -7.8      5.921      8.504
REMARK  Name = 1536
REMARK  4 active torsions:
REMARK  status: ('A' for Active; 'I' for Inactive)
REMARK    1  A    between atoms: S_1  and  C_4
REMARK    2  A    between atoms: S_1  and  C_12
REMARK    3  A    between atoms: C_13  and  C_22
REMARK    4  A    between atoms: C_15  and  N_18
REMARK                            x       y       z     vdW  Elec       q    Type
REMARK                         _______ _______ _______ _____ _____    ______ ____
ROOT
ATOM      1  S   UNL     1      33.452 -23.093 -17.874  0.00  0.00    +0.028 S 
ATOM      2  O   UNL     1      33.638 -24.380 -18.523  0.00  0.00    -0.164 OA
ATOM      3  O   UNL     1      32.124 -22.672 -17.455  0.00  0.00    -0.164 OA
ENDROOT
BRANCH   1   4
ATOM      4  C   UNL     1      34.006 -21.834 -18.989  0.00  0.00    +0.110 C 
ATOM      5  C   UNL     1      33.071 -21.021 -19.604  0.00  0.00    +0.014 C 
ATOM      6  C   UNL     1      35.361 -21.691 -19.223  0.00  0.00    +0.014 C 
ATOM      7  C   UNL     1      33.507 -20.029 -20.483  0.00  0.00    -0.021 C 
ATOM      8  C   UNL     1      35.797 -20.699 -20.102  0.00  0.00    -0.021 C 
ATOM      9  C   UNL     1      34.870 -19.869 -20.731  0.00  0.00    -0.008 C 
ATOM     10  C   UNL     1      32.516 -19.143 -21.157  0.00  0.00    +0.031 C 
ATOM     11  C   UNL     1      37.255 -20.526 -20.368  0.00  0.00    +0.031 C 
ENDBRANCH   1   4
BRANCH   1  12
ATOM     12  C   UNL     1      34.512 -23.095 -16.477  0.00  0.00    +0.121 C 
ATOM     13  C   UNL     1      34.070 -23.484 -15.214  0.00  0.00    +0.099 C 
ATOM     14  C   UNL     1      35.834 -22.687 -16.659  0.00  0.00    +0.020 C 
ATOM     15  C   UNL     1      34.949 -23.467 -14.131  0.00  0.00    +0.053 C 
ATOM     16  C   UNL     1      36.713 -22.670 -15.576  0.00  0.00    +0.003 C 
ATOM     17  C   UNL     1      36.270 -23.060 -14.312  0.00  0.00    +0.015 C 
BRANCH  15  18
ATOM     18  N   UNL     1      34.531 -23.858 -12.837  0.00  0.00    -0.356 N 
ATOM     19  H   UNL     1      35.084 -24.475 -12.307  0.00  0.00    +0.142 HD
ATOM     20  H   UNL     1      33.687 -23.511 -12.467  0.00  0.00    +0.142 HD
ENDBRANCH  15  18
BRANCH  13  22
ATOM     21  N   UNL     1      31.616 -24.242 -14.867  0.00  0.00    -0.191 NA
ATOM     22  C   UNL     1      32.711 -23.904 -15.022  0.00  0.00    +0.103 C 
ENDBRANCH  13  22
ENDBRANCH   1  12
TORSDOF 4
ENDMDL
MODEL 9
REMARK VINA RESULT:      -7.7      5.503      7.875
REMARK  Name = 1536
REMARK  4 active torsions:
REMARK  status: ('A' for Active; 'I' for Inactive)
REMARK    1  A    between atoms: S_1  and  C_4
REMARK    2  A    between atoms: S_1  and  C_12
REMARK    3  A    between atoms: C_13  and  C_22
REMARK    4  A    between atoms: C_15  and  N_18
REMARK                            x       y       z     vdW  Elec       q    Type
REMARK                         _______ _______ _______ _____ _____    ______ ____
ROOT
ATOM      1  S   UNL     1      33.621 -22.776 -18.440  0.00  0.00    +0.028 S 
ATOM      2  O   UNL     1      33.918 -23.982 -19.196  0.00  0.00    -0.164 OA
ATOM      3  O   UNL     1      32.261 -22.510 -17.995  0.00  0.00    -0.164 OA
ENDROOT
BRANCH   1   4
ATOM      4  C   UNL     1      34.063 -21.382 -19.437  0.00  0.00    +0.110 C 
ATOM      5  C   UNL     1      35.398 -21.152 -19.718  0.00  0.00    +0.014 C 
ATOM      6  C   UNL     1      33.066 -20.552 -19.913  0.00  0.00    +0.014 C 
ATOM      7  C   UNL     1      35.746 -20.053 -20.504  0.00  0.00    -0.021 C 
ATOM      8  C   UNL     1      33.414 -19.453 -20.699  0.00  0.00    -0.021 C 
ATOM      9  C   UNL     1      34.754 -19.205 -20.994  0.00  0.00    -0.008 C 
ATOM     10  C   UNL     1      37.179 -19.787 -20.818  0.00  0.00    +0.031 C 
ATOM     11  C   UNL     1      32.354 -18.545 -21.224  0.00  0.00    +0.031 C 
ENDBRANCH   1   4
BRANCH   1  12
ATOM     12  C   UNL     1      34.677 -22.808 -17.040  0.00  0.00    +0.121 C 
ATOM     13  C   UNL     1      34.228 -23.208 -15.783  0.00  0.00    +0.099 C 
ATOM     14  C   UNL     1      36.005 -22.414 -17.214  0.00  0.00    +0.020 C 
ATOM     15  C   UNL     1      35.104 -23.215 -14.698  0.00  0.00    +0.053 C 
ATOM     16  C   UNL     1      36.881 -22.421 -16.129  0.00  0.00    +0.003 C 
ATOM     17  C   UNL     1      36.431 -22.821 -14.871  0.00  0.00    +0.015 C 
BRANCH  15  18
ATOM     18  N   UNL     1      34.679 -23.617 -13.410  0.00  0.00    -0.356 N 
ATOM     19  H   UNL     1      34.163 -24.447 -13.299  0.00  0.00    +0.142 HD
ATOM     20  H   UNL     1      34.899 -23.064 -12.624  0.00  0.00    +0.142 HD
ENDBRANCH  15  18
BRANCH  13  22
ATOM     21  N   UNL     1      31.764 -23.941 -15.450  0.00  0.00    -0.191 NA
ATOM     22  C   UNL     1      32.863 -23.615 -15.599  0.00  0.00    +0.103 C 
ENDBRANCH  13  22
ENDBRANCH   1  12
TORSDOF 4
ENDMDL
