MODEL 1
REMARK VINA RESULT:      -4.7      0.000      0.000
REMARK  Name = 5288980
REMARK  2 active torsions:
REMARK  status: ('A' for Active; 'I' for Inactive)
REMARK    1  A    between atoms: CA_2  and  C_6
REMARK    2  A    between atoms: C_6  and  O_7
REMARK                            x       y       z     vdW  Elec       q    Type
REMARK                         _______ _______ _______ _____ _____    ______ ____
ROOT
ATOM      1  N   ALA A   1      38.022 -26.375 -15.351  0.00  0.00    -0.297 NA
ATOM      2  CA  ALA A   1      38.825 -25.865 -14.479  0.00  0.00    +0.125 C 
ATOM      3  CB  ALA A   1      38.434 -25.667 -13.049  0.00  0.00    +0.058 C 
ATOM      4  H   ALA A   1      37.119 -26.657 -15.082  0.00  0.00    +0.187 HD
ENDROOT
BRANCH   2   6
ATOM      5  OXT ALA A   1      40.908 -24.745 -14.206  0.00  0.00    -0.244 OA
ATOM      6  C   ALA A   1      40.199 -25.439 -14.905  0.00  0.00    +0.351 C 
BRANCH   6   7
ATOM      7  O   ALA A   1      40.490 -25.973 -16.098  0.00  0.00    -0.476 OA
ATOM      8  H   ALA A   1      39.865 -25.930 -16.796  0.00  0.00    +0.295 HD
ENDBRANCH   6   7
ENDBRANCH   2   6
TORSDOF 2
ENDMDL
MODEL 2
REMARK VINA RESULT:      -4.5     10.690     11.181
REMARK  Name = 5288980
REMARK  2 active torsions:
REMARK  status: ('A' for Active; 'I' for Inactive)
REMARK    1  A    between atoms: CA_2  and  C_6
REMARK    2  A    between atoms: C_6  and  O_7
REMARK                            x       y       z     vdW  Elec       q    Type
REMARK                         _______ _______ _______ _____ _____    ______ ____
ROOT
ATOM      1  N   ALA A   1      41.623 -13.394 -15.499  0.00  0.00    -0.297 NA
ATOM      2  CA  ALA A   1      41.410 -14.406 -16.272  0.00  0.00    +0.125 C 
ATOM      3  CB  ALA A   1      41.232 -14.260 -17.750  0.00  0.00    +0.058 C 
ATOM      4  H   ALA A   1      41.681 -12.488 -15.879  0.00  0.00    +0.187 HD
ENDROOT
BRANCH   2   6
ATOM      5  OXT ALA A   1      42.273 -16.539 -15.662  0.00  0.00    -0.244 OA
ATOM      6  C   ALA A   1      41.325 -15.780 -15.678  0.00  0.00    +0.351 C 
BRANCH   6   7
ATOM      7  O   ALA A   1      40.104 -15.978 -15.165  0.00  0.00    -0.476 OA
ATOM      8  H   ALA A   1      39.509 -15.259 -15.078  0.00  0.00    +0.295 HD
ENDBRANCH   6   7
ENDBRANCH   2   6
TORSDOF 2
ENDMDL
MODEL 3
REMARK VINA RESULT:      -4.3      5.001      5.533
REMARK  Name = 5288980
REMARK  2 active torsions:
REMARK  status: ('A' for Active; 'I' for Inactive)
REMARK    1  A    between atoms: CA_2  and  C_6
REMARK    2  A    between atoms: C_6  and  O_7
REMARK                            x       y       z     vdW  Elec       q    Type
REMARK                         _______ _______ _______ _____ _____    ______ ____
ROOT
ATOM      1  N   ALA A   1      37.468 -22.767 -11.204  0.00  0.00    -0.297 NA
ATOM      2  CA  ALA A   1      37.038 -23.932 -11.555  0.00  0.00    +0.125 C 
ATOM      3  CB  ALA A   1      37.904 -24.926 -12.262  0.00  0.00    +0.058 C 
ATOM      4  H   ALA A   1      38.399 -22.509 -11.393  0.00  0.00    +0.187 HD
ENDROOT
BRANCH   2   6
ATOM      5  OXT ALA A   1      35.329 -25.154 -10.437  0.00  0.00    -0.244 OA
ATOM      6  C   ALA A   1      35.617 -24.311 -11.261  0.00  0.00    +0.351 C 
BRANCH   6   7
ATOM      7  O   ALA A   1      34.786 -23.560 -11.996  0.00  0.00    -0.476 OA
ATOM      8  H   ALA A   1      34.340 -22.835 -11.605  0.00  0.00    +0.295 HD
ENDBRANCH   6   7
ENDBRANCH   2   6
TORSDOF 2
ENDMDL
MODEL 4
REMARK VINA RESULT:      -4.2      2.919      3.202
REMARK  Name = 5288980
REMARK  2 active torsions:
REMARK  status: ('A' for Active; 'I' for Inactive)
REMARK    1  A    between atoms: CA_2  and  C_6
REMARK    2  A    between atoms: C_6  and  O_7
REMARK                            x       y       z     vdW  Elec       q    Type
REMARK                         _______ _______ _______ _____ _____    ______ ____
ROOT
ATOM      1  N   ALA A   1      36.766 -27.167 -16.101  0.00  0.00    -0.297 NA
ATOM      2  CA  ALA A   1      36.654 -26.359 -15.101  0.00  0.00    +0.125 C 
ATOM      3  CB  ALA A   1      35.654 -25.246 -15.079  0.00  0.00    +0.058 C 
ATOM      4  H   ALA A   1      36.176 -27.067 -16.883  0.00  0.00    +0.187 HD
ENDROOT
BRANCH   2   6
ATOM      5  OXT ALA A   1      38.769 -26.454 -14.012  0.00  0.00    -0.244 OA
ATOM      6  C   ALA A   1      37.560 -26.523 -13.918  0.00  0.00    +0.351 C 
BRANCH   6   7
ATOM      7  O   ALA A   1      36.830 -26.702 -12.809  0.00  0.00    -0.476 OA
ATOM      8  H   ALA A   1      36.105 -26.137 -12.628  0.00  0.00    +0.295 HD
ENDBRANCH   6   7
ENDBRANCH   2   6
TORSDOF 2
ENDMDL
MODEL 5
REMARK VINA RESULT:      -4.2      3.029      3.230
REMARK  Name = 5288980
REMARK  2 active torsions:
REMARK  status: ('A' for Active; 'I' for Inactive)
REMARK    1  A    between atoms: CA_2  and  C_6
REMARK    2  A    between atoms: C_6  and  O_7
REMARK                            x       y       z     vdW  Elec       q    Type
REMARK                         _______ _______ _______ _____ _____    ______ ____
ROOT
ATOM      1  N   ALA A   1      38.910 -26.674 -14.648  0.00  0.00    -0.297 NA
ATOM      2  CA  ALA A   1      37.681 -26.453 -14.320  0.00  0.00    +0.125 C 
ATOM      3  CB  ALA A   1      37.256 -26.244 -12.902  0.00  0.00    +0.058 C 
ATOM      4  H   ALA A   1      39.607 -26.701 -13.954  0.00  0.00    +0.187 HD
ENDROOT
BRANCH   2   6
ATOM      5  OXT ALA A   1      35.738 -25.592 -15.391  0.00  0.00    -0.244 OA
ATOM      6  C   ALA A   1      36.631 -26.414 -15.390  0.00  0.00    +0.351 C 
BRANCH   6   7
ATOM      7  O   ALA A   1      36.876 -27.363 -16.302  0.00  0.00    -0.476 OA
ATOM      8  H   ALA A   1      36.165 -27.803 -16.725  0.00  0.00    +0.295 HD
ENDBRANCH   6   7
ENDBRANCH   2   6
TORSDOF 2
ENDMDL
MODEL 6
REMARK VINA RESULT:      -4.1     11.199     11.470
REMARK  Name = 5288980
REMARK  2 active torsions:
REMARK  status: ('A' for Active; 'I' for Inactive)
REMARK    1  A    between atoms: CA_2  and  C_6
REMARK    2  A    between atoms: C_6  and  O_7
REMARK                            x       y       z     vdW  Elec       q    Type
REMARK                         _______ _______ _______ _____ _____    ______ ____
ROOT
ATOM      1  N   ALA A   1      30.465 -22.677 -16.788  0.00  0.00    -0.297 NA
ATOM      2  CA  ALA A   1      29.360 -23.197 -16.371  0.00  0.00    +0.125 C 
ATOM      3  CB  ALA A   1      29.312 -24.180 -15.245  0.00  0.00    +0.058 C 
ATOM      4  H   ALA A   1      31.316 -22.919 -16.357  0.00  0.00    +0.187 HD
ENDROOT
BRANCH   2   6
ATOM      5  OXT ALA A   1      27.629 -21.688 -17.001  0.00  0.00    -0.244 OA
ATOM      6  C   ALA A   1      28.072 -22.819 -17.039  0.00  0.00    +0.351 C 
BRANCH   6   7
ATOM      7  O   ALA A   1      27.563 -23.880 -17.678  0.00  0.00    -0.476 OA
ATOM      8  H   ALA A   1      27.508 -24.708 -17.243  0.00  0.00    +0.295 HD
ENDBRANCH   6   7
ENDBRANCH   2   6
TORSDOF 2
ENDMDL
MODEL 7
REMARK VINA RESULT:      -4.1      2.790      3.215
REMARK  Name = 5288980
REMARK  2 active torsions:
REMARK  status: ('A' for Active; 'I' for Inactive)
REMARK    1  A    between atoms: CA_2  and  C_6
REMARK    2  A    between atoms: C_6  and  O_7
REMARK                            x       y       z     vdW  Elec       q    Type
REMARK                         _______ _______ _______ _____ _____    ______ ____
ROOT
ATOM      1  N   ALA A   1      36.790 -26.370 -12.015  0.00  0.00    -0.297 NA
ATOM      2  CA  ALA A   1      37.478 -25.980 -13.035  0.00  0.00    +0.125 C 
ATOM      3  CB  ALA A   1      38.347 -24.763 -12.996  0.00  0.00    +0.058 C 
ATOM      4  H   ALA A   1      36.833 -25.866 -11.170  0.00  0.00    +0.187 HD
ENDROOT
BRANCH   2   6
ATOM      5  OXT ALA A   1      38.388 -27.230 -14.845  0.00  0.00    -0.244 OA
ATOM      6  C   ALA A   1      37.402 -26.759 -14.314  0.00  0.00    +0.351 C 
BRANCH   6   7
ATOM      7  O   ALA A   1      36.126 -26.867 -14.705  0.00  0.00    -0.476 OA
ATOM      8  H   ALA A   1      35.795 -27.691 -15.004  0.00  0.00    +0.295 HD
ENDBRANCH   6   7
ENDBRANCH   2   6
TORSDOF 2
ENDMDL
MODEL 8
REMARK VINA RESULT:      -4.1      9.847     10.297
REMARK  Name = 5288980
REMARK  2 active torsions:
REMARK  status: ('A' for Active; 'I' for Inactive)
REMARK    1  A    between atoms: CA_2  and  C_6
REMARK    2  A    between atoms: C_6  and  O_7
REMARK                            x       y       z     vdW  Elec       q    Type
REMARK                         _______ _______ _______ _____ _____    ______ ____
ROOT
ATOM      1  N   ALA A   1      40.194 -15.911 -15.116  0.00  0.00    -0.297 NA
ATOM      2  CA  ALA A   1      41.220 -15.493 -15.778  0.00  0.00    +0.125 C 
ATOM      3  CB  ALA A   1      41.590 -14.046 -15.853  0.00  0.00    +0.058 C 
ATOM      4  H   ALA A   1      39.627 -15.269 -14.630  0.00  0.00    +0.187 HD
ENDROOT
BRANCH   2   6
ATOM      5  OXT ALA A   1      41.604 -17.448 -17.081  0.00  0.00    -0.244 OA
ATOM      6  C   ALA A   1      42.074 -16.483 -16.513  0.00  0.00    +0.351 C 
BRANCH   6   7
ATOM      7  O   ALA A   1      43.357 -16.101 -16.464  0.00  0.00    -0.476 OA
ATOM      8  H   ALA A   1      43.874 -16.289 -15.705  0.00  0.00    +0.295 HD
ENDBRANCH   6   7
ENDBRANCH   2   6
TORSDOF 2
ENDMDL
MODEL 9
REMARK VINA RESULT:      -4.0     11.002     11.354
REMARK  Name = 5288980
REMARK  2 active torsions:
REMARK  status: ('A' for Active; 'I' for Inactive)
REMARK    1  A    between atoms: CA_2  and  C_6
REMARK    2  A    between atoms: C_6  and  O_7
REMARK                            x       y       z     vdW  Elec       q    Type
REMARK                         _______ _______ _______ _____ _____    ______ ____
ROOT
ATOM      1  N   ALA A   1      28.839 -24.844 -15.089  0.00  0.00    -0.297 NA
ATOM      2  CA  ALA A   1      29.088 -23.704 -15.641  0.00  0.00    +0.125 C 
ATOM      3  CB  ALA A   1      30.177 -22.800 -15.156  0.00  0.00    +0.058 C 
ATOM      4  H   ALA A   1      29.380 -25.149 -14.326  0.00  0.00    +0.187 HD
ENDROOT
BRANCH   2   6
ATOM      5  OXT ALA A   1      27.705 -24.036 -17.550  0.00  0.00    -0.244 OA
ATOM      6  C   ALA A   1      28.256 -23.252 -16.804  0.00  0.00    +0.351 C 
BRANCH   6   7
ATOM      7  O   ALA A   1      28.202 -21.914 -16.831  0.00  0.00    -0.476 OA
ATOM      8  H   ALA A   1      27.377 -21.476 -16.758  0.00  0.00    +0.295 HD
ENDBRANCH   6   7
ENDBRANCH   2   6
TORSDOF 2
ENDMDL
