MODEL 1
REMARK VINA RESULT:      -7.3      0.000      0.000
REMARK  Name = 11840917
REMARK  6 active torsions:
REMARK  status: ('A' for Active; 'I' for Inactive)
REMARK    1  A    between atoms: C_3  and  C_20
REMARK    2  A    between atoms: C_4  and  C_8
REMARK    3  A    between atoms: C_7  and  C_10
REMARK    4  A    between atoms: C_10  and  C_11
REMARK    5  A    between atoms: C_10  and  N_16
REMARK    6  A    between atoms: C_20  and  N_21
REMARK                            x       y       z     vdW  Elec       q    Type
REMARK                         _______ _______ _______ _____ _____    ______ ____
ROOT
ATOM      1  O   UNL     1      31.243  -6.499 -21.627  0.00  0.00    -0.277 OA
ATOM      2  N   UNL     1      33.027  -7.113 -22.973  0.00  0.00    -0.276 N 
ATOM      3  C   UNL     1      32.780  -6.126 -24.034  0.00  0.00    +0.054 C 
ATOM      4  C   UNL     1      34.263  -7.864 -23.227  0.00  0.00    +0.140 C 
ATOM      5  C   UNL     1      33.903  -6.357 -25.052  0.00  0.00    +0.020 C 
ATOM      6  C   UNL     1      35.017  -6.980 -24.220  0.00  0.00    +0.035 C 
ATOM      7  C   UNL     1      32.277  -7.146 -21.803  0.00  0.00    +0.206 C 
ENDROOT
BRANCH   4   8
ATOM      8  C   UNL     1      33.964  -9.188 -23.796  0.00  0.00    -0.058 C 
ATOM      9  C   UNL     1      33.722 -10.268 -24.261  0.00  0.00    -0.012 C 
ENDBRANCH   4   8
BRANCH   7  10
ATOM     10  C   UNL     1      32.802  -8.031 -20.701  0.00  0.00    +0.013 C 
BRANCH  10  11
ATOM     11  C   UNL     1      31.772  -9.090 -20.350  0.00  0.00    -0.011 C 
ATOM     12  C   UNL     1      31.594 -10.139 -21.442  0.00  0.00    -0.002 C 
ATOM     13  C   UNL     1      32.166  -9.937 -19.145  0.00  0.00    -0.002 C 
ATOM     14  C   UNL     1      30.909 -11.303 -20.731  0.00  0.00    -0.000 C 
ATOM     15  C   UNL     1      31.268 -11.165 -19.250  0.00  0.00    -0.000 C 
ENDBRANCH  10  11
BRANCH  10  16
ATOM     16  N   UNL     1      33.075  -7.169 -19.563  0.00  0.00    +0.387 N 
ATOM     17  H   UNL     1      33.236  -6.215 -19.890  0.00  0.00    -0.089 HD
ATOM     18  H   UNL     1      33.904  -7.504 -19.073  0.00  0.00    -0.089 HD
ATOM     19  H   UNL     1      32.277  -7.180 -18.928  0.00  0.00    -0.089 HD
ENDBRANCH  10  16
ENDBRANCH   7  10
BRANCH   3  20
ATOM     20  C   UNL     1      31.410  -6.266 -24.687  0.00  0.00    -0.066 C 
BRANCH  20  21
ATOM     21  N   UNL     1      30.624  -5.088 -24.431  0.00  0.00    +0.382 N 
ATOM     22  H   UNL     1      31.001  -4.304 -24.963  0.00  0.00    -0.089 HD
ATOM     23  H   UNL     1      30.654  -4.868 -23.435  0.00  0.00    -0.089 HD
ATOM     24  H   UNL     1      29.658  -5.255 -24.712  0.00  0.00    -0.089 HD
ENDBRANCH  20  21
ENDBRANCH   3  20
TORSDOF 6
ENDMDL
MODEL 2
REMARK VINA RESULT:      -6.8      4.025      6.068
REMARK  Name = 11840917
REMARK  6 active torsions:
REMARK  status: ('A' for Active; 'I' for Inactive)
REMARK    1  A    between atoms: C_3  and  C_20
REMARK    2  A    between atoms: C_4  and  C_8
REMARK    3  A    between atoms: C_7  and  C_10
REMARK    4  A    between atoms: C_10  and  C_11
REMARK    5  A    between atoms: C_10  and  N_16
REMARK    6  A    between atoms: C_20  and  N_21
REMARK                            x       y       z     vdW  Elec       q    Type
REMARK                         _______ _______ _______ _____ _____    ______ ____
ROOT
ATOM      1  O   UNL     1      32.301 -13.048 -20.581  0.00  0.00    -0.277 OA
ATOM      2  N   UNL     1      32.806 -13.284 -22.831  0.00  0.00    -0.276 N 
ATOM      3  C   UNL     1      33.455 -14.598 -22.716  0.00  0.00    +0.054 C 
ATOM      4  C   UNL     1      32.709 -12.863 -24.234  0.00  0.00    +0.140 C 
ATOM      5  C   UNL     1      33.861 -14.960 -24.150  0.00  0.00    +0.020 C 
ATOM      6  C   UNL     1      32.882 -14.168 -25.009  0.00  0.00    +0.035 C 
ATOM      7  C   UNL     1      32.196 -12.663 -21.747  0.00  0.00    +0.206 C 
ENDROOT
BRANCH   4   8
ATOM      8  C   UNL     1      33.764 -11.891 -24.564  0.00  0.00    -0.058 C 
ATOM      9  C   UNL     1      34.624 -11.098 -24.833  0.00  0.00    -0.012 C 
ENDBRANCH   4   8
BRANCH   7  10
ATOM     10  C   UNL     1      31.351 -11.454 -22.062  0.00  0.00    +0.013 C 
BRANCH  10  11
ATOM     11  C   UNL     1      32.153 -10.186 -21.828  0.00  0.00    -0.011 C 
ATOM     12  C   UNL     1      31.796  -9.062 -22.795  0.00  0.00    -0.002 C 
ATOM     13  C   UNL     1      31.884  -9.546 -20.470  0.00  0.00    -0.002 C 
ATOM     14  C   UNL     1      32.340  -7.805 -22.121  0.00  0.00    -0.000 C 
ATOM     15  C   UNL     1      32.407  -8.121 -20.626  0.00  0.00    -0.000 C 
ENDBRANCH  10  11
BRANCH  10  16
ATOM     16  N   UNL     1      30.193 -11.510 -21.187  0.00  0.00    +0.387 N 
ATOM     17  H   UNL     1      29.444 -10.936 -21.577  0.00  0.00    -0.089 HD
ATOM     18  H   UNL     1      30.446 -11.156 -20.265  0.00  0.00    -0.089 HD
ATOM     19  H   UNL     1      29.874 -12.475 -21.106  0.00  0.00    -0.089 HD
ENDBRANCH  10  16
ENDBRANCH   7  10
BRANCH   3  20
ATOM     20  C   UNL     1      34.664 -14.601 -21.787  0.00  0.00    -0.066 C 
BRANCH  20  21
ATOM     21  N   UNL     1      34.364 -15.355 -20.599  0.00  0.00    +0.382 N 
ATOM     22  H   UNL     1      34.419 -16.353 -20.806  0.00  0.00    -0.089 HD
ATOM     23  H   UNL     1      33.423 -15.127 -20.278  0.00  0.00    -0.089 HD
ATOM     24  H   UNL     1      35.038 -15.123 -19.869  0.00  0.00    -0.089 HD
ENDBRANCH  20  21
ENDBRANCH   3  20
TORSDOF 6
ENDMDL
MODEL 3
REMARK VINA RESULT:      -6.7     15.086     18.116
REMARK  Name = 11840917
REMARK  6 active torsions:
REMARK  status: ('A' for Active; 'I' for Inactive)
REMARK    1  A    between atoms: C_3  and  C_20
REMARK    2  A    between atoms: C_4  and  C_8
REMARK    3  A    between atoms: C_7  and  C_10
REMARK    4  A    between atoms: C_10  and  C_11
REMARK    5  A    between atoms: C_10  and  N_16
REMARK    6  A    between atoms: C_20  and  N_21
REMARK                            x       y       z     vdW  Elec       q    Type
REMARK                         _______ _______ _______ _____ _____    ______ ____
ROOT
ATOM      1  O   UNL     1      38.558 -23.575 -16.001  0.00  0.00    -0.277 OA
ATOM      2  N   UNL     1      37.101 -23.668 -14.200  0.00  0.00    -0.276 N 
ATOM      3  C   UNL     1      37.922 -24.563 -13.372  0.00  0.00    +0.054 C 
ATOM      4  C   UNL     1      35.906 -23.222 -13.473  0.00  0.00    +0.140 C 
ATOM      5  C   UNL     1      37.119 -24.743 -12.077  0.00  0.00    +0.020 C 
ATOM      6  C   UNL     1      36.262 -23.484 -12.010  0.00  0.00    +0.035 C 
ATOM      7  C   UNL     1      37.546 -23.174 -15.421  0.00  0.00    +0.206 C 
ENDROOT
BRANCH   4   8
ATOM      8  C   UNL     1      34.722 -23.990 -13.889  0.00  0.00    -0.058 C 
ATOM      9  C   UNL     1      33.755 -24.616 -14.228  0.00  0.00    -0.012 C 
ENDBRANCH   4   8
BRANCH   7  10
ATOM     10  C   UNL     1      36.720 -22.072 -16.034  0.00  0.00    +0.013 C 
BRANCH  10  11
ATOM     11  C   UNL     1      36.036 -22.576 -17.292  0.00  0.00    -0.011 C 
ATOM     12  C   UNL     1      34.516 -22.634 -17.168  0.00  0.00    -0.002 C 
ATOM     13  C   UNL     1      36.229 -21.655 -18.492  0.00  0.00    -0.002 C 
ATOM     14  C   UNL     1      34.028 -22.704 -18.612  0.00  0.00    -0.000 C 
ATOM     15  C   UNL     1      35.136 -22.084 -19.465  0.00  0.00    -0.000 C 
ENDBRANCH  10  11
BRANCH  10  16
ATOM     16  N   UNL     1      37.631 -20.980 -16.334  0.00  0.00    +0.387 N 
ATOM     17  H   UNL     1      37.995 -20.592 -15.463  0.00  0.00    -0.089 HD
ATOM     18  H   UNL     1      37.133 -20.253 -16.848  0.00  0.00    -0.089 HD
ATOM     19  H   UNL     1      38.404 -21.328 -16.901  0.00  0.00    -0.089 HD
ENDBRANCH  10  16
ENDBRANCH   7  10
BRANCH   3  20
ATOM     20  C   UNL     1      38.209 -25.908 -14.029  0.00  0.00    -0.066 C 
BRANCH  20  21
ATOM     21  N   UNL     1      37.188 -26.856 -13.667  0.00  0.00    +0.382 N 
ATOM     22  H   UNL     1      37.036 -26.824 -12.659  0.00  0.00    -0.089 HD
ATOM     23  H   UNL     1      37.484 -27.795 -13.936  0.00  0.00    -0.089 HD
ATOM     24  H   UNL     1      36.320 -26.622 -14.149  0.00  0.00    -0.089 HD
ENDBRANCH  20  21
ENDBRANCH   3  20
TORSDOF 6
ENDMDL
MODEL 4
REMARK VINA RESULT:      -6.4      3.766      5.321
REMARK  Name = 11840917
REMARK  6 active torsions:
REMARK  status: ('A' for Active; 'I' for Inactive)
REMARK    1  A    between atoms: C_3  and  C_20
REMARK    2  A    between atoms: C_4  and  C_8
REMARK    3  A    between atoms: C_7  and  C_10
REMARK    4  A    between atoms: C_10  and  C_11
REMARK    5  A    between atoms: C_10  and  N_16
REMARK    6  A    between atoms: C_20  and  N_21
REMARK                            x       y       z     vdW  Elec       q    Type
REMARK                         _______ _______ _______ _____ _____    ______ ____
ROOT
ATOM      1  O   UNL     1      34.247 -11.728 -24.311  0.00  0.00    -0.277 OA
ATOM      2  N   UNL     1      32.485 -10.784 -23.138  0.00  0.00    -0.276 N 
ATOM      3  C   UNL     1      32.732  -9.397 -23.561  0.00  0.00    +0.054 C 
ATOM      4  C   UNL     1      31.262 -10.881 -22.332  0.00  0.00    +0.140 C 
ATOM      5  C   UNL     1      31.623  -8.580 -22.887  0.00  0.00    +0.020 C 
ATOM      6  C   UNL     1      30.507  -9.597 -22.676  0.00  0.00    +0.035 C 
ATOM      7  C   UNL     1      33.223 -11.851 -23.636  0.00  0.00    +0.206 C 
ENDROOT
BRANCH   4   8
ATOM      8  C   UNL     1      31.583 -10.955 -20.898  0.00  0.00    -0.058 C 
ATOM      9  C   UNL     1      31.844 -11.016 -19.728  0.00  0.00    -0.012 C 
ENDBRANCH   4   8
BRANCH   7  10
ATOM     10  C   UNL     1      32.697 -13.228 -23.320  0.00  0.00    +0.013 C 
BRANCH  10  11
ATOM     11  C   UNL     1      33.529 -13.860 -22.218  0.00  0.00    -0.011 C 
ATOM     12  C   UNL     1      32.685 -14.468 -21.101  0.00  0.00    -0.002 C 
ATOM     13  C   UNL     1      34.350 -15.054 -22.693  0.00  0.00    -0.002 C 
ATOM     14  C   UNL     1      33.645 -15.412 -20.383  0.00  0.00    -0.000 C 
ATOM     15  C   UNL     1      34.723 -15.780 -21.404  0.00  0.00    -0.000 C 
ENDBRANCH  10  11
BRANCH  10  16
ATOM     16  N   UNL     1      32.779 -14.003 -24.547  0.00  0.00    +0.387 N 
ATOM     17  H   UNL     1      31.975 -14.628 -24.607  0.00  0.00    -0.089 HD
ATOM     18  H   UNL     1      33.638 -14.552 -24.545  0.00  0.00    -0.089 HD
ATOM     19  H   UNL     1      32.780 -13.372 -25.348  0.00  0.00    -0.089 HD
ENDBRANCH  10  16
ENDBRANCH   7  10
BRANCH   3  20
ATOM     20  C   UNL     1      34.110  -8.878 -23.169  0.00  0.00    -0.066 C 
BRANCH  20  21
ATOM     21  N   UNL     1      34.957  -8.815 -24.331  0.00  0.00    +0.382 N 
ATOM     22  H   UNL     1      35.461  -7.928 -24.338  0.00  0.00    -0.089 HD
ATOM     23  H   UNL     1      34.385  -8.887 -25.173  0.00  0.00    -0.089 HD
ATOM     24  H   UNL     1      35.625  -9.585 -24.308  0.00  0.00    -0.089 HD
ENDBRANCH  20  21
ENDBRANCH   3  20
TORSDOF 6
ENDMDL
MODEL 5
REMARK VINA RESULT:      -6.3     13.301     16.268
REMARK  Name = 11840917
REMARK  6 active torsions:
REMARK  status: ('A' for Active; 'I' for Inactive)
REMARK    1  A    between atoms: C_3  and  C_20
REMARK    2  A    between atoms: C_4  and  C_8
REMARK    3  A    between atoms: C_7  and  C_10
REMARK    4  A    between atoms: C_10  and  C_11
REMARK    5  A    between atoms: C_10  and  N_16
REMARK    6  A    between atoms: C_20  and  N_21
REMARK                            x       y       z     vdW  Elec       q    Type
REMARK                         _______ _______ _______ _____ _____    ______ ____
ROOT
ATOM      1  O   UNL     1      32.202 -22.557 -17.681  0.00  0.00    -0.277 OA
ATOM      2  N   UNL     1      33.889 -23.458 -16.371  0.00  0.00    -0.276 N 
ATOM      3  C   UNL     1      33.035 -23.814 -15.228  0.00  0.00    +0.054 C 
ATOM      4  C   UNL     1      35.266 -23.925 -16.168  0.00  0.00    +0.140 C 
ATOM      5  C   UNL     1      33.987 -24.468 -14.218  0.00  0.00    +0.020 C 
ATOM      6  C   UNL     1      35.122 -24.996 -15.087  0.00  0.00    +0.035 C 
ATOM      7  C   UNL     1      33.367 -22.938 -17.550  0.00  0.00    +0.206 C 
ENDROOT
BRANCH   4   8
ATOM      8  C   UNL     1      36.133 -22.821 -15.727  0.00  0.00    -0.058 C 
ATOM      9  C   UNL     1      36.842 -21.922 -15.367  0.00  0.00    -0.012 C 
ENDBRANCH   4   8
BRANCH   7  10
ATOM     10  C   UNL     1      34.315 -22.865 -18.720  0.00  0.00    +0.013 C 
BRANCH  10  11
ATOM     11  C   UNL     1      34.454 -21.426 -19.186  0.00  0.00    -0.011 C 
ATOM     12  C   UNL     1      35.719 -21.178 -20.002  0.00  0.00    -0.002 C 
ATOM     13  C   UNL     1      33.354 -20.996 -20.150  0.00  0.00    -0.002 C 
ATOM     14  C   UNL     1      35.439 -19.866 -20.730  0.00  0.00    -0.000 C 
ATOM     15  C   UNL     1      33.917 -19.744 -20.815  0.00  0.00    -0.000 C 
ENDBRANCH  10  11
BRANCH  10  16
ATOM     16  N   UNL     1      33.756 -23.702 -19.768  0.00  0.00    +0.387 N 
ATOM     17  H   UNL     1      32.989 -24.257 -19.387  0.00  0.00    -0.089 HD
ATOM     18  H   UNL     1      34.479 -24.324 -20.129  0.00  0.00    -0.089 HD
ATOM     19  H   UNL     1      33.406 -23.113 -20.524  0.00  0.00    -0.089 HD
ENDBRANCH  10  16
ENDBRANCH   7  10
BRANCH   3  20
ATOM     20  C   UNL     1      32.317 -22.621 -14.610  0.00  0.00    -0.066 C 
BRANCH  20  21
ATOM     21  N   UNL     1      30.902 -22.723 -14.854  0.00  0.00    +0.382 N 
ATOM     22  H   UNL     1      30.743 -23.068 -15.801  0.00  0.00    -0.089 HD
ATOM     23  H   UNL     1      30.471 -21.804 -14.752  0.00  0.00    -0.089 HD
ATOM     24  H   UNL     1      30.486 -23.370 -14.183  0.00  0.00    -0.089 HD
ENDBRANCH  20  21
ENDBRANCH   3  20
TORSDOF 6
ENDMDL
MODEL 6
REMARK VINA RESULT:      -6.3     16.549     18.966
REMARK  Name = 11840917
REMARK  6 active torsions:
REMARK  status: ('A' for Active; 'I' for Inactive)
REMARK    1  A    between atoms: C_3  and  C_20
REMARK    2  A    between atoms: C_4  and  C_8
REMARK    3  A    between atoms: C_7  and  C_10
REMARK    4  A    between atoms: C_10  and  C_11
REMARK    5  A    between atoms: C_10  and  N_16
REMARK    6  A    between atoms: C_20  and  N_21
REMARK                            x       y       z     vdW  Elec       q    Type
REMARK                         _______ _______ _______ _____ _____    ______ ____
ROOT
ATOM      1  O   UNL     1      35.290 -25.206 -15.698  0.00  0.00    -0.277 OA
ATOM      2  N   UNL     1      36.486 -24.615 -13.803  0.00  0.00    -0.276 N 
ATOM      3  C   UNL     1      37.598 -25.554 -14.012  0.00  0.00    +0.054 C 
ATOM      4  C   UNL     1      36.734 -23.753 -12.640  0.00  0.00    +0.140 C 
ATOM      5  C   UNL     1      38.548 -25.302 -12.835  0.00  0.00    +0.020 C 
ATOM      6  C   UNL     1      38.243 -23.865 -12.430  0.00  0.00    +0.035 C 
ATOM      7  C   UNL     1      35.464 -24.460 -14.732  0.00  0.00    +0.206 C 
ENDROOT
BRANCH   4   8
ATOM      8  C   UNL     1      35.985 -24.230 -11.467  0.00  0.00    -0.058 C 
ATOM      9  C   UNL     1      35.374 -24.617 -10.509  0.00  0.00    -0.012 C 
ENDBRANCH   4   8
BRANCH   7  10
ATOM     10  C   UNL     1      34.540 -23.288 -14.516  0.00  0.00    +0.013 C 
BRANCH  10  11
ATOM     11  C   UNL     1      33.126 -23.659 -14.927  0.00  0.00    -0.011 C 
ATOM     12  C   UNL     1      32.059 -23.055 -14.020  0.00  0.00    -0.002 C 
ATOM     13  C   UNL     1      32.736 -23.115 -16.297  0.00  0.00    -0.002 C 
ATOM     14  C   UNL     1      30.776 -23.152 -14.841  0.00  0.00    -0.000 C 
ATOM     15  C   UNL     1      31.213 -23.202 -16.306  0.00  0.00    -0.000 C 
ENDBRANCH  10  11
BRANCH  10  16
ATOM     16  N   UNL     1      35.051 -22.194 -15.325  0.00  0.00    +0.387 N 
ATOM     17  H   UNL     1      34.470 -22.087 -16.157  0.00  0.00    -0.089 HD
ATOM     18  H   UNL     1      36.010 -22.397 -15.605  0.00  0.00    -0.089 HD
ATOM     19  H   UNL     1      35.030 -21.331 -14.783  0.00  0.00    -0.089 HD
ENDBRANCH  10  16
ENDBRANCH   7  10
BRANCH   3  20
ATOM     20  C   UNL     1      37.160 -27.013 -14.060  0.00  0.00    -0.066 C 
BRANCH  20  21
ATOM     21  N   UNL     1      36.976 -27.422 -15.428  0.00  0.00    +0.382 N 
ATOM     22  H   UNL     1      37.844 -27.822 -15.784  0.00  0.00    -0.089 HD
ATOM     23  H   UNL     1      36.717 -26.614 -15.994  0.00  0.00    -0.089 HD
ATOM     24  H   UNL     1      36.235 -28.123 -15.477  0.00  0.00    -0.089 HD
ENDBRANCH  20  21
ENDBRANCH   3  20
TORSDOF 6
ENDMDL
MODEL 7
REMARK VINA RESULT:      -6.1      4.117      6.349
REMARK  Name = 11840917
REMARK  6 active torsions:
REMARK  status: ('A' for Active; 'I' for Inactive)
REMARK    1  A    between atoms: C_3  and  C_20
REMARK    2  A    between atoms: C_4  and  C_8
REMARK    3  A    between atoms: C_7  and  C_10
REMARK    4  A    between atoms: C_10  and  C_11
REMARK    5  A    between atoms: C_10  and  N_16
REMARK    6  A    between atoms: C_20  and  N_21
REMARK                            x       y       z     vdW  Elec       q    Type
REMARK                         _______ _______ _______ _____ _____    ______ ____
ROOT
ATOM      1  O   UNL     1      33.731 -11.620 -26.082  0.00  0.00    -0.277 OA
ATOM      2  N   UNL     1      33.855 -13.129 -24.327  0.00  0.00    -0.276 N 
ATOM      3  C   UNL     1      33.737 -14.344 -25.147  0.00  0.00    +0.054 C 
ATOM      4  C   UNL     1      34.090 -13.463 -22.917  0.00  0.00    +0.140 C 
ATOM      5  C   UNL     1      33.819 -15.501 -24.144  0.00  0.00    +0.020 C 
ATOM      6  C   UNL     1      34.593 -14.906 -22.973  0.00  0.00    +0.035 C 
ATOM      7  C   UNL     1      33.936 -11.861 -24.891  0.00  0.00    +0.206 C 
ENDROOT
BRANCH   4   8
ATOM      8  C   UNL     1      32.848 -13.351 -22.137  0.00  0.00    -0.058 C 
ATOM      9  C   UNL     1      31.834 -13.261 -21.500  0.00  0.00    -0.012 C 
ENDBRANCH   4   8
BRANCH   7  10
ATOM     10  C   UNL     1      34.313 -10.740 -23.955  0.00  0.00    +0.013 C 
BRANCH  10  11
ATOM     11  C   UNL     1      33.222  -9.684 -23.945  0.00  0.00    -0.011 C 
ATOM     12  C   UNL     1      32.270  -9.813 -22.760  0.00  0.00    -0.002 C 
ATOM     13  C   UNL     1      33.759  -8.266 -23.779  0.00  0.00    -0.002 C 
ATOM     14  C   UNL     1      31.584  -8.453 -22.684  0.00  0.00    -0.000 C 
ATOM     15  C   UNL     1      32.537  -7.459 -23.350  0.00  0.00    -0.000 C 
ENDBRANCH  10  11
BRANCH  10  16
ATOM     16  N   UNL     1      35.568 -10.191 -24.439  0.00  0.00    +0.387 N 
ATOM     17  H   UNL     1      35.507 -10.039 -25.446  0.00  0.00    -0.089 HD
ATOM     18  H   UNL     1      36.325 -10.846 -24.240  0.00  0.00    -0.089 HD
ATOM     19  H   UNL     1      35.755  -9.304 -23.972  0.00  0.00    -0.089 HD
ENDBRANCH  10  16
ENDBRANCH   7  10
BRANCH   3  20
ATOM     20  C   UNL     1      32.446 -14.409 -25.954  0.00  0.00    -0.066 C 
BRANCH  20  21
ATOM     21  N   UNL     1      32.688 -13.954 -27.298  0.00  0.00    +0.382 N 
ATOM     22  H   UNL     1      32.273 -13.031 -27.426  0.00  0.00    -0.089 HD
ATOM     23  H   UNL     1      32.269 -14.608 -27.960  0.00  0.00    -0.089 HD
ATOM     24  H   UNL     1      33.693 -13.900 -27.464  0.00  0.00    -0.089 HD
ENDBRANCH  20  21
ENDBRANCH   3  20
TORSDOF 6
ENDMDL
MODEL 8
REMARK VINA RESULT:      -6.1      2.083      5.709
REMARK  Name = 11840917
REMARK  6 active torsions:
REMARK  status: ('A' for Active; 'I' for Inactive)
REMARK    1  A    between atoms: C_3  and  C_20
REMARK    2  A    between atoms: C_4  and  C_8
REMARK    3  A    between atoms: C_7  and  C_10
REMARK    4  A    between atoms: C_10  and  C_11
REMARK    5  A    between atoms: C_10  and  N_16
REMARK    6  A    between atoms: C_20  and  N_21
REMARK                            x       y       z     vdW  Elec       q    Type
REMARK                         _______ _______ _______ _____ _____    ______ ____
ROOT
ATOM      1  O   UNL     1      33.189  -9.303 -23.969  0.00  0.00    -0.277 OA
ATOM      2  N   UNL     1      32.566  -8.357 -21.947  0.00  0.00    -0.276 N 
ATOM      3  C   UNL     1      32.023  -9.587 -21.352  0.00  0.00    +0.054 C 
ATOM      4  C   UNL     1      32.545  -7.250 -20.983  0.00  0.00    +0.140 C 
ATOM      5  C   UNL     1      31.558  -9.170 -19.951  0.00  0.00    +0.020 C 
ATOM      6  C   UNL     1      32.422  -7.956 -19.634  0.00  0.00    +0.035 C 
ATOM      7  C   UNL     1      33.194  -8.350 -23.187  0.00  0.00    +0.206 C 
ENDROOT
BRANCH   4   8
ATOM      8  C   UNL     1      31.404  -6.356 -21.236  0.00  0.00    -0.058 C 
ATOM      9  C   UNL     1      30.473  -5.626 -21.440  0.00  0.00    -0.012 C 
ENDBRANCH   4   8
BRANCH   7  10
ATOM     10  C   UNL     1      33.927  -7.084 -23.554  0.00  0.00    +0.013 C 
BRANCH  10  11
ATOM     11  C   UNL     1      33.374  -6.523 -24.852  0.00  0.00    -0.011 C 
ATOM     12  C   UNL     1      32.424  -5.348 -24.642  0.00  0.00    -0.002 C 
ATOM     13  C   UNL     1      34.446  -5.918 -25.752  0.00  0.00    -0.002 C 
ATOM     14  C   UNL     1      32.363  -4.671 -26.009  0.00  0.00    -0.000 C 
ATOM     15  C   UNL     1      33.660  -5.048 -26.727  0.00  0.00    -0.000 C 
ENDBRANCH  10  11
BRANCH  10  16
ATOM     16  N   UNL     1      35.330  -7.435 -23.691  0.00  0.00    +0.387 N 
ATOM     17  H   UNL     1      35.762  -7.476 -22.768  0.00  0.00    -0.089 HD
ATOM     18  H   UNL     1      35.803  -6.730 -24.256  0.00  0.00    -0.089 HD
ATOM     19  H   UNL     1      35.411  -8.344 -24.145  0.00  0.00    -0.089 HD
ENDBRANCH  10  16
ENDBRANCH   7  10
BRANCH   3  20
ATOM     20  C   UNL     1      30.877 -10.195 -22.151  0.00  0.00    -0.066 C 
BRANCH  20  21
ATOM     21  N   UNL     1      30.719 -11.582 -21.801  0.00  0.00    +0.382 N 
ATOM     22  H   UNL     1      31.099 -11.743 -20.867  0.00  0.00    -0.089 HD
ATOM     23  H   UNL     1      31.219 -12.163 -22.475  0.00  0.00    -0.089 HD
ATOM     24  H   UNL     1      29.729 -11.826 -21.810  0.00  0.00    -0.089 HD
ENDBRANCH  20  21
ENDBRANCH   3  20
TORSDOF 6
ENDMDL
MODEL 9
REMARK VINA RESULT:      -6.1      1.348      5.468
REMARK  Name = 11840917
REMARK  6 active torsions:
REMARK  status: ('A' for Active; 'I' for Inactive)
REMARK    1  A    between atoms: C_3  and  C_20
REMARK    2  A    between atoms: C_4  and  C_8
REMARK    3  A    between atoms: C_7  and  C_10
REMARK    4  A    between atoms: C_10  and  C_11
REMARK    5  A    between atoms: C_10  and  N_16
REMARK    6  A    between atoms: C_20  and  N_21
REMARK                            x       y       z     vdW  Elec       q    Type
REMARK                         _______ _______ _______ _____ _____    ______ ____
ROOT
ATOM      1  O   UNL     1      32.063  -5.624 -22.308  0.00  0.00    -0.277 OA
ATOM      2  N   UNL     1      32.030  -7.926 -22.576  0.00  0.00    -0.276 N 
ATOM      3  C   UNL     1      31.915  -8.255 -21.148  0.00  0.00    +0.054 C 
ATOM      4  C   UNL     1      31.956  -9.136 -23.405  0.00  0.00    +0.140 C 
ATOM      5  C   UNL     1      31.856  -9.787 -21.103  0.00  0.00    +0.020 C 
ATOM      6  C   UNL     1      31.311 -10.164 -22.476  0.00  0.00    +0.035 C 
ATOM      7  C   UNL     1      31.999  -6.616 -23.038  0.00  0.00    +0.206 C 
ENDROOT
BRANCH   4   8
ATOM      8  C   UNL     1      33.298  -9.559 -23.835  0.00  0.00    -0.058 C 
ATOM      9  C   UNL     1      34.394  -9.905 -24.184  0.00  0.00    -0.012 C 
ENDBRANCH   4   8
BRANCH   7  10
ATOM     10  C   UNL     1      31.865  -6.440 -24.530  0.00  0.00    +0.013 C 
BRANCH  10  11
ATOM     11  C   UNL     1      33.019  -5.608 -25.060  0.00  0.00    -0.011 C 
ATOM     12  C   UNL     1      34.230  -6.445 -25.458  0.00  0.00    -0.002 C 
ATOM     13  C   UNL     1      32.689  -4.875 -26.356  0.00  0.00    -0.002 C 
ATOM     14  C   UNL     1      35.044  -5.518 -26.356  0.00  0.00    -0.000 C 
ATOM     15  C   UNL     1      34.053  -4.500 -26.924  0.00  0.00    -0.000 C 
ENDBRANCH  10  11
BRANCH  10  16
ATOM     16  N   UNL     1      30.592  -5.778 -24.763  0.00  0.00    +0.387 N 
ATOM     17  H   UNL     1      30.746  -4.930 -25.311  0.00  0.00    -0.089 HD
ATOM     18  H   UNL     1      30.168  -5.531 -23.869  0.00  0.00    -0.089 HD
ATOM     19  H   UNL     1      29.971  -6.404 -25.273  0.00  0.00    -0.089 HD
ENDBRANCH  10  16
ENDBRANCH   7  10
BRANCH   3  20
ATOM     20  C   UNL     1      33.072  -7.727 -20.307  0.00  0.00    -0.066 C 
BRANCH  20  21
ATOM     21  N   UNL     1      32.605  -6.680 -19.438  0.00  0.00    +0.382 N 
ATOM     22  H   UNL     1      31.588  -6.728 -19.361  0.00  0.00    -0.089 HD
ATOM     23  H   UNL     1      32.873  -5.773 -19.821  0.00  0.00    -0.089 HD
ATOM     24  H   UNL     1      33.020  -6.793 -18.513  0.00  0.00    -0.089 HD
ENDBRANCH  20  21
ENDBRANCH   3  20
TORSDOF 6
ENDMDL
