MODEL 1
REMARK VINA RESULT:      -8.0      0.000      0.000
REMARK  Name = 91665
REMARK  0 active torsions:
REMARK  status: ('A' for Active; 'I' for Inactive)
REMARK                            x       y       z     vdW  Elec       q    Type
REMARK                         _______ _______ _______ _____ _____    ______ ____
ROOT
ATOM      1  O   UNL     1      33.281 -15.337 -26.757  0.00  0.00    -0.274 OA
ATOM      2  N   UNL     1      34.051 -16.103 -24.721  0.00  0.00    -0.236 N 
ATOM      3  C   UNL     1      34.188 -15.913 -23.353  0.00  0.00    +0.054 C 
ATOM      4  C   UNL     1      34.541 -17.444 -25.063  0.00  0.00    +0.072 C 
ATOM      5  C   UNL     1      35.221 -17.999 -23.789  0.00  0.00    +0.018 C 
ATOM      6  C   UNL     1      34.842 -16.980 -22.758  0.00  0.00    +0.015 C 
ATOM      7  C   UNL     1      33.699 -14.821 -22.667  0.00  0.00    -0.008 C 
ATOM      8  C   UNL     1      32.900 -13.813 -23.431  0.00  0.00    +0.037 C 
ATOM      9  C   UNL     1      33.298 -13.785 -24.913  0.00  0.00    +0.091 C 
ATOM     10  C   UNL     1      33.503 -15.157 -25.560  0.00  0.00    +0.233 C 
ATOM     11  C   UNL     1      35.062 -16.962 -21.395  0.00  0.00    +0.001 C 
ATOM     12  C   UNL     1      33.900 -14.804 -21.288  0.00  0.00    -0.003 C 
ATOM     13  C   UNL     1      34.586 -15.864 -20.661  0.00  0.00    -0.000 C 
ENDROOT
TORSDOF 0
ENDMDL
MODEL 2
REMARK VINA RESULT:      -8.0      2.122      3.655
REMARK  Name = 91665
REMARK  0 active torsions:
REMARK  status: ('A' for Active; 'I' for Inactive)
REMARK                            x       y       z     vdW  Elec       q    Type
REMARK                         _______ _______ _______ _____ _____    ______ ____
ROOT
ATOM      1  O   UNL     1      35.736 -18.034 -20.760  0.00  0.00    -0.274 OA
ATOM      2  N   UNL     1      34.914 -17.208 -22.752  0.00  0.00    -0.236 N 
ATOM      3  C   UNL     1      34.341 -16.161 -23.459  0.00  0.00    +0.054 C 
ATOM      4  C   UNL     1      35.241 -18.288 -23.691  0.00  0.00    +0.072 C 
ATOM      5  C   UNL     1      34.598 -17.901 -25.043  0.00  0.00    +0.018 C 
ATOM      6  C   UNL     1      34.147 -16.495 -24.790  0.00  0.00    +0.015 C 
ATOM      7  C   UNL     1      34.039 -14.929 -22.917  0.00  0.00    -0.008 C 
ATOM      8  C   UNL     1      34.428 -14.676 -21.494  0.00  0.00    +0.037 C 
ATOM      9  C   UNL     1      34.481 -15.978 -20.684  0.00  0.00    +0.091 C 
ATOM     10  C   UNL     1      35.143 -17.162 -21.394  0.00  0.00    +0.233 C 
ATOM     11  C   UNL     1      33.589 -15.567 -25.645  0.00  0.00    +0.001 C 
ATOM     12  C   UNL     1      33.493 -13.980 -23.778  0.00  0.00    -0.003 C 
ATOM     13  C   UNL     1      33.261 -14.303 -25.131  0.00  0.00    -0.000 C 
ENDROOT
TORSDOF 0
ENDMDL
MODEL 3
REMARK VINA RESULT:      -8.0      0.626      2.825
REMARK  Name = 91665
REMARK  0 active torsions:
REMARK  status: ('A' for Active; 'I' for Inactive)
REMARK                            x       y       z     vdW  Elec       q    Type
REMARK                         _______ _______ _______ _____ _____    ______ ____
ROOT
ATOM      1  O   UNL     1      33.574 -15.599 -26.624  0.00  0.00    -0.274 OA
ATOM      2  N   UNL     1      33.539 -15.104 -24.371  0.00  0.00    -0.236 N 
ATOM      3  C   UNL     1      33.901 -15.438 -23.074  0.00  0.00    +0.054 C 
ATOM      4  C   UNL     1      32.900 -13.783 -24.356  0.00  0.00    +0.072 C 
ATOM      5  C   UNL     1      32.690 -13.415 -22.868  0.00  0.00    +0.018 C 
ATOM      6  C   UNL     1      33.453 -14.494 -22.164  0.00  0.00    +0.015 C 
ATOM      7  C   UNL     1      34.649 -16.548 -22.736  0.00  0.00    -0.008 C 
ATOM      8  C   UNL     1      35.172 -17.404 -23.847  0.00  0.00    +0.037 C 
ATOM      9  C   UNL     1      34.278 -17.320 -25.092  0.00  0.00    +0.091 C 
ATOM     10  C   UNL     1      33.797 -15.913 -25.455  0.00  0.00    +0.233 C 
ATOM     11  C   UNL     1      33.730 -14.665 -20.822  0.00  0.00    +0.001 C 
ATOM     12  C   UNL     1      34.950 -16.717 -21.387  0.00  0.00    -0.003 C 
ATOM     13  C   UNL     1      34.482 -15.785 -20.436  0.00  0.00    -0.000 C 
ENDROOT
TORSDOF 0
ENDMDL
MODEL 4
REMARK VINA RESULT:      -8.0      1.304      3.029
REMARK  Name = 91665
REMARK  0 active torsions:
REMARK  status: ('A' for Active; 'I' for Inactive)
REMARK                            x       y       z     vdW  Elec       q    Type
REMARK                         _______ _______ _______ _____ _____    ______ ____
ROOT
ATOM      1  O   UNL     1      33.637 -13.504 -24.432  0.00  0.00    -0.274 OA
ATOM      2  N   UNL     1      34.225 -15.223 -23.010  0.00  0.00    -0.236 N 
ATOM      3  C   UNL     1      34.604 -16.546 -22.837  0.00  0.00    +0.054 C 
ATOM      4  C   UNL     1      34.296 -14.539 -21.713  0.00  0.00    +0.072 C 
ATOM      5  C   UNL     1      34.542 -15.637 -20.652  0.00  0.00    +0.018 C 
ATOM      6  C   UNL     1      34.816 -16.841 -21.499  0.00  0.00    +0.015 C 
ATOM      7  C   UNL     1      34.788 -17.444 -23.868  0.00  0.00    -0.008 C 
ATOM      8  C   UNL     1      34.648 -16.939 -25.270  0.00  0.00    +0.037 C 
ATOM      9  C   UNL     1      33.700 -15.734 -25.342  0.00  0.00    +0.091 C 
ATOM     10  C   UNL     1      33.882 -14.693 -24.234  0.00  0.00    +0.233 C 
ATOM     11  C   UNL     1      35.205 -18.117 -21.143  0.00  0.00    +0.001 C 
ATOM     12  C   UNL     1      35.200 -18.728 -23.518  0.00  0.00    -0.003 C 
ATOM     13  C   UNL     1      35.396 -19.063 -22.162  0.00  0.00    -0.000 C 
ENDROOT
TORSDOF 0
ENDMDL
MODEL 5
REMARK VINA RESULT:      -7.9      1.454      2.807
REMARK  Name = 91665
REMARK  0 active torsions:
REMARK  status: ('A' for Active; 'I' for Inactive)
REMARK                            x       y       z     vdW  Elec       q    Type
REMARK                         _______ _______ _______ _____ _____    ______ ____
ROOT
ATOM      1  O   UNL     1      33.856 -13.498 -23.584  0.00  0.00    -0.274 OA
ATOM      2  N   UNL     1      34.297 -15.761 -23.671  0.00  0.00    -0.236 N 
ATOM      3  C   UNL     1      34.567 -16.947 -23.004  0.00  0.00    +0.054 C 
ATOM      4  C   UNL     1      34.122 -16.054 -25.099  0.00  0.00    +0.072 C 
ATOM      5  C   UNL     1      34.541 -17.530 -25.298  0.00  0.00    +0.018 C 
ATOM      6  C   UNL     1      34.703 -18.006 -23.887  0.00  0.00    +0.015 C 
ATOM      7  C   UNL     1      34.648 -17.066 -21.631  0.00  0.00    -0.008 C 
ATOM      8  C   UNL     1      34.347 -15.856 -20.804  0.00  0.00    +0.037 C 
ATOM      9  C   UNL     1      34.647 -14.560 -21.571  0.00  0.00    +0.091 C 
ATOM     10  C   UNL     1      34.190 -14.546 -23.032  0.00  0.00    +0.233 C 
ATOM     11  C   UNL     1      34.970 -19.267 -23.394  0.00  0.00    +0.001 C 
ATOM     12  C   UNL     1      34.898 -18.339 -21.125  0.00  0.00    -0.003 C 
ATOM     13  C   UNL     1      35.068 -19.429 -22.003  0.00  0.00    -0.000 C 
ENDROOT
TORSDOF 0
ENDMDL
MODEL 6
REMARK VINA RESULT:      -7.8      2.344      4.481
REMARK  Name = 91665
REMARK  0 active torsions:
REMARK  status: ('A' for Active; 'I' for Inactive)
REMARK                            x       y       z     vdW  Elec       q    Type
REMARK                         _______ _______ _______ _____ _____    ______ ____
ROOT
ATOM      1  O   UNL     1      35.863 -18.485 -20.616  0.00  0.00    -0.274 OA
ATOM      2  N   UNL     1      34.944 -16.741 -21.815  0.00  0.00    -0.236 N 
ATOM      3  C   UNL     1      34.490 -16.239 -23.027  0.00  0.00    +0.054 C 
ATOM      4  C   UNL     1      34.641 -15.767 -20.759  0.00  0.00    +0.072 C 
ATOM      5  C   UNL     1      34.150 -14.486 -21.473  0.00  0.00    +0.018 C 
ATOM      6  C   UNL     1      34.007 -14.947 -22.890  0.00  0.00    +0.015 C 
ATOM      7  C   UNL     1      34.483 -16.950 -24.209  0.00  0.00    -0.008 C 
ATOM      8  C   UNL     1      34.917 -18.382 -24.169  0.00  0.00    +0.037 C 
ATOM      9  C   UNL     1      35.903 -18.639 -23.020  0.00  0.00    +0.091 C 
ATOM     10  C   UNL     1      35.541 -17.976 -21.689  0.00  0.00    +0.233 C 
ATOM     11  C   UNL     1      33.509 -14.292 -23.999  0.00  0.00    +0.001 C 
ATOM     12  C   UNL     1      33.965 -16.303 -25.328  0.00  0.00    -0.003 C 
ATOM     13  C   UNL     1      33.491 -14.978 -25.223  0.00  0.00    -0.000 C 
ENDROOT
TORSDOF 0
ENDMDL
MODEL 7
REMARK VINA RESULT:      -7.8      1.768      3.468
REMARK  Name = 91665
REMARK  0 active torsions:
REMARK  status: ('A' for Active; 'I' for Inactive)
REMARK                            x       y       z     vdW  Elec       q    Type
REMARK                         _______ _______ _______ _____ _____    ______ ____
ROOT
ATOM      1  O   UNL     1      34.977 -19.758 -24.631  0.00  0.00    -0.274 OA
ATOM      2  N   UNL     1      34.579 -17.614 -23.878  0.00  0.00    -0.236 N 
ATOM      3  C   UNL     1      34.529 -16.713 -22.824  0.00  0.00    +0.054 C 
ATOM      4  C   UNL     1      34.359 -16.883 -25.132  0.00  0.00    +0.072 C 
ATOM      5  C   UNL     1      33.934 -15.450 -24.735  0.00  0.00    +0.018 C 
ATOM      6  C   UNL     1      34.177 -15.445 -23.257  0.00  0.00    +0.015 C 
ATOM      7  C   UNL     1      34.832 -17.030 -21.515  0.00  0.00    -0.008 C 
ATOM      8  C   UNL     1      35.324 -18.414 -21.225  0.00  0.00    +0.037 C 
ATOM      9  C   UNL     1      34.795 -19.426 -22.251  0.00  0.00    +0.091 C 
ATOM     10  C   UNL     1      34.831 -18.958 -23.708  0.00  0.00    +0.233 C 
ATOM     11  C   UNL     1      34.084 -14.419 -22.339  0.00  0.00    +0.001 C 
ATOM     12  C   UNL     1      34.760 -15.996 -20.585  0.00  0.00    -0.003 C 
ATOM     13  C   UNL     1      34.377 -14.702 -20.995  0.00  0.00    -0.000 C 
ENDROOT
TORSDOF 0
ENDMDL
MODEL 8
REMARK VINA RESULT:      -7.8      2.411      3.798
REMARK  Name = 91665
REMARK  0 active torsions:
REMARK  status: ('A' for Active; 'I' for Inactive)
REMARK                            x       y       z     vdW  Elec       q    Type
REMARK                         _______ _______ _______ _____ _____    ______ ____
ROOT
ATOM      1  O   UNL     1      34.964 -15.307 -19.894  0.00  0.00    -0.274 OA
ATOM      2  N   UNL     1      34.876 -16.859 -21.598  0.00  0.00    -0.236 N 
ATOM      3  C   UNL     1      34.667 -17.142 -22.941  0.00  0.00    +0.054 C 
ATOM      4  C   UNL     1      35.336 -18.081 -20.926  0.00  0.00    +0.072 C 
ATOM      5  C   UNL     1      35.175 -19.230 -21.949  0.00  0.00    +0.018 C 
ATOM      6  C   UNL     1      34.840 -18.491 -23.207  0.00  0.00    +0.015 C 
ATOM      7  C   UNL     1      34.366 -16.194 -23.897  0.00  0.00    -0.008 C 
ATOM      8  C   UNL     1      34.342 -14.758 -23.477  0.00  0.00    +0.037 C 
ATOM      9  C   UNL     1      33.996 -14.612 -21.988  0.00  0.00    +0.091 C 
ATOM     10  C   UNL     1      34.694 -15.606 -21.056  0.00  0.00    +0.233 C 
ATOM     11  C   UNL     1      34.676 -18.950 -24.498  0.00  0.00    +0.001 C 
ATOM     12  C   UNL     1      34.218 -16.647 -25.206  0.00  0.00    -0.003 C 
ATOM     13  C   UNL     1      34.362 -18.018 -25.500  0.00  0.00    -0.000 C 
ENDROOT
TORSDOF 0
ENDMDL
MODEL 9
REMARK VINA RESULT:      -7.7      5.221      7.075
REMARK  Name = 91665
REMARK  0 active torsions:
REMARK  status: ('A' for Active; 'I' for Inactive)
REMARK                            x       y       z     vdW  Elec       q    Type
REMARK                         _______ _______ _______ _____ _____    ______ ____
ROOT
ATOM      1  O   UNL     1      34.491 -22.975 -18.194  0.00  0.00    -0.274 OA
ATOM      2  N   UNL     1      34.301 -21.170 -19.618  0.00  0.00    -0.236 N 
ATOM      3  C   UNL     1      34.914 -20.182 -20.374  0.00  0.00    +0.054 C 
ATOM      4  C   UNL     1      32.857 -21.138 -19.881  0.00  0.00    +0.072 C 
ATOM      5  C   UNL     1      32.593 -19.863 -20.717  0.00  0.00    +0.018 C 
ATOM      6  C   UNL     1      33.982 -19.405 -21.043  0.00  0.00    +0.015 C 
ATOM      7  C   UNL     1      36.280 -20.019 -20.481  0.00  0.00    -0.008 C 
ATOM      8  C   UNL     1      37.160 -21.021 -19.801  0.00  0.00    +0.037 C 
ATOM      9  C   UNL     1      36.464 -21.649 -18.585  0.00  0.00    +0.091 C 
ATOM     10  C   UNL     1      34.997 -22.031 -18.799  0.00  0.00    +0.233 C 
ATOM     11  C   UNL     1      34.417 -18.373 -21.850  0.00  0.00    +0.001 C 
ATOM     12  C   UNL     1      36.728 -18.992 -21.308  0.00  0.00    -0.003 C 
ATOM     13  C   UNL     1      35.800 -18.169 -21.979  0.00  0.00    -0.000 C 
ENDROOT
TORSDOF 0
ENDMDL
