MODEL 1
REMARK VINA RESULT:      -9.2      0.000      0.000
REMARK  Name = 124087
REMARK  0 active torsions:
REMARK  status: ('A' for Active; 'I' for Inactive)
REMARK                            x       y       z     vdW  Elec       q    Type
REMARK                         _______ _______ _______ _____ _____    ______ ____
ROOT
ATOM      1 CL   UNL     1      35.831 -10.912 -26.671  0.00  0.00    -0.082 Cl
ATOM      2  N   UNL     1      30.664  -4.892 -22.818  0.00  0.00    +0.384 N 
ATOM      3  N   UNL     1      32.640  -8.751 -19.756  0.00  0.00    -0.244 NA
ATOM      4  C   UNL     1      32.299  -7.205 -22.231  0.00  0.00    -0.047 C 
ATOM      5  C   UNL     1      32.646  -8.497 -22.155  0.00  0.00    +0.009 C 
ATOM      6  C   UNL     1      31.559  -6.489 -21.131  0.00  0.00    -0.001 C 
ATOM      7  C   UNL     1      32.580  -6.353 -23.440  0.00  0.00    -0.001 C 
ATOM      8  C   UNL     1      30.327  -5.778 -21.696  0.00  0.00    -0.077 C 
ATOM      9  C   UNL     1      31.304  -5.647 -23.903  0.00  0.00    -0.077 C 
ATOM     10  C   UNL     1      33.376  -9.136 -23.283  0.00  0.00    -0.003 C 
ATOM     11  C   UNL     1      32.187  -9.214 -20.948  0.00  0.00    +0.077 C 
ATOM     12  C   UNL     1      31.992 -11.354 -23.250  0.00  0.00    +0.031 C 
ATOM     13  C   UNL     1      33.074 -10.426 -23.773  0.00  0.00    -0.021 C 
ATOM     14  C   UNL     1      30.853 -10.767 -22.419  0.00  0.00    +0.033 C 
ATOM     15  C   UNL     1      31.325 -10.303 -21.071  0.00  0.00    -0.004 C 
ATOM     16  C   UNL     1      34.464  -8.436 -23.854  0.00  0.00    +0.001 C 
ATOM     17  C   UNL     1      33.862 -10.955 -24.821  0.00  0.00    +0.007 C 
ATOM     18  C   UNL     1      30.918 -10.942 -19.897  0.00  0.00    -0.001 C 
ATOM     19  C   UNL     1      35.220  -8.977 -24.894  0.00  0.00    +0.011 C 
ATOM     20  C   UNL     1      34.917 -10.238 -25.381  0.00  0.00    +0.057 C 
ATOM     21  C   UNL     1      31.371 -10.488 -18.663  0.00  0.00    +0.020 C 
ATOM     22  C   UNL     1      32.223  -9.399 -18.647  0.00  0.00    +0.099 C 
ATOM     23  H   UNL     1      31.304  -4.169 -22.491  0.00  0.00    -0.084 HD
ATOM     24  H   UNL     1      29.806  -4.473 -23.173  0.00  0.00    -0.084 HD
ENDROOT
TORSDOF 0
ENDMDL
MODEL 2
REMARK VINA RESULT:      -9.1      1.695      4.561
REMARK  Name = 124087
REMARK  0 active torsions:
REMARK  status: ('A' for Active; 'I' for Inactive)
REMARK                            x       y       z     vdW  Elec       q    Type
REMARK                         _______ _______ _______ _____ _____    ______ ____
ROOT
ATOM      1 CL   UNL     1      33.569 -14.605 -24.367  0.00  0.00    -0.082 Cl
ATOM      2  N   UNL     1      31.943  -7.819 -18.974  0.00  0.00    +0.384 N 
ATOM      3  N   UNL     1      31.571  -6.946 -24.196  0.00  0.00    -0.244 NA
ATOM      4  C   UNL     1      31.937  -8.562 -21.768  0.00  0.00    -0.047 C 
ATOM      5  C   UNL     1      32.429  -8.846 -22.982  0.00  0.00    +0.009 C 
ATOM      6  C   UNL     1      31.559  -7.166 -21.345  0.00  0.00    -0.001 C 
ATOM      7  C   UNL     1      31.750  -9.603 -20.697  0.00  0.00    -0.001 C 
ATOM      8  C   UNL     1      32.224  -6.818 -20.011  0.00  0.00    -0.077 C 
ATOM      9  C   UNL     1      32.405  -9.148 -19.392  0.00  0.00    -0.077 C 
ATOM     10  C   UNL     1      32.780 -10.250 -23.328  0.00  0.00    -0.003 C 
ATOM     11  C   UNL     1      32.659  -7.688 -23.868  0.00  0.00    +0.077 C 
ATOM     12  C   UNL     1      35.028  -9.657 -24.524  0.00  0.00    +0.031 C 
ATOM     13  C   UNL     1      33.956 -10.608 -24.023  0.00  0.00    -0.021 C 
ATOM     14  C   UNL     1      35.115  -8.257 -23.918  0.00  0.00    +0.033 C 
ATOM     15  C   UNL     1      33.947  -7.401 -24.319  0.00  0.00    -0.004 C 
ATOM     16  C   UNL     1      31.859 -11.269 -22.993  0.00  0.00    +0.001 C 
ATOM     17  C   UNL     1      34.168 -11.970 -24.340  0.00  0.00    +0.007 C 
ATOM     18  C   UNL     1      34.109  -6.291 -25.151  0.00  0.00    -0.001 C 
ATOM     19  C   UNL     1      32.096 -12.607 -23.309  0.00  0.00    +0.011 C 
ATOM     20  C   UNL     1      33.255 -12.959 -23.982  0.00  0.00    +0.057 C 
ATOM     21  C   UNL     1      33.009  -5.517 -25.503  0.00  0.00    +0.020 C 
ATOM     22  C   UNL     1      31.773  -5.883 -25.004  0.00  0.00    +0.099 C 
ATOM     23  H   UNL     1      30.937  -7.852 -18.807  0.00  0.00    -0.084 HD
ATOM     24  H   UNL     1      32.435  -7.554 -18.122  0.00  0.00    -0.084 HD
ENDROOT
TORSDOF 0
ENDMDL
MODEL 3
REMARK VINA RESULT:      -8.5      4.020      6.477
REMARK  Name = 124087
REMARK  0 active torsions:
REMARK  status: ('A' for Active; 'I' for Inactive)
REMARK                            x       y       z     vdW  Elec       q    Type
REMARK                         _______ _______ _______ _____ _____    ______ ____
ROOT
ATOM      1 CL   UNL     1      30.807 -11.161 -18.584  0.00  0.00    -0.082 Cl
ATOM      2  N   UNL     1      35.607  -9.609 -25.819  0.00  0.00    +0.384 N 
ATOM      3  N   UNL     1      32.565 -13.958 -25.779  0.00  0.00    -0.244 NA
ATOM      4  C   UNL     1      33.633 -11.425 -24.740  0.00  0.00    -0.047 C 
ATOM      5  C   UNL     1      33.134 -12.428 -24.003  0.00  0.00    +0.009 C 
ATOM      6  C   UNL     1      34.178 -11.623 -26.129  0.00  0.00    -0.001 C 
ATOM      7  C   UNL     1      33.731 -10.010 -24.234  0.00  0.00    -0.001 C 
ATOM      8  C   UNL     1      35.579 -11.015 -26.241  0.00  0.00    -0.077 C 
ATOM      9  C   UNL     1      35.150  -9.472 -24.430  0.00  0.00    -0.077 C 
ATOM     10  C   UNL     1      32.612 -12.154 -22.637  0.00  0.00    -0.003 C 
ATOM     11  C   UNL     1      33.223 -13.772 -24.607  0.00  0.00    +0.077 C 
ATOM     12  C   UNL     1      33.693 -14.263 -21.532  0.00  0.00    +0.031 C 
ATOM     13  C   UNL     1      32.871 -12.987 -21.525  0.00  0.00    -0.021 C 
ATOM     14  C   UNL     1      34.673 -14.504 -22.679  0.00  0.00    +0.033 C 
ATOM     15  C   UNL     1      33.962 -14.771 -23.975  0.00  0.00    -0.004 C 
ATOM     16  C   UNL     1      31.769 -11.035 -22.457  0.00  0.00    +0.001 C 
ATOM     17  C   UNL     1      32.287 -12.657 -20.281  0.00  0.00    +0.007 C 
ATOM     18  C   UNL     1      34.017 -16.024 -24.591  0.00  0.00    -0.001 C 
ATOM     19  C   UNL     1      31.212 -10.725 -21.216  0.00  0.00    +0.011 C 
ATOM     20  C   UNL     1      31.474 -11.537 -20.124  0.00  0.00    +0.057 C 
ATOM     21  C   UNL     1      33.349 -16.240 -25.792  0.00  0.00    +0.020 C 
ATOM     22  C   UNL     1      32.644 -15.184 -26.339  0.00  0.00    +0.099 C 
ATOM     23  H   UNL     1      34.995  -9.065 -26.427  0.00  0.00    -0.084 HD
ATOM     24  H   UNL     1      36.565  -9.267 -25.883  0.00  0.00    -0.084 HD
ENDROOT
TORSDOF 0
ENDMDL
MODEL 4
REMARK VINA RESULT:      -8.2     14.576     17.085
REMARK  Name = 124087
REMARK  0 active torsions:
REMARK  status: ('A' for Active; 'I' for Inactive)
REMARK                            x       y       z     vdW  Elec       q    Type
REMARK                         _______ _______ _______ _____ _____    ______ ____
ROOT
ATOM      1 CL   UNL     1      39.811 -26.168 -13.526  0.00  0.00    -0.082 Cl
ATOM      2  N   UNL     1      31.600 -22.950 -13.473  0.00  0.00    +0.384 N 
ATOM      3  N   UNL     1      33.886 -23.764 -18.194  0.00  0.00    -0.244 NA
ATOM      4  C   UNL     1      33.680 -23.862 -15.264  0.00  0.00    -0.047 C 
ATOM      5  C   UNL     1      34.818 -23.827 -15.970  0.00  0.00    +0.009 C 
ATOM      6  C   UNL     1      32.366 -23.363 -15.806  0.00  0.00    -0.001 C 
ATOM      7  C   UNL     1      33.611 -24.367 -13.847  0.00  0.00    -0.001 C 
ATOM      8  C   UNL     1      31.725 -22.381 -14.821  0.00  0.00    -0.077 C 
ATOM      9  C   UNL     1      32.914 -23.342 -12.950  0.00  0.00    -0.077 C 
ATOM     10  C   UNL     1      36.079 -24.339 -15.366  0.00  0.00    -0.003 C 
ATOM     11  C   UNL     1      34.730 -23.190 -17.299  0.00  0.00    +0.077 C 
ATOM     12  C   UNL     1      37.580 -22.382 -16.232  0.00  0.00    +0.031 C 
ATOM     13  C   UNL     1      37.322 -23.679 -15.488  0.00  0.00    -0.021 C 
ATOM     14  C   UNL     1      36.402 -21.461 -16.544  0.00  0.00    +0.033 C 
ATOM     15  C   UNL     1      35.488 -22.054 -17.578  0.00  0.00    -0.004 C 
ATOM     16  C   UNL     1      36.038 -25.577 -14.687  0.00  0.00    +0.001 C 
ATOM     17  C   UNL     1      38.466 -24.278 -14.913  0.00  0.00    +0.007 C 
ATOM     18  C   UNL     1      35.362 -21.489 -18.849  0.00  0.00    -0.001 C 
ATOM     19  C   UNL     1      37.180 -26.143 -14.119  0.00  0.00    +0.011 C 
ATOM     20  C   UNL     1      38.398 -25.491 -14.231  0.00  0.00    +0.057 C 
ATOM     21  C   UNL     1      34.506 -22.059 -19.785  0.00  0.00    +0.020 C 
ATOM     22  C   UNL     1      33.797 -23.185 -19.411  0.00  0.00    +0.099 C 
ATOM     23  H   UNL     1      30.997 -23.771 -13.513  0.00  0.00    -0.084 HD
ATOM     24  H   UNL     1      31.199 -22.244 -12.857  0.00  0.00    -0.084 HD
ENDROOT
TORSDOF 0
ENDMDL
MODEL 5
REMARK VINA RESULT:      -7.2      3.790      6.314
REMARK  Name = 124087
REMARK  0 active torsions:
REMARK  status: ('A' for Active; 'I' for Inactive)
REMARK                            x       y       z     vdW  Elec       q    Type
REMARK                         _______ _______ _______ _____ _____    ______ ____
ROOT
ATOM      1 CL   UNL     1      32.316 -15.639 -19.008  0.00  0.00    -0.082 Cl
ATOM      2  N   UNL     1      33.065 -13.653 -27.569  0.00  0.00    +0.384 N 
ATOM      3  N   UNL     1      34.850 -10.093 -24.059  0.00  0.00    -0.244 NA
ATOM      4  C   UNL     1      33.731 -12.667 -24.933  0.00  0.00    -0.047 C 
ATOM      5  C   UNL     1      33.547 -12.098 -23.733  0.00  0.00    +0.009 C 
ATOM      6  C   UNL     1      34.104 -11.881 -26.162  0.00  0.00    -0.001 C 
ATOM      7  C   UNL     1      33.545 -14.141 -25.176  0.00  0.00    -0.001 C 
ATOM      8  C   UNL     1      33.149 -12.210 -27.312  0.00  0.00    -0.077 C 
ATOM      9  C   UNL     1      32.615 -14.370 -26.369  0.00  0.00    -0.077 C 
ATOM     10  C   UNL     1      33.179 -12.940 -22.563  0.00  0.00    -0.003 C 
ATOM     11  C   UNL     1      33.654 -10.626 -23.698  0.00  0.00    +0.077 C 
ATOM     12  C   UNL     1      31.377 -11.293 -21.629  0.00  0.00    +0.031 C 
ATOM     13  C   UNL     1      32.196 -12.570 -21.618  0.00  0.00    -0.021 C 
ATOM     14  C   UNL     1      31.256 -10.503 -22.931  0.00  0.00    +0.033 C 
ATOM     15  C   UNL     1      32.556  -9.857 -23.315  0.00  0.00    -0.004 C 
ATOM     16  C   UNL     1      33.891 -14.144 -22.358  0.00  0.00    +0.001 C 
ATOM     17  C   UNL     1      31.958 -13.426 -20.518  0.00  0.00    +0.007 C 
ATOM     18  C   UNL     1      32.711  -8.468 -23.304  0.00  0.00    -0.001 C 
ATOM     19  C   UNL     1      33.630 -14.976 -21.269  0.00  0.00    +0.011 C 
ATOM     20  C   UNL     1      32.659 -14.618 -20.348  0.00  0.00    +0.057 C 
ATOM     21  C   UNL     1      33.926  -7.899 -23.667  0.00  0.00    +0.020 C 
ATOM     22  C   UNL     1      34.955  -8.747 -24.033  0.00  0.00    +0.099 C 
ATOM     23  H   UNL     1      33.987 -13.998 -27.837  0.00  0.00    -0.084 HD
ATOM     24  H   UNL     1      32.394 -13.814 -28.318  0.00  0.00    -0.084 HD
ENDROOT
TORSDOF 0
ENDMDL
MODEL 6
REMARK VINA RESULT:      -7.0      4.432      6.563
REMARK  Name = 124087
REMARK  0 active torsions:
REMARK  status: ('A' for Active; 'I' for Inactive)
REMARK                            x       y       z     vdW  Elec       q    Type
REMARK                         _______ _______ _______ _____ _____    ______ ____
ROOT
ATOM      1 CL   UNL     1      35.093 -17.849 -20.621  0.00  0.00    -0.082 Cl
ATOM      2  N   UNL     1      32.051 -13.867 -27.879  0.00  0.00    +0.384 N 
ATOM      3  N   UNL     1      34.358 -10.822 -24.194  0.00  0.00    -0.244 NA
ATOM      4  C   UNL     1      33.494 -13.346 -25.428  0.00  0.00    -0.047 C 
ATOM      5  C   UNL     1      33.689 -13.139 -24.118  0.00  0.00    +0.009 C 
ATOM      6  C   UNL     1      33.202 -12.231 -26.397  0.00  0.00    -0.001 C 
ATOM      7  C   UNL     1      33.509 -14.716 -26.050  0.00  0.00    -0.001 C 
ATOM      8  C   UNL     1      31.954 -12.557 -27.221  0.00  0.00    -0.077 C 
ATOM      9  C   UNL     1      32.248 -14.933 -26.890  0.00  0.00    -0.077 C 
ATOM     10  C   UNL     1      33.973 -14.292 -23.221  0.00  0.00    -0.003 C 
ATOM     11  C   UNL     1      33.522 -11.746 -23.656  0.00  0.00    +0.077 C 
ATOM     12  C   UNL     1      32.403 -13.495 -21.288  0.00  0.00    +0.031 C 
ATOM     13  C   UNL     1      33.387 -14.446 -21.944  0.00  0.00    -0.021 C 
ATOM     14  C   UNL     1      31.637 -12.504 -22.163  0.00  0.00    +0.033 C 
ATOM     15  C   UNL     1      32.537 -11.437 -22.719  0.00  0.00    -0.004 C 
ATOM     16  C   UNL     1      34.922 -15.249 -23.646  0.00  0.00    +0.001 C 
ATOM     17  C   UNL     1      33.763 -15.557 -21.156  0.00  0.00    +0.007 C 
ATOM     18  C   UNL     1      32.419 -10.104 -22.321  0.00  0.00    -0.001 C 
ATOM     19  C   UNL     1      35.269 -16.343 -22.853  0.00  0.00    +0.011 C 
ATOM     20  C   UNL     1      34.686 -16.499 -21.605  0.00  0.00    +0.057 C 
ATOM     21  C   UNL     1      33.265  -9.138 -22.855  0.00  0.00    +0.020 C 
ATOM     22  C   UNL     1      34.209  -9.545 -23.779  0.00  0.00    +0.099 C 
ATOM     23  H   UNL     1      32.842 -13.858 -28.523  0.00  0.00    -0.084 HD
ATOM     24  H   UNL     1      31.184 -14.044 -28.384  0.00  0.00    -0.084 HD
ENDROOT
TORSDOF 0
ENDMDL
MODEL 7
REMARK VINA RESULT:      -6.9      1.553      4.415
REMARK  Name = 124087
REMARK  0 active torsions:
REMARK  status: ('A' for Active; 'I' for Inactive)
REMARK                            x       y       z     vdW  Elec       q    Type
REMARK                         _______ _______ _______ _____ _____    ______ ____
ROOT
ATOM      1 CL   UNL     1      36.003 -11.827 -27.652  0.00  0.00    -0.082 Cl
ATOM      2  N   UNL     1      31.692 -12.292 -19.972  0.00  0.00    +0.384 N 
ATOM      3  N   UNL     1      30.736  -8.091 -23.073  0.00  0.00    -0.244 NA
ATOM      4  C   UNL     1      31.905 -10.696 -22.374  0.00  0.00    -0.047 C 
ATOM      5  C   UNL     1      32.419  -9.811 -23.240  0.00  0.00    +0.009 C 
ATOM      6  C   UNL     1      30.950 -10.306 -21.276  0.00  0.00    -0.001 C 
ATOM      7  C   UNL     1      32.261 -12.158 -22.391  0.00  0.00    -0.001 C 
ATOM      8  C   UNL     1      31.440 -10.846 -19.931  0.00  0.00    -0.077 C 
ATOM      9  C   UNL     1      32.692 -12.617 -20.997  0.00  0.00    -0.077 C 
ATOM     10  C   UNL     1      33.358 -10.272 -24.299  0.00  0.00    -0.003 C 
ATOM     11  C   UNL     1      32.056  -8.399 -23.006  0.00  0.00    +0.077 C 
ATOM     12  C   UNL     1      35.032  -8.282 -24.030  0.00  0.00    +0.031 C 
ATOM     13  C   UNL     1      34.537  -9.576 -24.649  0.00  0.00    -0.021 C 
ATOM     14  C   UNL     1      34.496  -7.864 -22.662  0.00  0.00    +0.033 C 
ATOM     15  C   UNL     1      33.050  -7.462 -22.727  0.00  0.00    -0.004 C 
ATOM     16  C   UNL     1      33.020 -11.434 -25.029  0.00  0.00    +0.001 C 
ATOM     17  C   UNL     1      35.333 -10.080 -25.703  0.00  0.00    +0.007 C 
ATOM     18  C   UNL     1      32.651  -6.141 -22.509  0.00  0.00    -0.001 C 
ATOM     19  C   UNL     1      33.828 -11.916 -26.059  0.00  0.00    +0.011 C 
ATOM     20  C   UNL     1      34.990 -11.239 -26.395  0.00  0.00    +0.057 C 
ATOM     21  C   UNL     1      31.304  -5.800 -22.574  0.00  0.00    +0.020 C 
ATOM     22  C   UNL     1      30.395  -6.802 -22.857  0.00  0.00    +0.099 C 
ATOM     23  H   UNL     1      30.821 -12.776 -20.190  0.00  0.00    -0.084 HD
ATOM     24  H   UNL     1      32.045 -12.589 -19.064  0.00  0.00    -0.084 HD
ENDROOT
TORSDOF 0
ENDMDL
MODEL 8
REMARK VINA RESULT:      -6.8      2.731      5.488
REMARK  Name = 124087
REMARK  0 active torsions:
REMARK  status: ('A' for Active; 'I' for Inactive)
REMARK                            x       y       z     vdW  Elec       q    Type
REMARK                         _______ _______ _______ _____ _____    ______ ____
ROOT
ATOM      1 CL   UNL     1      31.941 -12.003 -22.224  0.00  0.00    -0.082 Cl
ATOM      2  N   UNL     1      30.432  -3.315 -22.080  0.00  0.00    +0.384 N 
ATOM      3  N   UNL     1      32.265  -5.412 -26.598  0.00  0.00    -0.244 NA
ATOM      4  C   UNL     1      31.243  -5.459 -23.843  0.00  0.00    -0.047 C 
ATOM      5  C   UNL     1      32.045  -6.378 -24.398  0.00  0.00    +0.009 C 
ATOM      6  C   UNL     1      31.146  -4.044 -24.350  0.00  0.00    -0.001 C 
ATOM      7  C   UNL     1      30.391  -5.740 -22.634  0.00  0.00    -0.001 C 
ATOM      8  C   UNL     1      31.344  -3.053 -23.200  0.00  0.00    -0.077 C 
ATOM      9  C   UNL     1      30.621  -4.675 -21.561  0.00  0.00    -0.077 C 
ATOM     10  C   UNL     1      32.087  -7.757 -23.840  0.00  0.00    -0.003 C 
ATOM     11  C   UNL     1      32.901  -5.900 -25.502  0.00  0.00    +0.077 C 
ATOM     12  C   UNL     1      34.686  -8.003 -23.984  0.00  0.00    +0.031 C 
ATOM     13  C   UNL     1      33.285  -8.484 -23.655  0.00  0.00    -0.021 C 
ATOM     14  C   UNL     1      34.935  -6.504 -24.141  0.00  0.00    +0.033 C 
ATOM     15  C   UNL     1      34.289  -5.958 -25.382  0.00  0.00    -0.004 C 
ATOM     16  C   UNL     1      30.861  -8.390 -23.536  0.00  0.00    +0.001 C 
ATOM     17  C   UNL     1      33.205  -9.805 -23.160  0.00  0.00    +0.007 C 
ATOM     18  C   UNL     1      35.051  -5.487 -26.454  0.00  0.00    -0.001 C 
ATOM     19  C   UNL     1      30.810  -9.693 -23.039  0.00  0.00    +0.011 C 
ATOM     20  C   UNL     1      31.986 -10.402 -22.848  0.00  0.00    +0.057 C 
ATOM     21  C   UNL     1      34.423  -4.985 -27.589  0.00  0.00    +0.020 C 
ATOM     22  C   UNL     1      33.041  -4.970 -27.611  0.00  0.00    +0.099 C 
ATOM     23  H   UNL     1      29.470  -3.211 -22.402  0.00  0.00    -0.084 HD
ATOM     24  H   UNL     1      30.630  -2.649 -21.334  0.00  0.00    -0.084 HD
ENDROOT
TORSDOF 0
ENDMDL
MODEL 9
REMARK VINA RESULT:      -6.6     14.228     17.015
REMARK  Name = 124087
REMARK  0 active torsions:
REMARK  status: ('A' for Active; 'I' for Inactive)
REMARK                            x       y       z     vdW  Elec       q    Type
REMARK                         _______ _______ _______ _____ _____    ______ ____
ROOT
ATOM      1 CL   UNL     1      29.246 -23.218 -14.622  0.00  0.00    -0.082 Cl
ATOM      2  N   UNL     1      37.470 -26.402 -14.483  0.00  0.00    +0.384 N 
ATOM      3  N   UNL     1      36.785 -21.451 -16.270  0.00  0.00    -0.244 NA
ATOM      4  C   UNL     1      35.963 -24.004 -15.067  0.00  0.00    -0.047 C 
ATOM      5  C   UNL     1      35.171 -23.167 -15.752  0.00  0.00    +0.009 C 
ATOM      6  C   UNL     1      37.461 -24.026 -15.228  0.00  0.00    -0.001 C 
ATOM      7  C   UNL     1      35.430 -25.028 -14.101  0.00  0.00    -0.001 C 
ATOM      8  C   UNL     1      37.943 -25.454 -15.499  0.00  0.00    -0.077 C 
ATOM      9  C   UNL     1      36.003 -26.410 -14.421  0.00  0.00    -0.077 C 
ATOM     10  C   UNL     1      33.698 -23.203 -15.540  0.00  0.00    -0.003 C 
ATOM     11  C   UNL     1      35.848 -22.310 -16.745  0.00  0.00    +0.077 C 
ATOM     12  C   UNL     1      33.078 -23.006 -18.072  0.00  0.00    +0.031 C 
ATOM     13  C   UNL     1      32.759 -23.131 -16.594  0.00  0.00    -0.021 C 
ATOM     14  C   UNL     1      34.474 -23.389 -18.563  0.00  0.00    +0.033 C 
ATOM     15  C   UNL     1      35.517 -22.415 -18.096  0.00  0.00    -0.004 C 
ATOM     16  C   UNL     1      33.217 -23.254 -14.212  0.00  0.00    +0.001 C 
ATOM     17  C   UNL     1      31.382 -23.128 -16.275  0.00  0.00    +0.007 C 
ATOM     18  C   UNL     1      36.192 -21.584 -18.993  0.00  0.00    -0.001 C 
ATOM     19  C   UNL     1      31.852 -23.259 -13.924  0.00  0.00    +0.011 C 
ATOM     20  C   UNL     1      30.931 -23.199 -14.959  0.00  0.00    +0.057 C 
ATOM     21  C   UNL     1      37.154 -20.693 -18.531  0.00  0.00    +0.020 C 
ATOM     22  C   UNL     1      37.411 -20.666 -17.173  0.00  0.00    +0.099 C 
ATOM     23  H   UNL     1      37.841 -26.128 -13.573  0.00  0.00    -0.084 HD
ATOM     24  H   UNL     1      37.793 -27.336 -14.731  0.00  0.00    -0.084 HD
ENDROOT
TORSDOF 0
ENDMDL
