MODEL 1
REMARK VINA RESULT:     -11.3      0.000      0.000
REMARK  Name = 46937074
REMARK  11 active torsions:
REMARK  status: ('A' for Active; 'I' for Inactive)
REMARK    1  A    between atoms: C_1  and  N_4
REMARK    2  A    between atoms: C_1  and  C_23
REMARK    3  A    between atoms: C_5  and  C_7
REMARK    4  A    between atoms: C_7  and  C_10
REMARK    5  A    between atoms: C_7  and  C_14
REMARK    6  A    between atoms: N_9  and  O_12
REMARK    7  A    between atoms: C_14  and  C_15
REMARK    8  A    between atoms: N_22  and  C_25
REMARK    9  A    between atoms: C_25  and  C_28
REMARK   10  A    between atoms: N_27  and  C_30
REMARK   11  A    between atoms: C_33  and  N_38
REMARK                            x       y       z     vdW  Elec       q    Type
REMARK                         _______ _______ _______ _____ _____    ______ ____
ROOT
ATOM      1  C   UNL     1      33.029 -15.335 -25.201  0.00  0.00    +0.149 C 
ATOM      2  C   UNL     1      32.719 -15.376 -26.689  0.00  0.00    +0.031 C 
ENDROOT
BRANCH   1   4
ATOM      3  O   UNL     1      32.243 -14.261 -22.634  0.00  0.00    -0.275 OA
ATOM      4  N   UNL     1      33.192 -13.977 -24.735  0.00  0.00    -0.298 N 
ATOM      5  C   UNL     1      32.781 -13.551 -23.481  0.00  0.00    +0.231 C 
ATOM      6  H   UNL     1      33.614 -13.323 -25.338  0.00  0.00    +0.150 HD
BRANCH   5   7
ATOM      7  C   UNL     1      33.080 -12.071 -23.239  0.00  0.00    +0.159 C 
BRANCH   7  10
ATOM      8  O   UNL     1      33.460 -11.651 -25.598  0.00  0.00    -0.273 OA
ATOM      9  N   UNL     1      34.874 -10.679 -24.054  0.00  0.00    -0.197 N 
ATOM     10  C   UNL     1      33.801 -11.448 -24.435  0.00  0.00    +0.253 C 
ATOM     11  H   UNL     1      35.112 -10.544 -23.108  0.00  0.00    +0.182 HD
BRANCH   9  12
ATOM     12  O   UNL     1      35.611 -10.103 -25.097  0.00  0.00    -0.295 OA
ATOM     13  H   UNL     1      35.319 -10.475 -25.943  0.00  0.00    +0.241 HD
ENDBRANCH   9  12
ENDBRANCH   7  10
BRANCH   7  14
ATOM     14  C   UNL     1      31.758 -11.342 -22.932  0.00  0.00    +0.045 C 
BRANCH  14  15
ATOM     15  C   UNL     1      31.754 -10.678 -21.574  0.00  0.00    -0.021 C 
ATOM     16  C   UNL     1      31.356 -11.398 -20.448  0.00  0.00    -0.004 C 
ATOM     17  C   UNL     1      32.148  -9.347 -21.447  0.00  0.00    -0.004 C 
ATOM     18  C   UNL     1      31.353 -10.786 -19.194  0.00  0.00    -0.000 C 
ATOM     19  C   UNL     1      32.144  -8.734 -20.195  0.00  0.00    -0.000 C 
ATOM     20  C   UNL     1      31.746  -9.454 -19.067  0.00  0.00    -0.000 C 
ENDBRANCH  14  15
ENDBRANCH   7  14
ENDBRANCH   5   7
ENDBRANCH   1   4
BRANCH   1  23
ATOM     21  O   UNL     1      35.025 -16.590 -25.761  0.00  0.00    -0.273 OA
ATOM     22  N   UNL     1      34.544 -16.192 -23.526  0.00  0.00    -0.295 N 
ATOM     23  C   UNL     1      34.312 -16.096 -24.891  0.00  0.00    +0.241 C 
ATOM     24  H   UNL     1      33.911 -15.760 -22.907  0.00  0.00    +0.150 HD
BRANCH  22  25
ATOM     25  C   UNL     1      35.674 -16.903 -22.976  0.00  0.00    +0.176 C 
BRANCH  25  28
ATOM     26  O   UNL     1      35.295 -16.981 -20.600  0.00  0.00    -0.273 OA
ATOM     27  N   UNL     1      34.962 -18.912 -21.896  0.00  0.00    -0.283 N 
ATOM     28  C   UNL     1      35.292 -17.578 -21.671  0.00  0.00    +0.246 C 
ATOM     29  H   UNL     1      35.019 -19.223 -22.828  0.00  0.00    +0.155 HD
BRANCH  27  30
ATOM     30  C   UNL     1      34.555 -19.873 -20.940  0.00  0.00    +0.050 C 
ATOM     31  C   UNL     1      33.206 -19.997 -20.609  0.00  0.00    +0.016 C 
ATOM     32  C   UNL     1      35.502 -20.695 -20.329  0.00  0.00    +0.016 C 
ATOM     33  C   UNL     1      33.752 -21.766 -19.056  0.00  0.00    +0.143 C 
ATOM     34  C   UNL     1      32.804 -20.944 -19.666  0.00  0.00    +0.025 C 
ATOM     35  C   UNL     1      35.101 -21.641 -19.387  0.00  0.00    +0.025 C 
BRANCH  33  38
ATOM     36  O   UNL     1      32.138 -22.768 -17.747  0.00  0.00    -0.126 OA
ATOM     37  O   UNL     1      34.198 -23.519 -17.624  0.00  0.00    -0.126 OA
ATOM     38  N   UNL     1      33.343 -22.730 -18.096  0.00  0.00    +0.058 N 
ENDBRANCH  33  38
ENDBRANCH  27  30
ENDBRANCH  25  28
ENDBRANCH  22  25
ENDBRANCH   1  23
TORSDOF 11
ENDMDL
MODEL 2
REMARK VINA RESULT:     -11.1      2.836      9.604
REMARK  Name = 46937074
REMARK  11 active torsions:
REMARK  status: ('A' for Active; 'I' for Inactive)
REMARK    1  A    between atoms: C_1  and  N_4
REMARK    2  A    between atoms: C_1  and  C_23
REMARK    3  A    between atoms: C_5  and  C_7
REMARK    4  A    between atoms: C_7  and  C_10
REMARK    5  A    between atoms: C_7  and  C_14
REMARK    6  A    between atoms: N_9  and  O_12
REMARK    7  A    between atoms: C_14  and  C_15
REMARK    8  A    between atoms: N_22  and  C_25
REMARK    9  A    between atoms: C_25  and  C_28
REMARK   10  A    between atoms: N_27  and  C_30
REMARK   11  A    between atoms: C_33  and  N_38
REMARK                            x       y       z     vdW  Elec       q    Type
REMARK                         _______ _______ _______ _____ _____    ______ ____
ROOT
ATOM      1  C   UNL     1      34.674 -17.104 -24.858  0.00  0.00    +0.149 C 
ATOM      2  C   UNL     1      34.269 -18.380 -25.579  0.00  0.00    +0.031 C 
ENDROOT
BRANCH   1   4
ATOM      3  O   UNL     1      36.443 -18.083 -22.791  0.00  0.00    -0.275 OA
ATOM      4  N   UNL     1      34.399 -17.191 -23.442  0.00  0.00    -0.298 N 
ATOM      5  C   UNL     1      35.314 -17.678 -22.521  0.00  0.00    +0.231 C 
ATOM      6  H   UNL     1      33.520 -16.891 -23.116  0.00  0.00    +0.150 HD
BRANCH   5   7
ATOM      7  C   UNL     1      34.774 -17.652 -21.091  0.00  0.00    +0.159 C 
BRANCH   7  10
ATOM      8  O   UNL     1      35.085 -15.406 -20.228  0.00  0.00    -0.273 OA
ATOM      9  N   UNL     1      32.971 -16.061 -20.885  0.00  0.00    -0.197 N 
ATOM     10  C   UNL     1      34.319 -16.247 -20.694  0.00  0.00    +0.253 C 
ATOM     11  H   UNL     1      32.394 -16.764 -21.262  0.00  0.00    +0.182 HD
BRANCH   9  12
ATOM     12  O   UNL     1      32.470 -14.809 -20.508  0.00  0.00    -0.295 OA
ATOM     13  H   UNL     1      31.698 -14.929 -19.933  0.00  0.00    +0.241 HD
ENDBRANCH   9  12
ENDBRANCH   7  10
BRANCH   7  14
ATOM     14  C   UNL     1      33.627 -18.673 -20.975  0.00  0.00    +0.045 C 
BRANCH  14  15
ATOM     15  C   UNL     1      34.058 -19.975 -20.341  0.00  0.00    -0.021 C 
ATOM     16  C   UNL     1      35.406 -20.335 -20.336  0.00  0.00    -0.004 C 
ATOM     17  C   UNL     1      33.110 -20.817 -19.760  0.00  0.00    -0.004 C 
ATOM     18  C   UNL     1      35.805 -21.537 -19.751  0.00  0.00    -0.000 C 
ATOM     19  C   UNL     1      33.508 -22.018 -19.176  0.00  0.00    -0.000 C 
ATOM     20  C   UNL     1      34.856 -22.379 -19.171  0.00  0.00    -0.000 C 
ENDBRANCH  14  15
ENDBRANCH   7  14
ENDBRANCH   5   7
ENDBRANCH   1   4
BRANCH   1  23
ATOM     21  O   UNL     1      33.431 -15.877 -26.538  0.00  0.00    -0.273 OA
ATOM     22  N   UNL     1      33.889 -14.846 -24.511  0.00  0.00    -0.295 N 
ATOM     23  C   UNL     1      33.918 -15.902 -25.411  0.00  0.00    +0.241 C 
ATOM     24  H   UNL     1      34.309 -14.965 -23.628  0.00  0.00    +0.150 HD
BRANCH  22  25
ATOM     25  C   UNL     1      33.268 -13.579 -24.817  0.00  0.00    +0.176 C 
BRANCH  25  28
ATOM     26  O   UNL     1      33.438 -13.137 -22.457  0.00  0.00    -0.273 OA
ATOM     27  N   UNL     1      32.928 -11.384 -23.936  0.00  0.00    -0.283 N 
ATOM     28  C   UNL     1      33.229 -12.696 -23.582  0.00  0.00    +0.246 C 
ATOM     29  H   UNL     1      32.788 -11.213 -24.894  0.00  0.00    +0.155 HD
BRANCH  27  30
ATOM     30  C   UNL     1      32.800 -10.267 -23.076  0.00  0.00    +0.050 C 
ATOM     31  C   UNL     1      33.542  -9.112 -23.320  0.00  0.00    +0.016 C 
ATOM     32  C   UNL     1      31.932 -10.321 -21.985  0.00  0.00    +0.016 C 
ATOM     33  C   UNL     1      32.549  -8.065 -21.381  0.00  0.00    +0.143 C 
ATOM     34  C   UNL     1      33.417  -8.011 -22.472  0.00  0.00    +0.025 C 
ATOM     35  C   UNL     1      31.806  -9.221 -21.138  0.00  0.00    +0.025 C 
BRANCH  33  38
ATOM     36  O   UNL     1      31.806  -5.930 -20.926  0.00  0.00    -0.126 OA
ATOM     37  O   UNL     1      32.925  -7.000 -19.371  0.00  0.00    -0.126 OA
ATOM     38  N   UNL     1      32.421  -6.944 -20.519  0.00  0.00    +0.058 N 
ENDBRANCH  33  38
ENDBRANCH  27  30
ENDBRANCH  25  28
ENDBRANCH  22  25
ENDBRANCH   1  23
TORSDOF 11
ENDMDL
MODEL 3
REMARK VINA RESULT:     -10.9      1.736      2.270
REMARK  Name = 46937074
REMARK  11 active torsions:
REMARK  status: ('A' for Active; 'I' for Inactive)
REMARK    1  A    between atoms: C_1  and  N_4
REMARK    2  A    between atoms: C_1  and  C_23
REMARK    3  A    between atoms: C_5  and  C_7
REMARK    4  A    between atoms: C_7  and  C_10
REMARK    5  A    between atoms: C_7  and  C_14
REMARK    6  A    between atoms: N_9  and  O_12
REMARK    7  A    between atoms: C_14  and  C_15
REMARK    8  A    between atoms: N_22  and  C_25
REMARK    9  A    between atoms: C_25  and  C_28
REMARK   10  A    between atoms: N_27  and  C_30
REMARK   11  A    between atoms: C_33  and  N_38
REMARK                            x       y       z     vdW  Elec       q    Type
REMARK                         _______ _______ _______ _____ _____    ______ ____
ROOT
ATOM      1  C   UNL     1      33.959 -14.385 -22.453  0.00  0.00    +0.149 C 
ATOM      2  C   UNL     1      32.678 -14.543 -21.649  0.00  0.00    +0.031 C 
ENDROOT
BRANCH   1   4
ATOM      3  O   UNL     1      31.910 -12.349 -22.595  0.00  0.00    -0.275 OA
ATOM      4  N   UNL     1      34.098 -13.039 -22.959  0.00  0.00    -0.298 N 
ATOM      5  C   UNL     1      33.054 -12.127 -22.987  0.00  0.00    +0.231 C 
ATOM      6  H   UNL     1      34.978 -12.756 -23.299  0.00  0.00    +0.150 HD
BRANCH   5   7
ATOM      7  C   UNL     1      33.474 -10.775 -23.562  0.00  0.00    +0.159 C 
BRANCH   7  10
ATOM      8  O   UNL     1      33.719 -11.705 -25.789  0.00  0.00    -0.273 OA
ATOM      9  N   UNL     1      35.263 -10.152 -25.057  0.00  0.00    -0.197 N 
ATOM     10  C   UNL     1      34.140 -10.934 -24.929  0.00  0.00    +0.253 C 
ATOM     11  H   UNL     1      35.564  -9.548 -24.340  0.00  0.00    +0.182 HD
BRANCH   9  12
ATOM     12  O   UNL     1      35.952 -10.271 -26.270  0.00  0.00    -0.295 OA
ATOM     13  H   UNL     1      35.731 -11.119 -26.687  0.00  0.00    +0.241 HD
ENDBRANCH   9  12
ENDBRANCH   7  10
BRANCH   7  14
ATOM     14  C   UNL     1      32.236  -9.861 -23.638  0.00  0.00    +0.045 C 
BRANCH  14  15
ATOM     15  C   UNL     1      32.248  -8.764 -22.600  0.00  0.00    -0.021 C 
ATOM     16  C   UNL     1      32.255  -7.427 -22.999  0.00  0.00    -0.004 C 
ATOM     17  C   UNL     1      32.251  -9.086 -21.243  0.00  0.00    -0.004 C 
ATOM     18  C   UNL     1      32.266  -6.413 -22.040  0.00  0.00    -0.000 C 
ATOM     19  C   UNL     1      32.263  -8.073 -20.285  0.00  0.00    -0.000 C 
ATOM     20  C   UNL     1      32.271  -6.736 -20.684  0.00  0.00    -0.000 C 
ENDBRANCH  14  15
ENDBRANCH   7  14
ENDBRANCH   5   7
ENDBRANCH   1   4
BRANCH   1  23
ATOM     21  O   UNL     1      33.348 -15.131 -24.677  0.00  0.00    -0.273 OA
ATOM     22  N   UNL     1      34.745 -16.467 -23.393  0.00  0.00    -0.295 N 
ATOM     23  C   UNL     1      33.977 -15.338 -23.641  0.00  0.00    +0.241 C 
ATOM     24  H   UNL     1      35.212 -16.540 -22.529  0.00  0.00    +0.150 HD
BRANCH  22  25
ATOM     25  C   UNL     1      34.885 -17.540 -24.349  0.00  0.00    +0.176 C 
BRANCH  25  28
ATOM     26  O   UNL     1      34.911 -19.946 -24.258  0.00  0.00    -0.273 OA
ATOM     27  N   UNL     1      34.712 -18.708 -22.271  0.00  0.00    -0.283 N 
ATOM     28  C   UNL     1      34.841 -18.885 -23.646  0.00  0.00    +0.246 C 
ATOM     29  H   UNL     1      34.668 -17.777 -21.955  0.00  0.00    +0.155 HD
BRANCH  27  30
ATOM     30  C   UNL     1      34.636 -19.711 -21.276  0.00  0.00    +0.050 C 
ATOM     31  C   UNL     1      33.394 -20.120 -20.792  0.00  0.00    +0.016 C 
ATOM     32  C   UNL     1      35.804 -20.290 -20.778  0.00  0.00    +0.016 C 
ATOM     33  C   UNL     1      34.487 -21.688 -19.313  0.00  0.00    +0.143 C 
ATOM     34  C   UNL     1      33.319 -21.109 -19.811  0.00  0.00    +0.025 C 
ATOM     35  C   UNL     1      35.730 -21.279 -19.798  0.00  0.00    +0.025 C 
BRANCH  33  38
ATOM     36  O   UNL     1      33.530 -23.583 -18.411  0.00  0.00    -0.126 OA
ATOM     37  O   UNL     1      35.228 -22.669 -17.362  0.00  0.00    -0.126 OA
ATOM     38  N   UNL     1      34.411 -22.694 -18.314  0.00  0.00    +0.058 N 
ENDBRANCH  33  38
ENDBRANCH  27  30
ENDBRANCH  25  28
ENDBRANCH  22  25
ENDBRANCH   1  23
TORSDOF 11
ENDMDL
MODEL 4
REMARK VINA RESULT:     -10.9      4.041     12.160
REMARK  Name = 46937074
REMARK  11 active torsions:
REMARK  status: ('A' for Active; 'I' for Inactive)
REMARK    1  A    between atoms: C_1  and  N_4
REMARK    2  A    between atoms: C_1  and  C_23
REMARK    3  A    between atoms: C_5  and  C_7
REMARK    4  A    between atoms: C_7  and  C_10
REMARK    5  A    between atoms: C_7  and  C_14
REMARK    6  A    between atoms: N_9  and  O_12
REMARK    7  A    between atoms: C_14  and  C_15
REMARK    8  A    between atoms: N_22  and  C_25
REMARK    9  A    between atoms: C_25  and  C_28
REMARK   10  A    between atoms: N_27  and  C_30
REMARK   11  A    between atoms: C_33  and  N_38
REMARK                            x       y       z     vdW  Elec       q    Type
REMARK                         _______ _______ _______ _____ _____    ______ ____
ROOT
ATOM      1  C   UNL     1      36.265 -21.850 -16.451  0.00  0.00    +0.149 C 
ATOM      2  C   UNL     1      37.666 -22.425 -16.306  0.00  0.00    +0.031 C 
ENDROOT
BRANCH   1   4
ATOM      3  O   UNL     1      36.202 -24.639 -15.688  0.00  0.00    -0.275 OA
ATOM      4  N   UNL     1      35.339 -22.486 -15.542  0.00  0.00    -0.298 N 
ATOM      5  C   UNL     1      35.386 -23.838 -15.236  0.00  0.00    +0.231 C 
ATOM      6  H   UNL     1      34.642 -21.933 -15.121  0.00  0.00    +0.150 HD
BRANCH   5   7
ATOM      7  C   UNL     1      34.300 -24.249 -14.242  0.00  0.00    +0.159 C 
BRANCH   7  10
ATOM      8  O   UNL     1      34.470 -23.848 -11.856  0.00  0.00    -0.273 OA
ATOM      9  N   UNL     1      35.909 -25.366 -12.832  0.00  0.00    -0.197 N 
ATOM     10  C   UNL     1      34.878 -24.458 -12.842  0.00  0.00    +0.253 C 
ATOM     11  H   UNL     1      36.203 -25.833 -13.648  0.00  0.00    +0.182 HD
BRANCH   9  12
ATOM     12  O   UNL     1      36.517 -25.585 -11.589  0.00  0.00    -0.295 OA
ATOM     13  H   UNL     1      37.464 -25.751 -11.717  0.00  0.00    +0.241 HD
ENDBRANCH   9  12
ENDBRANCH   7  10
BRANCH   7  14
ATOM     14  C   UNL     1      33.193 -23.178 -14.244  0.00  0.00    +0.045 C 
BRANCH  14  15
ATOM     15  C   UNL     1      31.863 -23.705 -14.730  0.00  0.00    -0.021 C 
ATOM     16  C   UNL     1      31.159 -23.016 -15.717  0.00  0.00    -0.004 C 
ATOM     17  C   UNL     1      31.340 -24.881 -14.192  0.00  0.00    -0.004 C 
ATOM     18  C   UNL     1      29.931 -23.503 -16.167  0.00  0.00    -0.000 C 
ATOM     19  C   UNL     1      30.113 -25.367 -14.640  0.00  0.00    -0.000 C 
ATOM     20  C   UNL     1      29.408 -24.678 -15.628  0.00  0.00    -0.000 C 
ENDBRANCH  14  15
ENDBRANCH   7  14
ENDBRANCH   5   7
ENDBRANCH   1   4
BRANCH   1  23
ATOM     21  O   UNL     1      34.819 -22.807 -18.144  0.00  0.00    -0.273 OA
ATOM     22  N   UNL     1      36.453 -21.293 -18.794  0.00  0.00    -0.295 N 
ATOM     23  C   UNL     1      35.741 -22.043 -17.868  0.00  0.00    +0.241 C 
ATOM     24  H   UNL     1      37.177 -20.708 -18.472  0.00  0.00    +0.150 HD
BRANCH  22  25
ATOM     25  C   UNL     1      36.176 -21.337 -20.211  0.00  0.00    +0.176 C 
BRANCH  25  28
ATOM     26  O   UNL     1      34.067 -20.176 -20.261  0.00  0.00    -0.273 OA
ATOM     27  N   UNL     1      35.924 -19.265 -21.374  0.00  0.00    -0.283 N 
ATOM     28  C   UNL     1      35.245 -20.203 -20.603  0.00  0.00    +0.246 C 
ATOM     29  H   UNL     1      36.873 -19.453 -21.552  0.00  0.00    +0.155 HD
BRANCH  27  30
ATOM     30  C   UNL     1      35.408 -18.070 -21.931  0.00  0.00    +0.050 C 
ATOM     31  C   UNL     1      34.965 -17.046 -21.095  0.00  0.00    +0.016 C 
ATOM     32  C   UNL     1      35.344 -17.917 -23.316  0.00  0.00    +0.016 C 
ATOM     33  C   UNL     1      34.392 -15.716 -23.029  0.00  0.00    +0.143 C 
ATOM     34  C   UNL     1      34.457 -15.869 -21.643  0.00  0.00    +0.025 C 
ATOM     35  C   UNL     1      34.836 -16.740 -23.866  0.00  0.00    +0.025 C 
BRANCH  33  38
ATOM     36  O   UNL     1      34.182 -13.419 -23.063  0.00  0.00    -0.126 OA
ATOM     37  O   UNL     1      33.125 -14.588 -24.592  0.00  0.00    -0.126 OA
ATOM     38  N   UNL     1      33.875 -14.517 -23.587  0.00  0.00    +0.058 N 
ENDBRANCH  33  38
ENDBRANCH  27  30
ENDBRANCH  25  28
ENDBRANCH  22  25
ENDBRANCH   1  23
TORSDOF 11
ENDMDL
MODEL 5
REMARK VINA RESULT:     -10.8      3.887     12.109
REMARK  Name = 46937074
REMARK  11 active torsions:
REMARK  status: ('A' for Active; 'I' for Inactive)
REMARK    1  A    between atoms: C_1  and  N_4
REMARK    2  A    between atoms: C_1  and  C_23
REMARK    3  A    between atoms: C_5  and  C_7
REMARK    4  A    between atoms: C_7  and  C_10
REMARK    5  A    between atoms: C_7  and  C_14
REMARK    6  A    between atoms: N_9  and  O_12
REMARK    7  A    between atoms: C_14  and  C_15
REMARK    8  A    between atoms: N_22  and  C_25
REMARK    9  A    between atoms: C_25  and  C_28
REMARK   10  A    between atoms: N_27  and  C_30
REMARK   11  A    between atoms: C_33  and  N_38
REMARK                            x       y       z     vdW  Elec       q    Type
REMARK                         _______ _______ _______ _____ _____    ______ ____
ROOT
ATOM      1  C   UNL     1      36.060 -21.724 -17.241  0.00  0.00    +0.149 C 
ATOM      2  C   UNL     1      37.555 -21.726 -16.964  0.00  0.00    +0.031 C 
ENDROOT
BRANCH   1   4
ATOM      3  O   UNL     1      36.113 -22.657 -14.504  0.00  0.00    -0.275 OA
ATOM      4  N   UNL     1      35.426 -22.909 -16.709  0.00  0.00    -0.298 N 
ATOM      5  C   UNL     1      35.507 -23.278 -15.374  0.00  0.00    +0.231 C 
ATOM      6  H   UNL     1      34.912 -23.481 -17.323  0.00  0.00    +0.150 HD
BRANCH   5   7
ATOM      7  C   UNL     1      34.740 -24.566 -15.077  0.00  0.00    +0.159 C 
BRANCH   7  10
ATOM      8  O   UNL     1      36.070 -26.547 -15.516  0.00  0.00    -0.273 OA
ATOM      9  N   UNL     1      36.025 -25.691 -13.372  0.00  0.00    -0.197 N 
ATOM     10  C   UNL     1      35.689 -25.706 -14.704  0.00  0.00    +0.253 C 
ATOM     11  H   UNL     1      35.696 -24.996 -12.757  0.00  0.00    +0.182 HD
BRANCH   9  12
ATOM     12  O   UNL     1      36.864 -26.728 -12.945  0.00  0.00    -0.295 OA
ATOM     13  H   UNL     1      36.822 -27.461 -13.579  0.00  0.00    +0.241 HD
ENDBRANCH   9  12
ENDBRANCH   7  10
BRANCH   7  14
ATOM     14  C   UNL     1      33.720 -24.289 -13.956  0.00  0.00    +0.045 C 
BRANCH  14  15
ATOM     15  C   UNL     1      32.299 -24.200 -14.460  0.00  0.00    -0.021 C 
ATOM     16  C   UNL     1      31.958 -23.244 -15.417  0.00  0.00    -0.004 C 
ATOM     17  C   UNL     1      31.329 -25.074 -13.972  0.00  0.00    -0.004 C 
ATOM     18  C   UNL     1      30.645 -23.161 -15.884  0.00  0.00    -0.000 C 
ATOM     19  C   UNL     1      30.017 -24.992 -14.437  0.00  0.00    -0.000 C 
ATOM     20  C   UNL     1      29.675 -24.035 -15.394  0.00  0.00    -0.000 C 
ENDBRANCH  14  15
ENDBRANCH   7  14
ENDBRANCH   5   7
ENDBRANCH   1   4
BRANCH   1  23
ATOM     21  O   UNL     1      35.182 -22.562 -19.338  0.00  0.00    -0.273 OA
ATOM     22  N   UNL     1      36.321 -20.540 -19.330  0.00  0.00    -0.295 N 
ATOM     23  C   UNL     1      35.783 -21.674 -18.738  0.00  0.00    +0.241 C 
ATOM     24  H   UNL     1      36.785 -19.885 -18.760  0.00  0.00    +0.150 HD
BRANCH  22  25
ATOM     25  C   UNL     1      36.229 -20.284 -20.748  0.00  0.00    +0.176 C 
BRANCH  25  28
ATOM     26  O   UNL     1      33.967 -19.481 -20.925  0.00  0.00    -0.273 OA
ATOM     27  N   UNL     1      35.756 -18.036 -21.406  0.00  0.00    -0.283 N 
ATOM     28  C   UNL     1      35.165 -19.239 -21.029  0.00  0.00    +0.246 C 
ATOM     29  H   UNL     1      36.739 -18.026 -21.437  0.00  0.00    +0.155 HD
BRANCH  27  30
ATOM     30  C   UNL     1      35.107 -16.826 -21.748  0.00  0.00    +0.050 C 
ATOM     31  C   UNL     1      34.614 -15.992 -20.745  0.00  0.00    +0.016 C 
ATOM     32  C   UNL     1      34.961 -16.467 -23.089  0.00  0.00    +0.016 C 
ATOM     33  C   UNL     1      33.828 -14.441 -22.424  0.00  0.00    +0.143 C 
ATOM     34  C   UNL     1      33.974 -14.799 -21.083  0.00  0.00    +0.025 C 
ATOM     35  C   UNL     1      34.321 -15.275 -23.427  0.00  0.00    +0.025 C 
BRANCH  33  38
ATOM     36  O   UNL     1      32.065 -12.964 -22.247  0.00  0.00    -0.126 OA
ATOM     37  O   UNL     1      33.731 -12.447 -23.580  0.00  0.00    -0.126 OA
ATOM     38  N   UNL     1      33.176 -13.226 -22.767  0.00  0.00    +0.058 N 
ENDBRANCH  33  38
ENDBRANCH  27  30
ENDBRANCH  25  28
ENDBRANCH  22  25
ENDBRANCH   1  23
TORSDOF 11
ENDMDL
MODEL 6
REMARK VINA RESULT:     -10.7      3.572     11.238
REMARK  Name = 46937074
REMARK  11 active torsions:
REMARK  status: ('A' for Active; 'I' for Inactive)
REMARK    1  A    between atoms: C_1  and  N_4
REMARK    2  A    between atoms: C_1  and  C_23
REMARK    3  A    between atoms: C_5  and  C_7
REMARK    4  A    between atoms: C_7  and  C_10
REMARK    5  A    between atoms: C_7  and  C_14
REMARK    6  A    between atoms: N_9  and  O_12
REMARK    7  A    between atoms: C_14  and  C_15
REMARK    8  A    between atoms: N_22  and  C_25
REMARK    9  A    between atoms: C_25  and  C_28
REMARK   10  A    between atoms: N_27  and  C_30
REMARK   11  A    between atoms: C_33  and  N_38
REMARK                            x       y       z     vdW  Elec       q    Type
REMARK                         _______ _______ _______ _____ _____    ______ ____
ROOT
ATOM      1  C   UNL     1      34.257 -21.941 -19.255  0.00  0.00    +0.149 C 
ATOM      2  C   UNL     1      33.224 -20.914 -19.691  0.00  0.00    +0.031 C 
ENDROOT
BRANCH   1   4
ATOM      3  O   UNL     1      33.495 -24.565 -18.306  0.00  0.00    -0.275 OA
ATOM      4  N   UNL     1      34.047 -22.348 -17.884  0.00  0.00    -0.298 N 
ATOM      5  C   UNL     1      33.681 -23.636 -17.523  0.00  0.00    +0.231 C 
ATOM      6  H   UNL     1      34.169 -21.678 -17.173  0.00  0.00    +0.150 HD
BRANCH   5   7
ATOM      7  C   UNL     1      33.534 -23.799 -16.010  0.00  0.00    +0.159 C 
BRANCH   7  10
ATOM      8  O   UNL     1      35.951 -23.664 -15.865  0.00  0.00    -0.273 OA
ATOM      9  N   UNL     1      34.702 -23.298 -13.959  0.00  0.00    -0.197 N 
ATOM     10  C   UNL     1      34.866 -23.573 -15.295  0.00  0.00    +0.253 C 
ATOM     11  H   UNL     1      33.811 -23.234 -13.543  0.00  0.00    +0.182 HD
BRANCH   9  12
ATOM     12  O   UNL     1      35.881 -23.115 -13.225  0.00  0.00    -0.295 OA
ATOM     13  H   UNL     1      36.647 -23.284 -13.796  0.00  0.00    +0.241 HD
ENDBRANCH   9  12
ENDBRANCH   7  10
BRANCH   7  14
ATOM     14  C   UNL     1      32.449 -22.826 -15.508  0.00  0.00    +0.045 C 
BRANCH  14  15
ATOM     15  C   UNL     1      31.058 -23.412 -15.570  0.00  0.00    -0.021 C 
ATOM     16  C   UNL     1      30.098 -22.841 -16.406  0.00  0.00    -0.004 C 
ATOM     17  C   UNL     1      30.734 -24.525 -14.794  0.00  0.00    -0.004 C 
ATOM     18  C   UNL     1      28.813 -23.382 -16.464  0.00  0.00    -0.000 C 
ATOM     19  C   UNL     1      29.450 -25.065 -14.851  0.00  0.00    -0.000 C 
ATOM     20  C   UNL     1      28.489 -24.494 -15.687  0.00  0.00    -0.000 C 
ENDBRANCH  14  15
ENDBRANCH   7  14
ENDBRANCH   5   7
ENDBRANCH   1   4
BRANCH   1  23
ATOM     21  O   UNL     1      36.625 -21.837 -18.748  0.00  0.00    -0.273 OA
ATOM     22  N   UNL     1      35.723 -20.274 -20.208  0.00  0.00    -0.295 N 
ATOM     23  C   UNL     1      35.668 -21.377 -19.367  0.00  0.00    +0.241 C 
ATOM     24  H   UNL     1      34.898 -19.983 -20.660  0.00  0.00    +0.150 HD
BRANCH  22  25
ATOM     25  C   UNL     1      36.941 -19.536 -20.445  0.00  0.00    +0.176 C 
BRANCH  25  28
ATOM     26  O   UNL     1      37.735 -18.439 -22.436  0.00  0.00    -0.273 OA
ATOM     27  N   UNL     1      35.494 -18.178 -21.777  0.00  0.00    -0.283 N 
ATOM     28  C   UNL     1      36.797 -18.659 -21.676  0.00  0.00    +0.246 C 
ATOM     29  H   UNL     1      34.871 -18.459 -21.069  0.00  0.00    +0.155 HD
BRANCH  27  30
ATOM     30  C   UNL     1      34.963 -17.332 -22.779  0.00  0.00    +0.050 C 
ATOM     31  C   UNL     1      34.799 -17.810 -24.079  0.00  0.00    +0.016 C 
ATOM     32  C   UNL     1      34.602 -16.021 -22.467  0.00  0.00    +0.016 C 
ATOM     33  C   UNL     1      33.915 -15.665 -24.755  0.00  0.00    +0.143 C 
ATOM     34  C   UNL     1      34.275 -16.976 -25.067  0.00  0.00    +0.025 C 
ATOM     35  C   UNL     1      34.078 -15.187 -23.454  0.00  0.00    +0.025 C 
BRANCH  33  38
ATOM     36  O   UNL     1      32.803 -13.756 -25.420  0.00  0.00    -0.126 OA
ATOM     37  O   UNL     1      33.504 -15.149 -26.965  0.00  0.00    -0.126 OA
ATOM     38  N   UNL     1      33.381 -14.816 -25.761  0.00  0.00    +0.058 N 
ENDBRANCH  33  38
ENDBRANCH  27  30
ENDBRANCH  25  28
ENDBRANCH  22  25
ENDBRANCH   1  23
TORSDOF 11
ENDMDL
MODEL 7
REMARK VINA RESULT:     -10.7      3.229     11.211
REMARK  Name = 46937074
REMARK  11 active torsions:
REMARK  status: ('A' for Active; 'I' for Inactive)
REMARK    1  A    between atoms: C_1  and  N_4
REMARK    2  A    between atoms: C_1  and  C_23
REMARK    3  A    between atoms: C_5  and  C_7
REMARK    4  A    between atoms: C_7  and  C_10
REMARK    5  A    between atoms: C_7  and  C_14
REMARK    6  A    between atoms: N_9  and  O_12
REMARK    7  A    between atoms: C_14  and  C_15
REMARK    8  A    between atoms: N_22  and  C_25
REMARK    9  A    between atoms: C_25  and  C_28
REMARK   10  A    between atoms: N_27  and  C_30
REMARK   11  A    between atoms: C_33  and  N_38
REMARK                            x       y       z     vdW  Elec       q    Type
REMARK                         _______ _______ _______ _____ _____    ______ ____
ROOT
ATOM      1  C   UNL     1      34.028 -21.323 -19.881  0.00  0.00    +0.149 C 
ATOM      2  C   UNL     1      32.667 -20.653 -19.983  0.00  0.00    +0.031 C 
ENDROOT
BRANCH   1   4
ATOM      3  O   UNL     1      33.748 -24.030 -18.901  0.00  0.00    -0.275 OA
ATOM      4  N   UNL     1      34.281 -21.797 -18.539  0.00  0.00    -0.298 N 
ATOM      5  C   UNL     1      34.118 -23.121 -18.160  0.00  0.00    +0.231 C 
ATOM      6  H   UNL     1      34.583 -21.149 -17.863  0.00  0.00    +0.150 HD
BRANCH   5   7
ATOM      7  C   UNL     1      34.462 -23.354 -16.689  0.00  0.00    +0.159 C 
BRANCH   7  10
ATOM      8  O   UNL     1      36.645 -22.445 -17.227  0.00  0.00    -0.273 OA
ATOM      9  N   UNL     1      36.220 -23.103 -15.055  0.00  0.00    -0.197 N 
ATOM     10  C   UNL     1      35.888 -22.903 -16.373  0.00  0.00    +0.253 C 
ATOM     11  H   UNL     1      35.580 -23.473 -14.405  0.00  0.00    +0.182 HD
BRANCH   9  12
ATOM     12  O   UNL     1      37.527 -22.749 -14.696  0.00  0.00    -0.295 OA
ATOM     13  H   UNL     1      37.942 -23.484 -14.219  0.00  0.00    +0.241 HD
ENDBRANCH   9  12
ENDBRANCH   7  10
BRANCH   7  14
ATOM     14  C   UNL     1      33.429 -22.617 -15.815  0.00  0.00    +0.045 C 
BRANCH  14  15
ATOM     15  C   UNL     1      32.317 -23.518 -15.331  0.00  0.00    -0.021 C 
ATOM     16  C   UNL     1      31.107 -23.566 -16.024  0.00  0.00    -0.004 C 
ATOM     17  C   UNL     1      32.500 -24.303 -14.193  0.00  0.00    -0.004 C 
ATOM     18  C   UNL     1      30.080 -24.398 -15.578  0.00  0.00    -0.000 C 
ATOM     19  C   UNL     1      31.473 -25.135 -13.747  0.00  0.00    -0.000 C 
ATOM     20  C   UNL     1      30.263 -25.182 -14.440  0.00  0.00    -0.000 C 
ENDBRANCH  14  15
ENDBRANCH   7  14
ENDBRANCH   5   7
ENDBRANCH   1   4
BRANCH   1  23
ATOM     21  O   UNL     1      36.233 -20.336 -19.690  0.00  0.00    -0.273 OA
ATOM     22  N   UNL     1      34.759 -19.484 -21.267  0.00  0.00    -0.295 N 
ATOM     23  C   UNL     1      35.142 -20.354 -20.255  0.00  0.00    +0.241 C 
ATOM     24  H   UNL     1      33.860 -19.581 -21.658  0.00  0.00    +0.150 HD
BRANCH  22  25
ATOM     25  C   UNL     1      35.625 -18.444 -21.769  0.00  0.00    +0.176 C 
BRANCH  25  28
ATOM     26  O   UNL     1      35.268 -16.624 -20.233  0.00  0.00    -0.273 OA
ATOM     27  N   UNL     1      34.441 -16.475 -22.427  0.00  0.00    -0.283 N 
ATOM     28  C   UNL     1      35.102 -17.078 -21.361  0.00  0.00    +0.246 C 
ATOM     29  H   UNL     1      34.404 -16.991 -23.264  0.00  0.00    +0.155 HD
BRANCH  27  30
ATOM     30  C   UNL     1      33.817 -15.204 -22.448  0.00  0.00    +0.050 C 
ATOM     31  C   UNL     1      34.203 -14.254 -23.393  0.00  0.00    +0.016 C 
ATOM     32  C   UNL     1      32.817 -14.903 -21.524  0.00  0.00    +0.016 C 
ATOM     33  C   UNL     1      32.588 -12.701 -22.489  0.00  0.00    +0.143 C 
ATOM     34  C   UNL     1      33.588 -13.002 -23.414  0.00  0.00    +0.025 C 
ATOM     35  C   UNL     1      32.202 -13.652 -21.544  0.00  0.00    +0.025 C 
BRANCH  33  38
ATOM     36  O   UNL     1      32.491 -10.499 -23.170  0.00  0.00    -0.126 OA
ATOM     37  O   UNL     1      30.895 -11.262 -21.870  0.00  0.00    -0.126 OA
ATOM     38  N   UNL     1      31.962 -11.426 -22.510  0.00  0.00    +0.058 N 
ENDBRANCH  33  38
ENDBRANCH  27  30
ENDBRANCH  25  28
ENDBRANCH  22  25
ENDBRANCH   1  23
TORSDOF 11
ENDMDL
MODEL 8
REMARK VINA RESULT:     -10.5      4.190     12.281
REMARK  Name = 46937074
REMARK  11 active torsions:
REMARK  status: ('A' for Active; 'I' for Inactive)
REMARK    1  A    between atoms: C_1  and  N_4
REMARK    2  A    between atoms: C_1  and  C_23
REMARK    3  A    between atoms: C_5  and  C_7
REMARK    4  A    between atoms: C_7  and  C_10
REMARK    5  A    between atoms: C_7  and  C_14
REMARK    6  A    between atoms: N_9  and  O_12
REMARK    7  A    between atoms: C_14  and  C_15
REMARK    8  A    between atoms: N_22  and  C_25
REMARK    9  A    between atoms: C_25  and  C_28
REMARK   10  A    between atoms: N_27  and  C_30
REMARK   11  A    between atoms: C_33  and  N_38
REMARK                            x       y       z     vdW  Elec       q    Type
REMARK                         _______ _______ _______ _____ _____    ______ ____
ROOT
ATOM      1  C   UNL     1      34.329 -22.622 -18.456  0.00  0.00    +0.149 C 
ATOM      2  C   UNL     1      33.020 -21.899 -18.734  0.00  0.00    +0.031 C 
ENDROOT
BRANCH   1   4
ATOM      3  O   UNL     1      32.342 -23.672 -16.635  0.00  0.00    -0.275 OA
ATOM      4  N   UNL     1      34.492 -22.891 -17.045  0.00  0.00    -0.298 N 
ATOM      5  C   UNL     1      33.476 -23.397 -16.248  0.00  0.00    +0.231 C 
ATOM      6  H   UNL     1      35.365 -22.706 -16.632  0.00  0.00    +0.150 HD
BRANCH   5   7
ATOM      7  C   UNL     1      33.916 -23.596 -14.798  0.00  0.00    +0.159 C 
BRANCH   7  10
ATOM      8  O   UNL     1      32.188 -22.923 -13.235  0.00  0.00    -0.273 OA
ATOM      9  N   UNL     1      32.335 -25.146 -13.839  0.00  0.00    -0.197 N 
ATOM     10  C   UNL     1      32.716 -23.827 -13.879  0.00  0.00    +0.253 C 
ATOM     11  H   UNL     1      32.788 -25.838 -14.374  0.00  0.00    +0.182 HD
BRANCH   9  12
ATOM     12  O   UNL     1      31.263 -25.445 -12.988  0.00  0.00    -0.295 OA
ATOM     13  H   UNL     1      31.505 -26.187 -12.412  0.00  0.00    +0.241 HD
ENDBRANCH   9  12
ENDBRANCH   7  10
BRANCH   7  14
ATOM     14  C   UNL     1      34.910 -24.772 -14.738  0.00  0.00    +0.045 C 
BRANCH  14  15
ATOM     15  C   UNL     1      36.005 -24.567 -13.717  0.00  0.00    -0.021 C 
ATOM     16  C   UNL     1      36.151 -23.328 -13.092  0.00  0.00    -0.004 C 
ATOM     17  C   UNL     1      36.868 -25.615 -13.398  0.00  0.00    -0.004 C 
ATOM     18  C   UNL     1      37.162 -23.138 -12.148  0.00  0.00    -0.000 C 
ATOM     19  C   UNL     1      37.878 -25.425 -12.456  0.00  0.00    -0.000 C 
ATOM     20  C   UNL     1      38.025 -24.186 -11.831  0.00  0.00    -0.000 C 
ENDBRANCH  14  15
ENDBRANCH   7  14
ENDBRANCH   5   7
ENDBRANCH   1   4
BRANCH   1  23
ATOM     21  O   UNL     1      36.630 -21.865 -18.399  0.00  0.00    -0.273 OA
ATOM     22  N   UNL     1      35.182 -20.924 -19.948  0.00  0.00    -0.295 N 
ATOM     23  C   UNL     1      35.519 -21.790 -18.917  0.00  0.00    +0.241 C 
ATOM     24  H   UNL     1      34.261 -20.940 -20.296  0.00  0.00    +0.150 HD
BRANCH  22  25
ATOM     25  C   UNL     1      36.126 -20.000 -20.529  0.00  0.00    +0.176 C 
BRANCH  25  28
ATOM     26  O   UNL     1      34.907 -19.374 -22.508  0.00  0.00    -0.273 OA
ATOM     27  N   UNL     1      35.444 -17.741 -20.907  0.00  0.00    -0.283 N 
ATOM     28  C   UNL     1      35.415 -19.023 -21.448  0.00  0.00    +0.246 C 
ATOM     29  H   UNL     1      35.902 -17.645 -20.041  0.00  0.00    +0.155 HD
BRANCH  27  30
ATOM     30  C   UNL     1      34.893 -16.559 -21.457  0.00  0.00    +0.050 C 
ATOM     31  C   UNL     1      35.104 -16.252 -22.801  0.00  0.00    +0.016 C 
ATOM     32  C   UNL     1      34.138 -15.702 -20.656  0.00  0.00    +0.016 C 
ATOM     33  C   UNL     1      33.806 -14.231 -22.542  0.00  0.00    +0.143 C 
ATOM     34  C   UNL     1      34.561 -15.088 -23.343  0.00  0.00    +0.025 C 
ATOM     35  C   UNL     1      33.594 -14.538 -21.197  0.00  0.00    +0.025 C 
BRANCH  33  38
ATOM     36  O   UNL     1      32.260 -12.519 -22.536  0.00  0.00    -0.126 OA
ATOM     37  O   UNL     1      33.774 -12.554 -24.126  0.00  0.00    -0.126 OA
ATOM     38  N   UNL     1      33.253 -13.045 -23.094  0.00  0.00    +0.058 N 
ENDBRANCH  33  38
ENDBRANCH  27  30
ENDBRANCH  25  28
ENDBRANCH  22  25
ENDBRANCH   1  23
TORSDOF 11
ENDMDL
MODEL 9
REMARK VINA RESULT:     -10.5      3.122     10.549
REMARK  Name = 46937074
REMARK  11 active torsions:
REMARK  status: ('A' for Active; 'I' for Inactive)
REMARK    1  A    between atoms: C_1  and  N_4
REMARK    2  A    between atoms: C_1  and  C_23
REMARK    3  A    between atoms: C_5  and  C_7
REMARK    4  A    between atoms: C_7  and  C_10
REMARK    5  A    between atoms: C_7  and  C_14
REMARK    6  A    between atoms: N_9  and  O_12
REMARK    7  A    between atoms: C_14  and  C_15
REMARK    8  A    between atoms: N_22  and  C_25
REMARK    9  A    between atoms: C_25  and  C_28
REMARK   10  A    between atoms: N_27  and  C_30
REMARK   11  A    between atoms: C_33  and  N_38
REMARK                            x       y       z     vdW  Elec       q    Type
REMARK                         _______ _______ _______ _____ _____    ______ ____
ROOT
ATOM      1  C   UNL     1      32.556 -14.441 -22.158  0.00  0.00    +0.149 C 
ATOM      2  C   UNL     1      33.205 -13.752 -20.969  0.00  0.00    +0.031 C 
ENDROOT
BRANCH   1   4
ATOM      3  O   UNL     1      35.292 -15.373 -22.245  0.00  0.00    -0.275 OA
ATOM      4  N   UNL     1      33.010 -15.807 -22.286  0.00  0.00    -0.298 N 
ATOM      5  C   UNL     1      34.350 -16.160 -22.319  0.00  0.00    +0.231 C 
ATOM      6  H   UNL     1      32.334 -16.520 -22.353  0.00  0.00    +0.150 HD
BRANCH   5   7
ATOM      7  C   UNL     1      34.554 -17.670 -22.451  0.00  0.00    +0.159 C 
BRANCH   7  10
ATOM      8  O   UNL     1      34.826 -19.249 -24.272  0.00  0.00    -0.273 OA
ATOM      9  N   UNL     1      34.939 -16.990 -24.734  0.00  0.00    -0.197 N 
ATOM     10  C   UNL     1      34.774 -18.076 -23.909  0.00  0.00    +0.253 C 
ATOM     11  H   UNL     1      34.890 -16.066 -24.399  0.00  0.00    +0.182 HD
BRANCH   9  12
ATOM     12  O   UNL     1      35.184 -17.282 -26.082  0.00  0.00    -0.295 OA
ATOM     13  H   UNL     1      34.724 -16.637 -26.642  0.00  0.00    +0.241 HD
ENDBRANCH   9  12
ENDBRANCH   7  10
BRANCH   7  14
ATOM     14  C   UNL     1      35.738 -18.091 -21.560  0.00  0.00    +0.045 C 
BRANCH  14  15
ATOM     15  C   UNL     1      35.471 -19.362 -20.788  0.00  0.00    -0.021 C 
ATOM     16  C   UNL     1      36.533 -20.073 -20.229  0.00  0.00    -0.004 C 
ATOM     17  C   UNL     1      34.165 -19.824 -20.634  0.00  0.00    -0.004 C 
ATOM     18  C   UNL     1      36.288 -21.247 -19.516  0.00  0.00    -0.000 C 
ATOM     19  C   UNL     1      33.919 -20.998 -19.922  0.00  0.00    -0.000 C 
ATOM     20  C   UNL     1      34.981 -21.710 -19.363  0.00  0.00    -0.000 C 
ENDBRANCH  14  15
ENDBRANCH   7  14
ENDBRANCH   5   7
ENDBRANCH   1   4
BRANCH   1  23
ATOM     21  O   UNL     1      32.471 -14.080 -24.553  0.00  0.00    -0.273 OA
ATOM     22  N   UNL     1      33.726 -12.629 -23.247  0.00  0.00    -0.295 N 
ATOM     23  C   UNL     1      32.884 -13.713 -23.455  0.00  0.00    +0.241 C 
ATOM     24  H   UNL     1      34.001 -12.415 -22.326  0.00  0.00    +0.150 HD
BRANCH  22  25
ATOM     25  C   UNL     1      34.215 -11.804 -24.325  0.00  0.00    +0.176 C 
BRANCH  25  28
ATOM     26  O   UNL     1      35.031  -9.565 -23.982  0.00  0.00    -0.273 OA
ATOM     27  N   UNL     1      32.753 -10.037 -23.654  0.00  0.00    -0.283 N 
ATOM     28  C   UNL     1      34.075 -10.334 -23.973  0.00  0.00    +0.246 C 
ATOM     29  H   UNL     1      32.116 -10.786 -23.699  0.00  0.00    +0.155 HD
BRANCH  27  30
ATOM     30  C   UNL     1      32.217  -8.783 -23.274  0.00  0.00    +0.050 C 
ATOM     31  C   UNL     1      32.451  -8.285 -21.993  0.00  0.00    +0.016 C 
ATOM     32  C   UNL     1      31.456  -8.045 -24.182  0.00  0.00    +0.016 C 
ATOM     33  C   UNL     1      31.162  -6.312 -22.526  0.00  0.00    +0.143 C 
ATOM     34  C   UNL     1      31.924  -7.049 -21.619  0.00  0.00    +0.025 C 
ATOM     35  C   UNL     1      30.929  -6.810 -23.808  0.00  0.00    +0.025 C 
BRANCH  33  38
ATOM     36  O   UNL     1      30.057  -4.947 -21.031  0.00  0.00    -0.126 OA
ATOM     37  O   UNL     1      30.735  -4.082 -22.931  0.00  0.00    -0.126 OA
ATOM     38  N   UNL     1      30.625  -5.053 -22.144  0.00  0.00    +0.058 N 
ENDBRANCH  33  38
ENDBRANCH  27  30
ENDBRANCH  25  28
ENDBRANCH  22  25
ENDBRANCH   1  23
TORSDOF 11
ENDMDL
