MODEL 1
REMARK VINA RESULT:      -8.2      0.000      0.000
REMARK  Name = 76313
REMARK  4 active torsions:
REMARK  status: ('A' for Active; 'I' for Inactive)
REMARK    1  A    between atoms: C_3  and  O_11
REMARK    2  A    between atoms: O_11  and  C_12
REMARK    3  A    between atoms: C_12  and  C_14
REMARK    4  A    between atoms: C_14  and  O_15
REMARK                            x       y       z     vdW  Elec       q    Type
REMARK                         _______ _______ _______ _____ _____    ______ ____
ROOT
ATOM      1  C   UNL     1      34.703 -17.121 -22.010  0.00  0.00    +0.034 C 
ATOM      2  C   UNL     1      34.634 -16.588 -23.320  0.00  0.00    +0.003 C 
ATOM      3  C   UNL     1      34.853 -18.507 -21.840  0.00  0.00    +0.139 C 
ATOM      4  C   UNL     1      34.717 -17.456 -24.420  0.00  0.00    +0.000 C 
ATOM      5  C   UNL     1      34.622 -16.253 -20.910  0.00  0.00    +0.003 C 
ATOM      6  C   UNL     1      34.486 -15.201 -23.490  0.00  0.00    +0.000 C 
ATOM      7  C   UNL     1      34.931 -19.355 -22.946  0.00  0.00    +0.037 C 
ATOM      8  C   UNL     1      34.864 -18.831 -24.233  0.00  0.00    +0.003 C 
ATOM      9  C   UNL     1      34.475 -14.877 -21.097  0.00  0.00    +0.000 C 
ATOM     10  C   UNL     1      34.407 -14.354 -22.385  0.00  0.00    +0.000 C 
ENDROOT
BRANCH   3  11
ATOM     11  O   UNL     1      34.923 -19.067 -20.597  0.00  0.00    -0.464 OA
BRANCH  11  12
ATOM     12  C   UNL     1      34.708 -20.474 -20.511  0.00  0.00    +0.314 C 
BRANCH  12  14
ATOM     13  O   UNL     1      32.370 -19.934 -20.133  0.00  0.00    -0.246 OA
ATOM     14  C   UNL     1      33.281 -20.748 -20.126  0.00  0.00    +0.359 C 
BRANCH  14  15
ATOM     15  O   UNL     1      33.135 -22.048 -19.763  0.00  0.00    -0.478 OA
ATOM     16  H   UNL     1      32.650 -22.266 -18.992  0.00  0.00    +0.295 HD
ENDBRANCH  14  15
ENDBRANCH  12  14
ENDBRANCH  11  12
ENDBRANCH   3  11
TORSDOF 4
ENDMDL
MODEL 2
REMARK VINA RESULT:      -8.1      0.973      1.500
REMARK  Name = 76313
REMARK  4 active torsions:
REMARK  status: ('A' for Active; 'I' for Inactive)
REMARK    1  A    between atoms: C_3  and  O_11
REMARK    2  A    between atoms: O_11  and  C_12
REMARK    3  A    between atoms: C_12  and  C_14
REMARK    4  A    between atoms: C_14  and  O_15
REMARK                            x       y       z     vdW  Elec       q    Type
REMARK                         _______ _______ _______ _____ _____    ______ ____
ROOT
ATOM      1  C   UNL     1      34.725 -17.117 -21.990  0.00  0.00    +0.034 C 
ATOM      2  C   UNL     1      34.617 -16.582 -23.296  0.00  0.00    +0.003 C 
ATOM      3  C   UNL     1      34.888 -18.503 -21.828  0.00  0.00    +0.139 C 
ATOM      4  C   UNL     1      34.674 -17.447 -24.401  0.00  0.00    +0.000 C 
ATOM      5  C   UNL     1      34.668 -16.252 -20.886  0.00  0.00    +0.003 C 
ATOM      6  C   UNL     1      34.455 -15.196 -23.459  0.00  0.00    +0.000 C 
ATOM      7  C   UNL     1      34.941 -19.348 -22.937  0.00  0.00    +0.037 C 
ATOM      8  C   UNL     1      34.835 -18.822 -24.220  0.00  0.00    +0.003 C 
ATOM      9  C   UNL     1      34.507 -14.876 -21.067  0.00  0.00    +0.000 C 
ATOM     10  C   UNL     1      34.401 -14.351 -22.350  0.00  0.00    +0.000 C 
ENDROOT
BRANCH   3  11
ATOM     11  O   UNL     1      34.995 -19.065 -20.588  0.00  0.00    -0.464 OA
BRANCH  11  12
ATOM     12  C   UNL     1      34.435 -20.365 -20.419  0.00  0.00    +0.314 C 
BRANCH  12  14
ATOM     13  O   UNL     1      35.229 -22.417 -19.389  0.00  0.00    -0.246 OA
ATOM     14  C   UNL     1      35.394 -21.237 -19.658  0.00  0.00    +0.359 C 
BRANCH  14  15
ATOM     15  O   UNL     1      36.493 -20.523 -19.302  0.00  0.00    -0.478 OA
ATOM     16  H   UNL     1      37.005 -20.094 -19.959  0.00  0.00    +0.295 HD
ENDBRANCH  14  15
ENDBRANCH  12  14
ENDBRANCH  11  12
ENDBRANCH   3  11
TORSDOF 4
ENDMDL
MODEL 3
REMARK VINA RESULT:      -8.1      2.532      5.384
REMARK  Name = 76313
REMARK  4 active torsions:
REMARK  status: ('A' for Active; 'I' for Inactive)
REMARK    1  A    between atoms: C_3  and  O_11
REMARK    2  A    between atoms: O_11  and  C_12
REMARK    3  A    between atoms: C_12  and  C_14
REMARK    4  A    between atoms: C_14  and  O_15
REMARK                            x       y       z     vdW  Elec       q    Type
REMARK                         _______ _______ _______ _____ _____    ______ ____
ROOT
ATOM      1  C   UNL     1      34.652 -19.723 -20.993  0.00  0.00    +0.034 C 
ATOM      2  C   UNL     1      35.459 -20.527 -20.153  0.00  0.00    +0.003 C 
ATOM      3  C   UNL     1      35.260 -18.753 -21.807  0.00  0.00    +0.139 C 
ATOM      4  C   UNL     1      36.851 -20.337 -20.151  0.00  0.00    +0.000 C 
ATOM      5  C   UNL     1      33.261 -19.913 -20.996  0.00  0.00    +0.003 C 
ATOM      6  C   UNL     1      34.851 -21.497 -19.340  0.00  0.00    +0.000 C 
ATOM      7  C   UNL     1      36.645 -18.577 -21.791  0.00  0.00    +0.037 C 
ATOM      8  C   UNL     1      37.438 -19.368 -20.966  0.00  0.00    +0.003 C 
ATOM      9  C   UNL     1      32.673 -20.883 -20.181  0.00  0.00    +0.000 C 
ATOM     10  C   UNL     1      33.467 -21.672 -19.355  0.00  0.00    +0.000 C 
ENDROOT
BRANCH   3  11
ATOM     11  O   UNL     1      34.523 -17.954 -22.632  0.00  0.00    -0.464 OA
BRANCH  11  12
ATOM     12  C   UNL     1      34.684 -18.152 -24.035  0.00  0.00    +0.314 C 
BRANCH  12  14
ATOM     13  O   UNL     1      34.533 -16.539 -25.845  0.00  0.00    -0.246 OA
ATOM     14  C   UNL     1      34.892 -16.828 -24.714  0.00  0.00    +0.359 C 
BRANCH  14  15
ATOM     15  O   UNL     1      35.546 -15.974 -23.885  0.00  0.00    -0.478 OA
ATOM     16  H   UNL     1      36.207 -15.404 -24.228  0.00  0.00    +0.295 HD
ENDBRANCH  14  15
ENDBRANCH  12  14
ENDBRANCH  11  12
ENDBRANCH   3  11
TORSDOF 4
ENDMDL
MODEL 4
REMARK VINA RESULT:      -8.0      2.881      4.641
REMARK  Name = 76313
REMARK  4 active torsions:
REMARK  status: ('A' for Active; 'I' for Inactive)
REMARK    1  A    between atoms: C_3  and  O_11
REMARK    2  A    between atoms: O_11  and  C_12
REMARK    3  A    between atoms: C_12  and  C_14
REMARK    4  A    between atoms: C_14  and  O_15
REMARK                            x       y       z     vdW  Elec       q    Type
REMARK                         _______ _______ _______ _____ _____    ______ ____
ROOT
ATOM      1  C   UNL     1      35.385 -20.237 -20.411  0.00  0.00    +0.034 C 
ATOM      2  C   UNL     1      34.257 -19.672 -21.053  0.00  0.00    +0.003 C 
ATOM      3  C   UNL     1      35.196 -21.256 -19.463  0.00  0.00    +0.139 C 
ATOM      4  C   UNL     1      32.974 -20.141 -20.727  0.00  0.00    +0.000 C 
ATOM      5  C   UNL     1      36.667 -19.769 -20.738  0.00  0.00    +0.003 C 
ATOM      6  C   UNL     1      34.446 -18.654 -22.002  0.00  0.00    +0.000 C 
ATOM      7  C   UNL     1      33.913 -21.709 -19.150  0.00  0.00    +0.037 C 
ATOM      8  C   UNL     1      32.805 -21.153 -19.781  0.00  0.00    +0.003 C 
ATOM      9  C   UNL     1      36.836 -18.756 -21.684  0.00  0.00    +0.000 C 
ATOM     10  C   UNL     1      35.727 -18.201 -22.314  0.00  0.00    +0.000 C 
ENDROOT
BRANCH   3  11
ATOM     11  O   UNL     1      36.253 -21.830 -18.817  0.00  0.00    -0.464 OA
BRANCH  11  12
ATOM     12  C   UNL     1      36.055 -22.194 -17.453  0.00  0.00    +0.314 C 
BRANCH  12  14
ATOM     13  O   UNL     1      37.801 -22.378 -15.773  0.00  0.00    -0.246 OA
ATOM     14  C   UNL     1      37.221 -21.726 -16.628  0.00  0.00    +0.359 C 
BRANCH  14  15
ATOM     15  O   UNL     1      37.554 -20.453 -16.967  0.00  0.00    -0.478 OA
ATOM     16  H   UNL     1      37.901 -19.873 -16.319  0.00  0.00    +0.295 HD
ENDBRANCH  14  15
ENDBRANCH  12  14
ENDBRANCH  11  12
ENDBRANCH   3  11
TORSDOF 4
ENDMDL
MODEL 5
REMARK VINA RESULT:      -7.9      3.882      6.450
REMARK  Name = 76313
REMARK  4 active torsions:
REMARK  status: ('A' for Active; 'I' for Inactive)
REMARK    1  A    between atoms: C_3  and  O_11
REMARK    2  A    between atoms: O_11  and  C_12
REMARK    3  A    between atoms: C_12  and  C_14
REMARK    4  A    between atoms: C_14  and  O_15
REMARK                            x       y       z     vdW  Elec       q    Type
REMARK                         _______ _______ _______ _____ _____    ______ ____
ROOT
ATOM      1  C   UNL     1      34.418 -16.297 -23.459  0.00  0.00    +0.034 C 
ATOM      2  C   UNL     1      34.706 -17.214 -22.420  0.00  0.00    +0.003 C 
ATOM      3  C   UNL     1      34.210 -14.944 -23.142  0.00  0.00    +0.139 C 
ATOM      4  C   UNL     1      34.777 -16.753 -21.096  0.00  0.00    +0.000 C 
ATOM      5  C   UNL     1      34.348 -16.758 -24.783  0.00  0.00    +0.003 C 
ATOM      6  C   UNL     1      34.914 -18.567 -22.737  0.00  0.00    +0.000 C 
ATOM      7  C   UNL     1      34.283 -14.503 -21.820  0.00  0.00    +0.037 C 
ATOM      8  C   UNL     1      34.566 -15.405 -20.800  0.00  0.00    +0.003 C 
ATOM      9  C   UNL     1      34.558 -18.106 -25.080  0.00  0.00    +0.000 C 
ATOM     10  C   UNL     1      34.840 -19.007 -24.058  0.00  0.00    +0.000 C 
ENDROOT
BRANCH   3  11
ATOM     11  O   UNL     1      33.929 -14.023 -24.110  0.00  0.00    -0.464 OA
BRANCH  11  12
ATOM     12  C   UNL     1      33.630 -12.699 -23.673  0.00  0.00    +0.314 C 
BRANCH  12  14
ATOM     13  O   UNL     1      33.756 -11.785 -25.920  0.00  0.00    -0.246 OA
ATOM     14  C   UNL     1      34.031 -11.711 -24.732  0.00  0.00    +0.359 C 
BRANCH  14  15
ATOM     15  O   UNL     1      34.754 -10.702 -24.182  0.00  0.00    -0.478 OA
ATOM     16  H   UNL     1      35.171 -10.825 -23.352  0.00  0.00    +0.295 HD
ENDBRANCH  14  15
ENDBRANCH  12  14
ENDBRANCH  11  12
ENDBRANCH   3  11
TORSDOF 4
ENDMDL
MODEL 6
REMARK VINA RESULT:      -7.9      3.722      5.432
REMARK  Name = 76313
REMARK  4 active torsions:
REMARK  status: ('A' for Active; 'I' for Inactive)
REMARK    1  A    between atoms: C_3  and  O_11
REMARK    2  A    between atoms: O_11  and  C_12
REMARK    3  A    between atoms: C_12  and  C_14
REMARK    4  A    between atoms: C_14  and  O_15
REMARK                            x       y       z     vdW  Elec       q    Type
REMARK                         _______ _______ _______ _____ _____    ______ ____
ROOT
ATOM      1  C   UNL     1      34.580 -16.453 -23.501  0.00  0.00    +0.034 C 
ATOM      2  C   UNL     1      34.662 -17.397 -22.450  0.00  0.00    +0.003 C 
ATOM      3  C   UNL     1      34.559 -16.906 -24.830  0.00  0.00    +0.139 C 
ATOM      4  C   UNL     1      34.721 -18.766 -22.758  0.00  0.00    +0.000 C 
ATOM      5  C   UNL     1      34.520 -15.084 -23.192  0.00  0.00    +0.003 C 
ATOM      6  C   UNL     1      34.682 -16.944 -21.120  0.00  0.00    +0.000 C 
ATOM      7  C   UNL     1      34.620 -18.270 -25.119  0.00  0.00    +0.037 C 
ATOM      8  C   UNL     1      34.700 -19.198 -24.085  0.00  0.00    +0.003 C 
ATOM      9  C   UNL     1      34.541 -14.652 -21.865  0.00  0.00    +0.000 C 
ATOM     10  C   UNL     1      34.622 -15.581 -20.832  0.00  0.00    +0.000 C 
ENDROOT
BRANCH   3  11
ATOM     11  O   UNL     1      34.482 -16.032 -25.877  0.00  0.00    -0.464 OA
BRANCH  11  12
ATOM     12  C   UNL     1      33.206 -15.453 -26.141  0.00  0.00    +0.314 C 
BRANCH  12  14
ATOM     13  O   UNL     1      33.714 -13.730 -27.776  0.00  0.00    -0.246 OA
ATOM     14  C   UNL     1      33.381 -14.048 -26.645  0.00  0.00    +0.359 C 
BRANCH  14  15
ATOM     15  O   UNL     1      33.112 -13.159 -25.655  0.00  0.00    -0.478 OA
ATOM     16  H   UNL     1      33.350 -12.258 -25.758  0.00  0.00    +0.295 HD
ENDBRANCH  14  15
ENDBRANCH  12  14
ENDBRANCH  11  12
ENDBRANCH   3  11
TORSDOF 4
ENDMDL
MODEL 7
REMARK VINA RESULT:      -7.8      2.111      5.204
REMARK  Name = 76313
REMARK  4 active torsions:
REMARK  status: ('A' for Active; 'I' for Inactive)
REMARK    1  A    between atoms: C_3  and  O_11
REMARK    2  A    between atoms: O_11  and  C_12
REMARK    3  A    between atoms: C_12  and  C_14
REMARK    4  A    between atoms: C_14  and  O_15
REMARK                            x       y       z     vdW  Elec       q    Type
REMARK                         _______ _______ _______ _____ _____    ______ ____
ROOT
ATOM      1  C   UNL     1      34.516 -19.872 -20.607  0.00  0.00    +0.034 C 
ATOM      2  C   UNL     1      35.419 -20.753 -19.965  0.00  0.00    +0.003 C 
ATOM      3  C   UNL     1      35.021 -18.806 -21.370  0.00  0.00    +0.139 C 
ATOM      4  C   UNL     1      36.801 -20.542 -20.104  0.00  0.00    +0.000 C 
ATOM      5  C   UNL     1      33.135 -20.084 -20.469  0.00  0.00    +0.003 C 
ATOM      6  C   UNL     1      34.914 -21.819 -19.203  0.00  0.00    +0.000 C 
ATOM      7  C   UNL     1      36.397 -18.610 -21.496  0.00  0.00    +0.037 C 
ATOM      8  C   UNL     1      37.285 -19.476 -20.866  0.00  0.00    +0.003 C 
ATOM      9  C   UNL     1      32.651 -21.149 -19.707  0.00  0.00    +0.000 C 
ATOM     10  C   UNL     1      33.539 -22.014 -19.077  0.00  0.00    +0.000 C 
ENDROOT
BRANCH   3  11
ATOM     11  O   UNL     1      34.188 -17.930 -22.006  0.00  0.00    -0.464 OA
BRANCH  11  12
ATOM     12  C   UNL     1      34.648 -16.588 -22.143  0.00  0.00    +0.314 C 
BRANCH  12  14
ATOM     13  O   UNL     1      34.898 -15.177 -20.181  0.00  0.00    -0.246 OA
ATOM     14  C   UNL     1      34.181 -15.769 -20.973  0.00  0.00    +0.359 C 
BRANCH  14  15
ATOM     15  O   UNL     1      32.824 -15.772 -20.912  0.00  0.00    -0.478 OA
ATOM     16  H   UNL     1      32.394 -15.831 -20.081  0.00  0.00    +0.295 HD
ENDBRANCH  14  15
ENDBRANCH  12  14
ENDBRANCH  11  12
ENDBRANCH   3  11
TORSDOF 4
ENDMDL
MODEL 8
REMARK VINA RESULT:      -7.8      3.475      5.860
REMARK  Name = 76313
REMARK  4 active torsions:
REMARK  status: ('A' for Active; 'I' for Inactive)
REMARK    1  A    between atoms: C_3  and  O_11
REMARK    2  A    between atoms: O_11  and  C_12
REMARK    3  A    between atoms: C_12  and  C_14
REMARK    4  A    between atoms: C_14  and  O_15
REMARK                            x       y       z     vdW  Elec       q    Type
REMARK                         _______ _______ _______ _____ _____    ______ ____
ROOT
ATOM      1  C   UNL     1      34.620 -16.609 -23.031  0.00  0.00    +0.034 C 
ATOM      2  C   UNL     1      34.695 -17.160 -21.729  0.00  0.00    +0.003 C 
ATOM      3  C   UNL     1      34.459 -15.221 -23.181  0.00  0.00    +0.139 C 
ATOM      4  C   UNL     1      34.605 -16.308 -20.616  0.00  0.00    +0.000 C 
ATOM      5  C   UNL     1      34.711 -17.460 -24.144  0.00  0.00    +0.003 C 
ATOM      6  C   UNL     1      34.857 -18.547 -21.579  0.00  0.00    +0.000 C 
ATOM      7  C   UNL     1      34.370 -14.390 -22.063  0.00  0.00    +0.037 C 
ATOM      8  C   UNL     1      34.444 -14.932 -20.784  0.00  0.00    +0.003 C 
ATOM      9  C   UNL     1      34.872 -18.837 -23.976  0.00  0.00    +0.000 C 
ATOM     10  C   UNL     1      34.945 -19.378 -22.696  0.00  0.00    +0.000 C 
ENDROOT
BRANCH   3  11
ATOM     11  O   UNL     1      34.381 -14.644 -24.416  0.00  0.00    -0.464 OA
BRANCH  11  12
ATOM     12  C   UNL     1      33.096 -14.193 -24.837  0.00  0.00    +0.314 C 
BRANCH  12  14
ATOM     13  O   UNL     1      32.954 -13.491 -27.158  0.00  0.00    -0.246 OA
ATOM     14  C   UNL     1      32.952 -14.381 -26.321  0.00  0.00    +0.359 C 
BRANCH  14  15
ATOM     15  O   UNL     1      32.819 -15.699 -26.615  0.00  0.00    -0.478 OA
ATOM     16  H   UNL     1      33.578 -16.246 -26.667  0.00  0.00    +0.295 HD
ENDBRANCH  14  15
ENDBRANCH  12  14
ENDBRANCH  11  12
ENDBRANCH   3  11
TORSDOF 4
ENDMDL
MODEL 9
REMARK VINA RESULT:      -7.8      2.968      5.148
REMARK  Name = 76313
REMARK  4 active torsions:
REMARK  status: ('A' for Active; 'I' for Inactive)
REMARK    1  A    between atoms: C_3  and  O_11
REMARK    2  A    between atoms: O_11  and  C_12
REMARK    3  A    between atoms: C_12  and  C_14
REMARK    4  A    between atoms: C_14  and  O_15
REMARK                            x       y       z     vdW  Elec       q    Type
REMARK                         _______ _______ _______ _____ _____    ______ ____
ROOT
ATOM      1  C   UNL     1      34.020 -20.986 -19.768  0.00  0.00    +0.034 C 
ATOM      2  C   UNL     1      35.316 -20.521 -20.094  0.00  0.00    +0.003 C 
ATOM      3  C   UNL     1      33.869 -21.938 -18.745  0.00  0.00    +0.139 C 
ATOM      4  C   UNL     1      36.423 -21.021 -19.390  0.00  0.00    +0.000 C 
ATOM      5  C   UNL     1      32.913 -20.486 -20.471  0.00  0.00    +0.003 C 
ATOM      6  C   UNL     1      35.467 -19.569 -21.115  0.00  0.00    +0.000 C 
ATOM      7  C   UNL     1      34.981 -22.425 -18.057  0.00  0.00    +0.037 C 
ATOM      8  C   UNL     1      36.255 -21.967 -18.377  0.00  0.00    +0.003 C 
ATOM      9  C   UNL     1      33.081 -19.539 -21.484  0.00  0.00    +0.000 C 
ATOM     10  C   UNL     1      34.356 -19.083 -21.804  0.00  0.00    +0.000 C 
ENDROOT
BRANCH   3  11
ATOM     11  O   UNL     1      32.639 -22.417 -18.396  0.00  0.00    -0.464 OA
BRANCH  11  12
ATOM     12  C   UNL     1      32.575 -23.248 -17.239  0.00  0.00    +0.314 C 
BRANCH  12  14
ATOM     13  O   UNL     1      31.361 -22.886 -15.167  0.00  0.00    -0.246 OA
ATOM     14  C   UNL     1      31.406 -22.842 -16.387  0.00  0.00    +0.359 C 
BRANCH  14  15
ATOM     15  O   UNL     1      30.384 -22.410 -17.169  0.00  0.00    -0.478 OA
ATOM     16  H   UNL     1      30.257 -21.492 -17.307  0.00  0.00    +0.295 HD
ENDBRANCH  14  15
ENDBRANCH  12  14
ENDBRANCH  11  12
ENDBRANCH   3  11
TORSDOF 4
ENDMDL
