MODEL 1
REMARK VINA RESULT:     -10.6      0.000      0.000
REMARK  Name = 9543437
REMARK  4 active torsions:
REMARK  status: ('A' for Active; 'I' for Inactive)
REMARK    1  A    between atoms: C_3  and  C_16
REMARK    2  A    between atoms: C_4  and  C_9
REMARK    3  A    between atoms: C_5  and  C_21
REMARK    4  A    between atoms: C_24  and  S_27
REMARK                            x       y       z     vdW  Elec       q    Type
REMARK                         _______ _______ _______ _____ _____    ______ ____
ROOT
ATOM      1  N   UNL     1      33.194 -15.629 -21.113  0.00  0.00    -0.315 N 
ATOM      2  N   UNL     1      34.077 -16.097 -23.097  0.00  0.00    -0.315 N 
ATOM      3  C   UNL     1      32.989 -14.521 -21.885  0.00  0.00    +0.059 C 
ATOM      4  C   UNL     1      33.542 -14.834 -23.105  0.00  0.00    +0.059 C 
ATOM      5  C   UNL     1      33.851 -16.548 -21.883  0.00  0.00    +0.168 C 
ATOM      6  H   UNL     1      32.920 -15.745 -20.175  0.00  0.00    +0.149 HD
ATOM      7  H   UNL     1      34.530 -16.563 -23.836  0.00  0.00    +0.149 HD
ENDROOT
BRANCH   4   9
ATOM      8  I   UNL     1      34.923  -9.936 -25.113  0.00  0.00    -0.043 I 
ATOM      9  C   UNL     1      33.572 -13.975 -24.251  0.00  0.00    +0.015 C 
ATOM     10  C   UNL     1      34.103 -12.687 -24.149  0.00  0.00    +0.007 C 
ATOM     11  C   UNL     1      33.069 -14.422 -25.474  0.00  0.00    +0.001 C 
ATOM     12  C   UNL     1      34.131 -11.851 -25.266  0.00  0.00    +0.030 C 
ATOM     13  C   UNL     1      33.097 -13.586 -26.591  0.00  0.00    +0.000 C 
ATOM     14  C   UNL     1      33.628 -12.302 -26.486  0.00  0.00    +0.006 C 
ENDBRANCH   4   9
BRANCH   3  16
ATOM     15  N   UNL     1      31.021 -11.056 -20.441  0.00  0.00    -0.242 NA
ATOM     16  C   UNL     1      32.317 -13.344 -21.394  0.00  0.00    +0.017 C 
ATOM     17  C   UNL     1      32.365 -13.026 -20.041  0.00  0.00    +0.022 C 
ATOM     18  C   UNL     1      31.622 -12.518 -22.271  0.00  0.00    +0.022 C 
ATOM     19  C   UNL     1      31.706 -11.883 -19.618  0.00  0.00    +0.099 C 
ATOM     20  C   UNL     1      30.997 -11.397 -21.749  0.00  0.00    +0.099 C 
ENDBRANCH   3  16
BRANCH   5  21
ATOM     21  C   UNL     1      34.228 -17.845 -21.374  0.00  0.00    +0.014 C 
ATOM     22  C   UNL     1      35.576 -18.187 -21.267  0.00  0.00    -0.000 C 
ATOM     23  C   UNL     1      33.244 -18.756 -20.992  0.00  0.00    -0.000 C 
ATOM     24  C   UNL     1      34.956 -20.353 -20.393  0.00  0.00    +0.056 C 
ATOM     25  C   UNL     1      35.940 -19.441 -20.776  0.00  0.00    +0.008 C 
ATOM     26  C   UNL     1      33.608 -20.010 -20.501  0.00  0.00    +0.008 C 
BRANCH  24  27
ATOM     27  S   UNL     1      35.423 -21.965 -19.762  0.00  0.00    +0.066 S 
ATOM     28  O   UNL     1      34.221 -22.514 -19.046  0.00  0.00    -0.251 OA
ATOM     29  C   UNL     1      36.584 -21.396 -18.491  0.00  0.00    +0.111 C 
ENDBRANCH  24  27
ENDBRANCH   5  21
TORSDOF 4
ENDMDL
MODEL 2
REMARK VINA RESULT:     -10.6      6.649     11.614
REMARK  Name = 9543437
REMARK  4 active torsions:
REMARK  status: ('A' for Active; 'I' for Inactive)
REMARK    1  A    between atoms: C_3  and  C_16
REMARK    2  A    between atoms: C_4  and  C_9
REMARK    3  A    between atoms: C_5  and  C_21
REMARK    4  A    between atoms: C_24  and  S_27
REMARK                            x       y       z     vdW  Elec       q    Type
REMARK                         _______ _______ _______ _____ _____    ______ ____
ROOT
ATOM      1  N   UNL     1      32.924 -22.550 -17.534  0.00  0.00    -0.315 N 
ATOM      2  N   UNL     1      35.138 -22.695 -17.430  0.00  0.00    -0.315 N 
ATOM      3  C   UNL     1      33.197 -23.330 -16.446  0.00  0.00    +0.059 C 
ATOM      4  C   UNL     1      34.570 -23.405 -16.403  0.00  0.00    +0.059 C 
ATOM      5  C   UNL     1      34.119 -22.193 -18.093  0.00  0.00    +0.168 C 
ATOM      6  H   UNL     1      32.030 -22.292 -17.857  0.00  0.00    +0.149 HD
ATOM      7  H   UNL     1      36.096 -22.586 -17.628  0.00  0.00    +0.149 HD
ENDROOT
BRANCH   4   9
ATOM      8  I   UNL     1      37.208 -23.205 -11.615  0.00  0.00    -0.043 I 
ATOM      9  C   UNL     1      35.334 -24.122 -15.427  0.00  0.00    +0.015 C 
ATOM     10  C   UNL     1      35.789 -23.473 -14.276  0.00  0.00    +0.007 C 
ATOM     11  C   UNL     1      35.628 -25.474 -15.621  0.00  0.00    +0.001 C 
ATOM     12  C   UNL     1      36.534 -24.173 -13.326  0.00  0.00    +0.030 C 
ATOM     13  C   UNL     1      36.373 -26.173 -14.671  0.00  0.00    +0.000 C 
ATOM     14  C   UNL     1      36.825 -25.522 -13.524  0.00  0.00    +0.006 C 
ENDBRANCH   4   9
BRANCH   3  16
ATOM     15  N   UNL     1      30.162 -24.978 -13.991  0.00  0.00    -0.242 NA
ATOM     16  C   UNL     1      32.164 -23.889 -15.610  0.00  0.00    +0.017 C 
ATOM     17  C   UNL     1      30.844 -23.904 -16.046  0.00  0.00    +0.022 C 
ATOM     18  C   UNL     1      32.484 -24.418 -14.364  0.00  0.00    +0.022 C 
ATOM     19  C   UNL     1      29.889 -24.455 -15.208  0.00  0.00    +0.099 C 
ATOM     20  C   UNL     1      31.456 -24.946 -13.600  0.00  0.00    +0.099 C 
ENDBRANCH   3  16
BRANCH   5  21
ATOM     21  C   UNL     1      34.197 -21.362 -19.270  0.00  0.00    +0.014 C 
ATOM     22  C   UNL     1      35.435 -21.099 -19.858  0.00  0.00    -0.000 C 
ATOM     23  C   UNL     1      33.036 -20.819 -19.818  0.00  0.00    -0.000 C 
ATOM     24  C   UNL     1      34.348 -19.752 -21.543  0.00  0.00    +0.056 C 
ATOM     25  C   UNL     1      35.510 -20.295 -20.995  0.00  0.00    +0.008 C 
ATOM     26  C   UNL     1      33.111 -20.015 -20.955  0.00  0.00    +0.008 C 
BRANCH  24  27
ATOM     27  S   UNL     1      34.444 -18.718 -23.005  0.00  0.00    +0.066 S 
ATOM     28  O   UNL     1      35.010 -19.574 -24.103  0.00  0.00    -0.251 OA
ATOM     29  C   UNL     1      35.779 -17.630 -22.439  0.00  0.00    +0.111 C 
ENDBRANCH  24  27
ENDBRANCH   5  21
TORSDOF 4
ENDMDL
MODEL 3
REMARK VINA RESULT:     -10.2      7.005     11.481
REMARK  Name = 9543437
REMARK  4 active torsions:
REMARK  status: ('A' for Active; 'I' for Inactive)
REMARK    1  A    between atoms: C_3  and  C_16
REMARK    2  A    between atoms: C_4  and  C_9
REMARK    3  A    between atoms: C_5  and  C_21
REMARK    4  A    between atoms: C_24  and  S_27
REMARK                            x       y       z     vdW  Elec       q    Type
REMARK                         _______ _______ _______ _____ _____    ______ ____
ROOT
ATOM      1  N   UNL     1      32.281 -22.423 -17.936  0.00  0.00    -0.315 N 
ATOM      2  N   UNL     1      34.429 -22.443 -17.369  0.00  0.00    -0.315 N 
ATOM      3  C   UNL     1      32.356 -23.138 -16.774  0.00  0.00    +0.059 C 
ATOM      4  C   UNL     1      33.691 -23.137 -16.444  0.00  0.00    +0.059 C 
ATOM      5  C   UNL     1      33.550 -22.026 -18.254  0.00  0.00    +0.168 C 
ATOM      6  H   UNL     1      31.465 -22.228 -18.449  0.00  0.00    +0.149 HD
ATOM      7  H   UNL     1      35.402 -22.291 -17.370  0.00  0.00    +0.149 HD
ENDROOT
BRANCH   4   9
ATOM      8  I   UNL     1      37.574 -26.477 -14.523  0.00  0.00    -0.043 I 
ATOM      9  C   UNL     1      34.265 -23.769 -15.294  0.00  0.00    +0.015 C 
ATOM     10  C   UNL     1      35.370 -24.611 -15.433  0.00  0.00    +0.007 C 
ATOM     11  C   UNL     1      33.720 -23.545 -14.028  0.00  0.00    +0.001 C 
ATOM     12  C   UNL     1      35.929 -25.226 -14.312  0.00  0.00    +0.030 C 
ATOM     13  C   UNL     1      34.278 -24.160 -12.906  0.00  0.00    +0.000 C 
ATOM     14  C   UNL     1      35.382 -25.000 -13.049  0.00  0.00    +0.006 C 
ENDBRANCH   4   9
BRANCH   3  16
ATOM     15  N   UNL     1      28.949 -24.832 -14.906  0.00  0.00    -0.242 NA
ATOM     16  C   UNL     1      31.196 -23.715 -16.141  0.00  0.00    +0.017 C 
ATOM     17  C   UNL     1      31.255 -25.000 -15.613  0.00  0.00    +0.022 C 
ATOM     18  C   UNL     1      30.013 -22.988 -16.052  0.00  0.00    +0.022 C 
ATOM     19  C   UNL     1      30.116 -25.509 -15.011  0.00  0.00    +0.099 C 
ATOM     20  C   UNL     1      28.929 -23.586 -15.431  0.00  0.00    +0.099 C 
ENDBRANCH   3  16
BRANCH   5  21
ATOM     21  C   UNL     1      33.836 -21.244 -19.432  0.00  0.00    +0.014 C 
ATOM     22  C   UNL     1      32.797 -20.630 -20.131  0.00  0.00    -0.000 C 
ATOM     23  C   UNL     1      35.152 -21.106 -19.875  0.00  0.00    -0.000 C 
ATOM     24  C   UNL     1      34.390 -19.736 -21.713  0.00  0.00    +0.056 C 
ATOM     25  C   UNL     1      33.074 -19.875 -21.271  0.00  0.00    +0.008 C 
ATOM     26  C   UNL     1      35.429 -20.351 -21.014  0.00  0.00    +0.008 C 
BRANCH  24  27
ATOM     27  S   UNL     1      34.746 -18.766 -23.179  0.00  0.00    +0.066 S 
ATOM     28  O   UNL     1      34.971 -19.744 -24.299  0.00  0.00    -0.251 OA
ATOM     29  C   UNL     1      36.375 -18.156 -22.671  0.00  0.00    +0.111 C 
ENDBRANCH  24  27
ENDBRANCH   5  21
TORSDOF 4
ENDMDL
MODEL 4
REMARK VINA RESULT:     -10.2      6.705     11.256
REMARK  Name = 9543437
REMARK  4 active torsions:
REMARK  status: ('A' for Active; 'I' for Inactive)
REMARK    1  A    between atoms: C_3  and  C_16
REMARK    2  A    between atoms: C_4  and  C_9
REMARK    3  A    between atoms: C_5  and  C_21
REMARK    4  A    between atoms: C_24  and  S_27
REMARK                            x       y       z     vdW  Elec       q    Type
REMARK                         _______ _______ _______ _____ _____    ______ ____
ROOT
ATOM      1  N   UNL     1      34.629 -22.439 -17.555  0.00  0.00    -0.315 N 
ATOM      2  N   UNL     1      32.519 -22.219 -18.214  0.00  0.00    -0.315 N 
ATOM      3  C   UNL     1      33.878 -23.120 -16.640  0.00  0.00    +0.059 C 
ATOM      4  C   UNL     1      32.579 -22.970 -17.068  0.00  0.00    +0.059 C 
ATOM      5  C   UNL     1      33.770 -21.915 -18.481  0.00  0.00    +0.168 C 
ATOM      6  H   UNL     1      35.609 -22.342 -17.549  0.00  0.00    +0.149 HD
ATOM      7  H   UNL     1      31.717 -21.964 -18.725  0.00  0.00    +0.149 HD
ENDROOT
BRANCH   4   9
ATOM      8  I   UNL     1      27.260 -22.359 -15.946  0.00  0.00    -0.043 I 
ATOM      9  C   UNL     1      31.422 -23.514 -16.423  0.00  0.00    +0.015 C 
ATOM     10  C   UNL     1      30.201 -22.837 -16.483  0.00  0.00    +0.007 C 
ATOM     11  C   UNL     1      31.509 -24.724 -15.731  0.00  0.00    +0.001 C 
ATOM     12  C   UNL     1      29.074 -23.368 -15.854  0.00  0.00    +0.030 C 
ATOM     13  C   UNL     1      30.382 -25.255 -15.103  0.00  0.00    +0.000 C 
ATOM     14  C   UNL     1      29.166 -24.576 -15.165  0.00  0.00    +0.006 C 
ENDBRANCH   4   9
BRANCH   3  16
ATOM     15  N   UNL     1      35.589 -25.132 -13.325  0.00  0.00    -0.242 NA
ATOM     16  C   UNL     1      34.458 -23.806 -15.512  0.00  0.00    +0.017 C 
ATOM     17  C   UNL     1      35.398 -24.810 -15.714  0.00  0.00    +0.022 C 
ATOM     18  C   UNL     1      34.083 -23.464 -14.217  0.00  0.00    +0.022 C 
ATOM     19  C   UNL     1      35.929 -25.437 -14.598  0.00  0.00    +0.099 C 
ATOM     20  C   UNL     1      34.672 -24.150 -13.168  0.00  0.00    +0.099 C 
ENDBRANCH   3  16
BRANCH   5  21
ATOM     21  C   UNL     1      34.235 -21.128 -19.598  0.00  0.00    +0.014 C 
ATOM     22  C   UNL     1      35.596 -21.075 -19.896  0.00  0.00    -0.000 C 
ATOM     23  C   UNL     1      33.322 -20.419 -20.378  0.00  0.00    -0.000 C 
ATOM     24  C   UNL     1      35.131 -19.605 -21.756  0.00  0.00    +0.056 C 
ATOM     25  C   UNL     1      36.044 -20.314 -20.976  0.00  0.00    +0.008 C 
ATOM     26  C   UNL     1      33.770 -19.658 -21.457  0.00  0.00    +0.008 C 
BRANCH  24  27
ATOM     27  S   UNL     1      35.708 -18.626 -23.143  0.00  0.00    +0.066 S 
ATOM     28  O   UNL     1      35.395 -17.192 -22.819  0.00  0.00    -0.251 OA
ATOM     29  C   UNL     1      34.474 -19.177 -24.353  0.00  0.00    +0.111 C 
ENDBRANCH  24  27
ENDBRANCH   5  21
TORSDOF 4
ENDMDL
MODEL 5
REMARK VINA RESULT:     -10.1      6.967     11.715
REMARK  Name = 9543437
REMARK  4 active torsions:
REMARK  status: ('A' for Active; 'I' for Inactive)
REMARK    1  A    between atoms: C_3  and  C_16
REMARK    2  A    between atoms: C_4  and  C_9
REMARK    3  A    between atoms: C_5  and  C_21
REMARK    4  A    between atoms: C_24  and  S_27
REMARK                            x       y       z     vdW  Elec       q    Type
REMARK                         _______ _______ _______ _____ _____    ______ ____
ROOT
ATOM      1  N   UNL     1      35.802 -22.548 -17.219  0.00  0.00    -0.315 N 
ATOM      2  N   UNL     1      33.618 -22.390 -17.590  0.00  0.00    -0.315 N 
ATOM      3  C   UNL     1      35.201 -23.271 -16.228  0.00  0.00    +0.059 C 
ATOM      4  C   UNL     1      33.853 -23.158 -16.478  0.00  0.00    +0.059 C 
ATOM      5  C   UNL     1      34.812 -22.038 -18.012  0.00  0.00    +0.168 C 
ATOM      6  H   UNL     1      36.770 -22.417 -17.340  0.00  0.00    +0.149 HD
ATOM      7  H   UNL     1      32.747 -22.155 -17.986  0.00  0.00    +0.149 HD
ENDROOT
BRANCH   4   9
ATOM      8  I   UNL     1      28.489 -24.120 -15.997  0.00  0.00    -0.043 I 
ATOM      9  C   UNL     1      32.809 -23.754 -15.699  0.00  0.00    +0.015 C 
ATOM     10  C   UNL     1      31.480 -23.668 -16.123  0.00  0.00    +0.007 C 
ATOM     11  C   UNL     1      33.115 -24.421 -14.511  0.00  0.00    +0.001 C 
ATOM     12  C   UNL     1      30.464 -24.248 -15.363  0.00  0.00    +0.030 C 
ATOM     13  C   UNL     1      32.099 -25.001 -13.751  0.00  0.00    +0.000 C 
ATOM     14  C   UNL     1      30.774 -24.914 -14.178  0.00  0.00    +0.006 C 
ENDBRANCH   4   9
BRANCH   3  16
ATOM     15  N   UNL     1      37.389 -25.285 -13.209  0.00  0.00    -0.242 NA
ATOM     16  C   UNL     1      35.947 -23.955 -15.202  0.00  0.00    +0.017 C 
ATOM     17  C   UNL     1      36.413 -23.257 -14.094  0.00  0.00    +0.022 C 
ATOM     18  C   UNL     1      36.201 -25.319 -15.315  0.00  0.00    +0.022 C 
ATOM     19  C   UNL     1      37.123 -23.961 -13.134  0.00  0.00    +0.099 C 
ATOM     20  C   UNL     1      36.920 -25.930 -14.301  0.00  0.00    +0.099 C 
ENDBRANCH   3  16
BRANCH   5  21
ATOM     21  C   UNL     1      35.099 -21.217 -19.163  0.00  0.00    +0.014 C 
ATOM     22  C   UNL     1      36.417 -20.869 -19.462  0.00  0.00    -0.000 C 
ATOM     23  C   UNL     1      34.058 -20.768 -19.976  0.00  0.00    -0.000 C 
ATOM     24  C   UNL     1      35.652 -19.626 -21.387  0.00  0.00    +0.056 C 
ATOM     25  C   UNL     1      36.693 -20.074 -20.574  0.00  0.00    +0.008 C 
ATOM     26  C   UNL     1      34.335 -19.973 -21.089  0.00  0.00    +0.008 C 
BRANCH  24  27
ATOM     27  S   UNL     1      36.008 -18.604 -22.817  0.00  0.00    +0.066 S 
ATOM     28  O   UNL     1      35.580 -17.206 -22.465  0.00  0.00    -0.251 OA
ATOM     29  C   UNL     1      34.739 -19.285 -23.919  0.00  0.00    +0.111 C 
ENDBRANCH  24  27
ENDBRANCH   5  21
TORSDOF 4
ENDMDL
MODEL 6
REMARK VINA RESULT:     -10.0      1.325      3.647
REMARK  Name = 9543437
REMARK  4 active torsions:
REMARK  status: ('A' for Active; 'I' for Inactive)
REMARK    1  A    between atoms: C_3  and  C_16
REMARK    2  A    between atoms: C_4  and  C_9
REMARK    3  A    between atoms: C_5  and  C_21
REMARK    4  A    between atoms: C_24  and  S_27
REMARK                            x       y       z     vdW  Elec       q    Type
REMARK                         _______ _______ _______ _____ _____    ______ ____
ROOT
ATOM      1  N   UNL     1      33.967 -15.896 -23.135  0.00  0.00    -0.315 N 
ATOM      2  N   UNL     1      33.323 -15.361 -21.078  0.00  0.00    -0.315 N 
ATOM      3  C   UNL     1      33.493 -14.617 -23.212  0.00  0.00    +0.059 C 
ATOM      4  C   UNL     1      33.101 -14.309 -21.930  0.00  0.00    +0.059 C 
ATOM      5  C   UNL     1      33.844 -16.301 -21.835  0.00  0.00    +0.168 C 
ATOM      6  H   UNL     1      34.330 -16.429 -23.879  0.00  0.00    +0.149 HD
ATOM      7  H   UNL     1      33.133 -15.403 -20.113  0.00  0.00    +0.149 HD
ENDROOT
BRANCH   4   9
ATOM      8  I   UNL     1      31.872  -9.155 -23.290  0.00  0.00    -0.043 I 
ATOM      9  C   UNL     1      32.533 -13.063 -21.510  0.00  0.00    +0.015 C 
ATOM     10  C   UNL     1      32.490 -11.979 -22.390  0.00  0.00    +0.007 C 
ATOM     11  C   UNL     1      32.022 -12.927 -20.217  0.00  0.00    +0.001 C 
ATOM     12  C   UNL     1      31.937 -10.765 -21.979  0.00  0.00    +0.030 C 
ATOM     13  C   UNL     1      31.469 -11.713 -19.807  0.00  0.00    +0.000 C 
ATOM     14  C   UNL     1      31.427 -10.633 -20.688  0.00  0.00    +0.006 C 
ENDBRANCH   4   9
BRANCH   3  16
ATOM     15  N   UNL     1      33.430 -12.419 -26.835  0.00  0.00    -0.242 NA
ATOM     16  C   UNL     1      33.470 -13.869 -24.444  0.00  0.00    +0.017 C 
ATOM     17  C   UNL     1      34.024 -12.595 -24.498  0.00  0.00    +0.022 C 
ATOM     18  C   UNL     1      32.895 -14.419 -25.585  0.00  0.00    +0.022 C 
ATOM     19  C   UNL     1      33.979 -11.917 -25.706  0.00  0.00    +0.099 C 
ATOM     20  C   UNL     1      32.901 -13.661 -26.744  0.00  0.00    +0.099 C 
ENDBRANCH   3  16
BRANCH   5  21
ATOM     21  C   UNL     1      34.254 -17.614 -21.399  0.00  0.00    +0.014 C 
ATOM     22  C   UNL     1      35.609 -17.940 -21.346  0.00  0.00    -0.000 C 
ATOM     23  C   UNL     1      33.294 -18.557 -21.034  0.00  0.00    -0.000 C 
ATOM     24  C   UNL     1      35.044 -20.154 -20.560  0.00  0.00    +0.056 C 
ATOM     25  C   UNL     1      36.004 -19.210 -20.926  0.00  0.00    +0.008 C 
ATOM     26  C   UNL     1      33.690 -19.828 -20.614  0.00  0.00    +0.008 C 
BRANCH  24  27
ATOM     27  S   UNL     1      35.553 -21.787 -20.020  0.00  0.00    +0.066 S 
ATOM     28  O   UNL     1      34.330 -22.454 -19.453  0.00  0.00    -0.251 OA
ATOM     29  C   UNL     1      36.573 -21.267 -18.615  0.00  0.00    +0.111 C 
ENDBRANCH  24  27
ENDBRANCH   5  21
TORSDOF 4
ENDMDL
MODEL 7
REMARK VINA RESULT:      -9.4      0.666      1.457
REMARK  Name = 9543437
REMARK  4 active torsions:
REMARK  status: ('A' for Active; 'I' for Inactive)
REMARK    1  A    between atoms: C_3  and  C_16
REMARK    2  A    between atoms: C_4  and  C_9
REMARK    3  A    between atoms: C_5  and  C_21
REMARK    4  A    between atoms: C_24  and  S_27
REMARK                            x       y       z     vdW  Elec       q    Type
REMARK                         _______ _______ _______ _____ _____    ______ ____
ROOT
ATOM      1  N   UNL     1      33.189 -15.709 -21.115  0.00  0.00    -0.315 N 
ATOM      2  N   UNL     1      34.033 -16.255 -23.095  0.00  0.00    -0.315 N 
ATOM      3  C   UNL     1      32.980 -14.627 -21.922  0.00  0.00    +0.059 C 
ATOM      4  C   UNL     1      33.510 -14.988 -23.139  0.00  0.00    +0.059 C 
ATOM      5  C   UNL     1      33.824 -16.661 -21.863  0.00  0.00    +0.168 C 
ATOM      6  H   UNL     1      32.930 -15.789 -20.168  0.00  0.00    +0.149 HD
ATOM      7  H   UNL     1      34.468 -16.752 -23.826  0.00  0.00    +0.149 HD
ENDROOT
BRANCH   4   9
ATOM      8  I   UNL     1      34.945 -10.196 -25.354  0.00  0.00    -0.043 I 
ATOM      9  C   UNL     1      33.527 -14.170 -24.315  0.00  0.00    +0.015 C 
ATOM     10  C   UNL     1      34.090 -12.892 -24.273  0.00  0.00    +0.007 C 
ATOM     11  C   UNL     1      32.981 -14.648 -25.508  0.00  0.00    +0.001 C 
ATOM     12  C   UNL     1      34.106 -12.096 -25.419  0.00  0.00    +0.030 C 
ATOM     13  C   UNL     1      32.997 -13.852 -26.654  0.00  0.00    +0.000 C 
ATOM     14  C   UNL     1      33.560 -12.577 -26.609  0.00  0.00    +0.006 C 
ENDBRANCH   4   9
BRANCH   3  16
ATOM     15  N   UNL     1      31.060 -11.101 -20.566  0.00  0.00    -0.242 NA
ATOM     16  C   UNL     1      32.329 -13.426 -21.461  0.00  0.00    +0.017 C 
ATOM     17  C   UNL     1      31.698 -12.582 -22.367  0.00  0.00    +0.022 C 
ATOM     18  C   UNL     1      32.326 -13.109 -20.106  0.00  0.00    +0.022 C 
ATOM     19  C   UNL     1      31.084 -11.442 -21.874  0.00  0.00    +0.099 C 
ATOM     20  C   UNL     1      31.684 -11.946 -19.714  0.00  0.00    +0.099 C 
ENDBRANCH   3  16
BRANCH   5  21
ATOM     21  C   UNL     1      34.197 -17.943 -21.315  0.00  0.00    +0.014 C 
ATOM     22  C   UNL     1      33.215 -18.887 -21.015  0.00  0.00    -0.000 C 
ATOM     23  C   UNL     1      35.541 -18.236 -21.081  0.00  0.00    -0.000 C 
ATOM     24  C   UNL     1      34.921 -20.418 -20.252  0.00  0.00    +0.056 C 
ATOM     25  C   UNL     1      33.577 -20.125 -20.485  0.00  0.00    +0.008 C 
ATOM     26  C   UNL     1      35.903 -19.474 -20.550  0.00  0.00    +0.008 C 
BRANCH  24  27
ATOM     27  S   UNL     1      35.386 -22.010 -19.569  0.00  0.00    +0.066 S 
ATOM     28  O   UNL     1      35.172 -23.026 -20.656  0.00  0.00    -0.251 OA
ATOM     29  C   UNL     1      34.008 -22.181 -18.404  0.00  0.00    +0.111 C 
ENDBRANCH  24  27
ENDBRANCH   5  21
TORSDOF 4
ENDMDL
MODEL 8
REMARK VINA RESULT:      -8.5      3.587      5.021
REMARK  Name = 9543437
REMARK  4 active torsions:
REMARK  status: ('A' for Active; 'I' for Inactive)
REMARK    1  A    between atoms: C_3  and  C_16
REMARK    2  A    between atoms: C_4  and  C_9
REMARK    3  A    between atoms: C_5  and  C_21
REMARK    4  A    between atoms: C_24  and  S_27
REMARK                            x       y       z     vdW  Elec       q    Type
REMARK                         _______ _______ _______ _____ _____    ______ ____
ROOT
ATOM      1  N   UNL     1      32.865 -12.372 -22.343  0.00  0.00    -0.315 N 
ATOM      2  N   UNL     1      33.777 -11.579 -24.206  0.00  0.00    -0.315 N 
ATOM      3  C   UNL     1      32.781 -11.012 -22.251  0.00  0.00    +0.059 C 
ATOM      4  C   UNL     1      33.350 -10.544 -23.412  0.00  0.00    +0.059 C 
ATOM      5  C   UNL     1      33.470 -12.665 -23.533  0.00  0.00    +0.168 C 
ATOM      6  H   UNL     1      32.548 -13.022 -21.675  0.00  0.00    +0.149 HD
ATOM      7  H   UNL     1      34.216 -11.520 -25.085  0.00  0.00    +0.149 HD
ENDROOT
BRANCH   4   9
ATOM      8  I   UNL     1      30.849  -5.745 -24.212  0.00  0.00    -0.043 I 
ATOM      9  C   UNL     1      33.493  -9.166 -23.773  0.00  0.00    +0.015 C 
ATOM     10  C   UNL     1      32.374  -8.329 -23.809  0.00  0.00    +0.007 C 
ATOM     11  C   UNL     1      34.752  -8.652 -24.092  0.00  0.00    +0.001 C 
ATOM     12  C   UNL     1      32.515  -6.987 -24.161  0.00  0.00    +0.030 C 
ATOM     13  C   UNL     1      34.892  -7.309 -24.444  0.00  0.00    +0.000 C 
ATOM     14  C   UNL     1      33.774  -6.478 -24.478  0.00  0.00    +0.006 C 
ENDBRANCH   4   9
BRANCH   3  16
ATOM     15  N   UNL     1      31.058  -9.049 -18.913  0.00  0.00    -0.242 NA
ATOM     16  C   UNL     1      32.193 -10.344 -21.116  0.00  0.00    +0.017 C 
ATOM     17  C   UNL     1      31.364 -11.042 -20.246  0.00  0.00    +0.022 C 
ATOM     18  C   UNL     1      32.455  -8.997 -20.886  0.00  0.00    +0.022 C 
ATOM     19  C   UNL     1      30.826 -10.356 -19.169  0.00  0.00    +0.099 C 
ATOM     20  C   UNL     1      31.869  -8.402 -19.781  0.00  0.00    +0.099 C 
ENDBRANCH   3  16
BRANCH   5  21
ATOM     21  C   UNL     1      33.718 -14.023 -23.952  0.00  0.00    +0.014 C 
ATOM     22  C   UNL     1      33.238 -14.473 -25.182  0.00  0.00    -0.000 C 
ATOM     23  C   UNL     1      34.436 -14.888 -23.126  0.00  0.00    -0.000 C 
ATOM     24  C   UNL     1      34.197 -16.650 -24.760  0.00  0.00    +0.056 C 
ATOM     25  C   UNL     1      33.478 -15.787 -25.586  0.00  0.00    +0.008 C 
ATOM     26  C   UNL     1      34.676 -16.201 -23.530  0.00  0.00    +0.008 C 
BRANCH  24  27
ATOM     27  S   UNL     1      34.504 -18.339 -25.279  0.00  0.00    +0.066 S 
ATOM     28  O   UNL     1      33.165 -18.943 -25.600  0.00  0.00    -0.251 OA
ATOM     29  C   UNL     1      35.010 -18.996 -23.667  0.00  0.00    +0.111 C 
ENDBRANCH  24  27
ENDBRANCH   5  21
TORSDOF 4
ENDMDL
MODEL 9
REMARK VINA RESULT:      -8.3      6.153      9.765
REMARK  Name = 9543437
REMARK  4 active torsions:
REMARK  status: ('A' for Active; 'I' for Inactive)
REMARK    1  A    between atoms: C_3  and  C_16
REMARK    2  A    between atoms: C_4  and  C_9
REMARK    3  A    between atoms: C_5  and  C_21
REMARK    4  A    between atoms: C_24  and  S_27
REMARK                            x       y       z     vdW  Elec       q    Type
REMARK                         _______ _______ _______ _____ _____    ______ ____
ROOT
ATOM      1  N   UNL     1      32.654 -10.663 -24.359  0.00  0.00    -0.315 N 
ATOM      2  N   UNL     1      32.555 -10.951 -22.159  0.00  0.00    -0.315 N 
ATOM      3  C   UNL     1      32.871 -11.995 -24.146  0.00  0.00    +0.059 C 
ATOM      4  C   UNL     1      32.806 -12.148 -22.780  0.00  0.00    +0.059 C 
ATOM      5  C   UNL     1      32.470 -10.077 -23.138  0.00  0.00    +0.168 C 
ATOM      6  H   UNL     1      32.634 -10.209 -25.232  0.00  0.00    +0.149 HD
ATOM      7  H   UNL     1      32.460 -10.782 -21.194  0.00  0.00    +0.149 HD
ENDROOT
BRANCH   4   9
ATOM      8  I   UNL     1      35.194 -17.068 -22.668  0.00  0.00    -0.043 I 
ATOM      9  C   UNL     1      32.973 -13.381 -22.072  0.00  0.00    +0.015 C 
ATOM     10  C   UNL     1      33.800 -14.382 -22.588  0.00  0.00    +0.007 C 
ATOM     11  C   UNL     1      32.308 -13.589 -20.861  0.00  0.00    +0.001 C 
ATOM     12  C   UNL     1      33.962 -15.583 -21.898  0.00  0.00    +0.030 C 
ATOM     13  C   UNL     1      32.470 -14.791 -20.170  0.00  0.00    +0.000 C 
ATOM     14  C   UNL     1      33.297 -15.787 -20.689  0.00  0.00    +0.006 C 
ENDBRANCH   4   9
BRANCH   3  16
ATOM     15  N   UNL     1      33.555 -14.734 -27.306  0.00  0.00    -0.242 NA
ATOM     16  C   UNL     1      33.106 -12.927 -25.220  0.00  0.00    +0.017 C 
ATOM     17  C   UNL     1      32.766 -14.267 -25.069  0.00  0.00    +0.022 C 
ATOM     18  C   UNL     1      33.671 -12.490 -26.414  0.00  0.00    +0.022 C 
ATOM     19  C   UNL     1      33.009 -15.122 -26.131  0.00  0.00    +0.099 C 
ATOM     20  C   UNL     1      33.873 -13.424 -27.416  0.00  0.00    +0.099 C 
ENDBRANCH   3  16
BRANCH   5  21
ATOM     21  C   UNL     1      32.214  -8.664 -22.996  0.00  0.00    +0.014 C 
ATOM     22  C   UNL     1      32.687  -7.978 -21.877  0.00  0.00    -0.000 C 
ATOM     23  C   UNL     1      31.493  -7.985 -23.977  0.00  0.00    -0.000 C 
ATOM     24  C   UNL     1      31.717  -5.933 -22.722  0.00  0.00    +0.056 C 
ATOM     25  C   UNL     1      32.439  -6.613 -21.741  0.00  0.00    +0.008 C 
ATOM     26  C   UNL     1      31.245  -6.619 -23.841  0.00  0.00    +0.008 C 
BRANCH  24  27
ATOM     27  S   UNL     1      31.398  -4.177 -22.546  0.00  0.00    +0.066 S 
ATOM     28  O   UNL     1      29.974  -4.042 -22.082  0.00  0.00    -0.251 OA
ATOM     29  C   UNL     1      31.424  -3.752 -24.308  0.00  0.00    +0.111 C 
ENDBRANCH  24  27
ENDBRANCH   5  21
TORSDOF 4
ENDMDL
