MODEL 1
REMARK VINA RESULT:      -6.6      0.000      0.000
REMARK  Name = 46937099
REMARK  13 active torsions:
REMARK  status: ('A' for Active; 'I' for Inactive)
REMARK    1  A    between atoms: S_1  and  C_2
REMARK    2  A    between atoms: S_1  and  C_11
REMARK    3  A    between atoms: C_2  and  C_3
REMARK    4  A    between atoms: C_3  and  C_4
REMARK    5  A    between atoms: C_4  and  C_5
REMARK    6  A    between atoms: C_5  and  C_6
REMARK    7  A    between atoms: C_6  and  C_7
REMARK    8  A    between atoms: C_7  and  C_8
REMARK    9  A    between atoms: C_8  and  C_9
REMARK   10  A    between atoms: C_11  and  C_12
REMARK   11  A    between atoms: C_12  and  N_13
REMARK   12  A    between atoms: C_12  and  C_18
REMARK   13  A    between atoms: C_18  and  O_19
REMARK                            x       y       z     vdW  Elec       q    Type
REMARK                         _______ _______ _______ _____ _____    ______ ____
ROOT
ATOM      1  S   UNK     1      36.308 -23.841 -15.339  0.00  0.00    -0.142 S 
ENDROOT
BRANCH   1   2
ATOM      2  C   UNK     1      37.044 -22.606 -16.449  0.00  0.00    +0.057 C 
BRANCH   2   3
ATOM      3  C   UNK     1      36.058 -22.073 -17.489  0.00  0.00    +0.012 C 
BRANCH   3   4
ATOM      4  C   UNK     1      36.734 -21.413 -18.695  0.00  0.00    +0.001 C 
BRANCH   4   5
ATOM      5  C   UNK     1      35.833 -21.466 -19.930  0.00  0.00    +0.000 C 
BRANCH   5   6
ATOM      6  C   UNK     1      34.356 -21.554 -19.538  0.00  0.00    +0.000 C 
BRANCH   6   7
ATOM      7  C   UNK     1      33.508 -20.569 -20.346  0.00  0.00    +0.000 C 
BRANCH   7   8
ATOM      8  C   UNK     1      34.306 -19.375 -20.882  0.00  0.00    +0.000 C 
BRANCH   8   9
ATOM      9  C   UNK     1      34.288 -19.193 -22.402  0.00  0.00    +0.000 C 
ATOM     10  C   UNK     1      35.547 -18.537 -22.949  0.00  0.00    +0.000 C 
ENDBRANCH   8   9
ENDBRANCH   7   8
ENDBRANCH   6   7
ENDBRANCH   5   6
ENDBRANCH   4   5
ENDBRANCH   3   4
ENDBRANCH   2   3
ENDBRANCH   1   2
BRANCH   1  11
ATOM     11  C   UNK     1      37.760 -24.171 -14.316  0.00  0.00    +0.047 C 
BRANCH  11  12
ATOM     12  C   UNK     1      38.424 -25.501 -14.677  0.00  0.00    +0.047 C 
BRANCH  12  13
ATOM     13  N   UNK     1      38.232 -26.468 -13.594  0.00  0.00    +0.389 N 
ATOM     14  H   UNK     1      38.301 -27.415 -13.966  0.00  0.00    -0.088 HD
ATOM     15  H   UNK     1      37.311 -26.332 -13.176  0.00  0.00    -0.088 HD
ATOM     16  H   UNK     1      38.952 -26.329 -12.883  0.00  0.00    -0.088 HD
ENDBRANCH  12  13
BRANCH  12  18
ATOM     17  O   UNK     1      40.668 -24.803 -14.105  0.00  0.00    -0.253 OA
ATOM     18  C   UNK     1      39.917 -25.356 -14.901  0.00  0.00    +0.294 C 
BRANCH  18  19
ATOM     19  O   UNK     1      40.346 -25.864 -16.083  0.00  0.00    -0.482 OA
ATOM     20  H   UNK     1      40.449 -26.790 -16.185  0.00  0.00    +0.295 HD
ENDBRANCH  18  19
ENDBRANCH  12  18
ENDBRANCH  11  12
ENDBRANCH   1  11
TORSDOF 13
ENDMDL
MODEL 2
REMARK VINA RESULT:      -6.5      2.038      2.348
REMARK  Name = 46937099
REMARK  13 active torsions:
REMARK  status: ('A' for Active; 'I' for Inactive)
REMARK    1  A    between atoms: S_1  and  C_2
REMARK    2  A    between atoms: S_1  and  C_11
REMARK    3  A    between atoms: C_2  and  C_3
REMARK    4  A    between atoms: C_3  and  C_4
REMARK    5  A    between atoms: C_4  and  C_5
REMARK    6  A    between atoms: C_5  and  C_6
REMARK    7  A    between atoms: C_6  and  C_7
REMARK    8  A    between atoms: C_7  and  C_8
REMARK    9  A    between atoms: C_8  and  C_9
REMARK   10  A    between atoms: C_11  and  C_12
REMARK   11  A    between atoms: C_12  and  N_13
REMARK   12  A    between atoms: C_12  and  C_18
REMARK   13  A    between atoms: C_18  and  O_19
REMARK                            x       y       z     vdW  Elec       q    Type
REMARK                         _______ _______ _______ _____ _____    ______ ____
ROOT
ATOM      1  S   UNK     1      35.108 -23.133 -15.778  0.00  0.00    -0.142 S 
ENDROOT
BRANCH   1   2
ATOM      2  C   UNK     1      33.571 -23.426 -16.701  0.00  0.00    +0.057 C 
BRANCH   2   3
ATOM      3  C   UNK     1      33.562 -22.760 -18.077  0.00  0.00    +0.012 C 
BRANCH   3   4
ATOM      4  C   UNK     1      34.898 -22.111 -18.453  0.00  0.00    +0.001 C 
BRANCH   4   5
ATOM      5  C   UNK     1      34.779 -21.318 -19.756  0.00  0.00    +0.000 C 
BRANCH   5   6
ATOM      6  C   UNK     1      33.335 -20.879 -20.011  0.00  0.00    +0.000 C 
BRANCH   6   7
ATOM      7  C   UNK     1      33.284 -19.561 -20.786  0.00  0.00    +0.000 C 
BRANCH   7   8
ATOM      8  C   UNK     1      34.642 -19.137 -21.356  0.00  0.00    +0.000 C 
BRANCH   8   9
ATOM      9  C   UNK     1      34.793 -19.261 -22.874  0.00  0.00    +0.000 C 
ATOM     10  C   UNK     1      34.927 -17.922 -23.583  0.00  0.00    +0.000 C 
ENDBRANCH   8   9
ENDBRANCH   7   8
ENDBRANCH   6   7
ENDBRANCH   5   6
ENDBRANCH   4   5
ENDBRANCH   3   4
ENDBRANCH   2   3
ENDBRANCH   1   2
BRANCH   1  11
ATOM     11  C   UNK     1      35.302 -24.781 -15.062  0.00  0.00    +0.047 C 
BRANCH  11  12
ATOM     12  C   UNK     1      36.758 -25.082 -14.704  0.00  0.00    +0.047 C 
BRANCH  12  13
ATOM     13  N   UNK     1      37.648 -24.156 -15.407  0.00  0.00    +0.389 N 
ATOM     14  H   UNK     1      38.502 -24.025 -14.863  0.00  0.00    -0.088 HD
ATOM     15  H   UNK     1      37.180 -23.257 -15.525  0.00  0.00    -0.088 HD
ATOM     16  H   UNK     1      37.884 -24.540 -16.323  0.00  0.00    -0.088 HD
ENDBRANCH  12  13
BRANCH  12  18
ATOM     17  O   UNK     1      37.997 -27.146 -14.471  0.00  0.00    -0.253 OA
ATOM     18  C   UNK     1      37.166 -26.491 -15.090  0.00  0.00    +0.294 C 
BRANCH  18  19
ATOM     19  O   UNK     1      36.551 -26.951 -16.208  0.00  0.00    -0.482 OA
ATOM     20  H   UNK     1      35.917 -26.419 -16.647  0.00  0.00    +0.295 HD
ENDBRANCH  18  19
ENDBRANCH  12  18
ENDBRANCH  11  12
ENDBRANCH   1  11
TORSDOF 13
ENDMDL
MODEL 3
REMARK VINA RESULT:      -6.5      5.985      6.895
REMARK  Name = 46937099
REMARK  13 active torsions:
REMARK  status: ('A' for Active; 'I' for Inactive)
REMARK    1  A    between atoms: S_1  and  C_2
REMARK    2  A    between atoms: S_1  and  C_11
REMARK    3  A    between atoms: C_2  and  C_3
REMARK    4  A    between atoms: C_3  and  C_4
REMARK    5  A    between atoms: C_4  and  C_5
REMARK    6  A    between atoms: C_5  and  C_6
REMARK    7  A    between atoms: C_6  and  C_7
REMARK    8  A    between atoms: C_7  and  C_8
REMARK    9  A    between atoms: C_8  and  C_9
REMARK   10  A    between atoms: C_11  and  C_12
REMARK   11  A    between atoms: C_12  and  N_13
REMARK   12  A    between atoms: C_12  and  C_18
REMARK   13  A    between atoms: C_18  and  O_19
REMARK                            x       y       z     vdW  Elec       q    Type
REMARK                         _______ _______ _______ _____ _____    ______ ____
ROOT
ATOM      1  S   UNK     1      32.189 -23.461 -15.313  0.00  0.00    -0.142 S 
ENDROOT
BRANCH   1   2
ATOM      2  C   UNK     1      33.517 -23.413 -16.552  0.00  0.00    +0.057 C 
BRANCH   2   3
ATOM      3  C   UNK     1      33.088 -22.755 -17.864  0.00  0.00    +0.012 C 
BRANCH   3   4
ATOM      4  C   UNK     1      34.148 -22.838 -18.967  0.00  0.00    +0.001 C 
BRANCH   4   5
ATOM      5  C   UNK     1      34.354 -21.477 -19.637  0.00  0.00    +0.000 C 
BRANCH   5   6
ATOM      6  C   UNK     1      33.024 -20.745 -19.832  0.00  0.00    +0.000 C 
BRANCH   6   7
ATOM      7  C   UNK     1      33.158 -19.617 -20.856  0.00  0.00    +0.000 C 
BRANCH   7   8
ATOM      8  C   UNK     1      34.593 -19.409 -21.351  0.00  0.00    +0.000 C 
BRANCH   8   9
ATOM      9  C   UNK     1      34.760 -18.426 -22.512  0.00  0.00    +0.000 C 
ATOM     10  C   UNK     1      34.888 -19.102 -23.868  0.00  0.00    +0.000 C 
ENDBRANCH   8   9
ENDBRANCH   7   8
ENDBRANCH   6   7
ENDBRANCH   5   6
ENDBRANCH   4   5
ENDBRANCH   3   4
ENDBRANCH   2   3
ENDBRANCH   1   2
BRANCH   1  11
ATOM     11  C   UNK     1      30.846 -22.833 -16.346  0.00  0.00    +0.047 C 
BRANCH  11  12
ATOM     12  C   UNK     1      29.498 -23.452 -15.971  0.00  0.00    +0.047 C 
BRANCH  12  13
ATOM     13  N   UNK     1      29.602 -24.913 -15.969  0.00  0.00    +0.389 N 
ATOM     14  H   UNK     1      30.369 -25.199 -15.361  0.00  0.00    -0.088 HD
ATOM     15  H   UNK     1      29.779 -25.244 -16.918  0.00  0.00    -0.088 HD
ATOM     16  H   UNK     1      28.728 -25.315 -15.626  0.00  0.00    -0.088 HD
ENDBRANCH  12  13
BRANCH  12  18
ATOM     17  O   UNK     1      28.117 -21.914 -17.226  0.00  0.00    -0.253 OA
ATOM     18  C   UNK     1      28.400 -23.073 -16.947  0.00  0.00    +0.294 C 
BRANCH  18  19
ATOM     19  O   UNK     1      27.732 -24.137 -17.459  0.00  0.00    -0.482 OA
ATOM     20  H   UNK     1      26.867 -24.026 -17.803  0.00  0.00    +0.295 HD
ENDBRANCH  18  19
ENDBRANCH  12  18
ENDBRANCH  11  12
ENDBRANCH   1  11
TORSDOF 13
ENDMDL
MODEL 4
REMARK VINA RESULT:      -6.4      1.522      1.803
REMARK  Name = 46937099
REMARK  13 active torsions:
REMARK  status: ('A' for Active; 'I' for Inactive)
REMARK    1  A    between atoms: S_1  and  C_2
REMARK    2  A    between atoms: S_1  and  C_11
REMARK    3  A    between atoms: C_2  and  C_3
REMARK    4  A    between atoms: C_3  and  C_4
REMARK    5  A    between atoms: C_4  and  C_5
REMARK    6  A    between atoms: C_5  and  C_6
REMARK    7  A    between atoms: C_6  and  C_7
REMARK    8  A    between atoms: C_7  and  C_8
REMARK    9  A    between atoms: C_8  and  C_9
REMARK   10  A    between atoms: C_11  and  C_12
REMARK   11  A    between atoms: C_12  and  N_13
REMARK   12  A    between atoms: C_12  and  C_18
REMARK   13  A    between atoms: C_18  and  O_19
REMARK                            x       y       z     vdW  Elec       q    Type
REMARK                         _______ _______ _______ _____ _____    ______ ____
ROOT
ATOM      1  S   UNK     1      35.862 -24.979 -15.013  0.00  0.00    -0.142 S 
ENDROOT
BRANCH   1   2
ATOM      2  C   UNK     1      35.148 -23.333 -15.302  0.00  0.00    +0.057 C 
BRANCH   2   3
ATOM      3  C   UNK     1      33.633 -23.365 -15.503  0.00  0.00    +0.012 C 
BRANCH   3   4
ATOM      4  C   UNK     1      33.207 -23.262 -16.972  0.00  0.00    +0.001 C 
BRANCH   4   5
ATOM      5  C   UNK     1      34.357 -22.760 -17.847  0.00  0.00    +0.000 C 
BRANCH   5   6
ATOM      6  C   UNK     1      33.923 -22.612 -19.307  0.00  0.00    +0.000 C 
BRANCH   6   7
ATOM      7  C   UNK     1      33.468 -21.183 -19.607  0.00  0.00    +0.000 C 
BRANCH   7   8
ATOM      8  C   UNK     1      34.497 -20.369 -20.398  0.00  0.00    +0.000 C 
BRANCH   8   9
ATOM      9  C   UNK     1      33.923 -19.381 -21.417  0.00  0.00    +0.000 C 
ATOM     10  C   UNK     1      34.938 -18.912 -22.448  0.00  0.00    +0.000 C 
ENDBRANCH   8   9
ENDBRANCH   7   8
ENDBRANCH   6   7
ENDBRANCH   5   6
ENDBRANCH   4   5
ENDBRANCH   3   4
ENDBRANCH   2   3
ENDBRANCH   1   2
BRANCH   1  11
ATOM     11  C   UNK     1      37.590 -24.486 -14.826  0.00  0.00    +0.047 C 
BRANCH  11  12
ATOM     12  C   UNK     1      38.497 -25.681 -14.529  0.00  0.00    +0.047 C 
BRANCH  12  13
ATOM     13  N   UNK     1      38.463 -25.992 -13.098  0.00  0.00    +0.389 N 
ATOM     14  H   UNK     1      37.830 -26.775 -12.935  0.00  0.00    -0.088 HD
ATOM     15  H   UNK     1      38.135 -25.176 -12.580  0.00  0.00    -0.088 HD
ATOM     16  H   UNK     1      39.401 -26.241 -12.782  0.00  0.00    -0.088 HD
ENDBRANCH  12  13
BRANCH  12  18
ATOM     17  O   UNK     1      40.722 -24.795 -14.187  0.00  0.00    -0.253 OA
ATOM     18  C   UNK     1      39.942 -25.413 -14.904  0.00  0.00    +0.294 C 
BRANCH  18  19
ATOM     19  O   UNK     1      40.289 -25.890 -16.125  0.00  0.00    -0.482 OA
ATOM     20  H   UNK     1      40.985 -25.486 -16.606  0.00  0.00    +0.295 HD
ENDBRANCH  18  19
ENDBRANCH  12  18
ENDBRANCH  11  12
ENDBRANCH   1  11
TORSDOF 13
ENDMDL
MODEL 5
REMARK VINA RESULT:      -6.3      2.133      2.667
REMARK  Name = 46937099
REMARK  13 active torsions:
REMARK  status: ('A' for Active; 'I' for Inactive)
REMARK    1  A    between atoms: S_1  and  C_2
REMARK    2  A    between atoms: S_1  and  C_11
REMARK    3  A    between atoms: C_2  and  C_3
REMARK    4  A    between atoms: C_3  and  C_4
REMARK    5  A    between atoms: C_4  and  C_5
REMARK    6  A    between atoms: C_5  and  C_6
REMARK    7  A    between atoms: C_6  and  C_7
REMARK    8  A    between atoms: C_7  and  C_8
REMARK    9  A    between atoms: C_8  and  C_9
REMARK   10  A    between atoms: C_11  and  C_12
REMARK   11  A    between atoms: C_12  and  N_13
REMARK   12  A    between atoms: C_12  and  C_18
REMARK   13  A    between atoms: C_18  and  O_19
REMARK                            x       y       z     vdW  Elec       q    Type
REMARK                         _______ _______ _______ _____ _____    ______ ____
ROOT
ATOM      1  S   UNK     1      36.454 -24.520 -15.047  0.00  0.00    -0.142 S 
ENDROOT
BRANCH   1   2
ATOM      2  C   UNK     1      36.329 -22.750 -15.438  0.00  0.00    +0.057 C 
BRANCH   2   3
ATOM      3  C   UNK     1      37.358 -22.292 -16.472  0.00  0.00    +0.012 C 
BRANCH   3   4
ATOM      4  C   UNK     1      36.735 -21.649 -17.715  0.00  0.00    +0.001 C 
BRANCH   4   5
ATOM      5  C   UNK     1      35.327 -22.192 -17.971  0.00  0.00    +0.000 C 
BRANCH   5   6
ATOM      6  C   UNK     1      34.884 -21.935 -19.413  0.00  0.00    +0.000 C 
BRANCH   6   7
ATOM      7  C   UNK     1      33.420 -21.495 -19.474  0.00  0.00    +0.000 C 
BRANCH   7   8
ATOM      8  C   UNK     1      33.181 -20.296 -20.397  0.00  0.00    +0.000 C 
BRANCH   8   9
ATOM      9  C   UNK     1      34.435 -19.672 -21.014  0.00  0.00    +0.000 C 
ATOM     10  C   UNK     1      34.286 -18.191 -21.327  0.00  0.00    +0.000 C 
ENDBRANCH   8   9
ENDBRANCH   7   8
ENDBRANCH   6   7
ENDBRANCH   5   6
ENDBRANCH   4   5
ENDBRANCH   3   4
ENDBRANCH   2   3
ENDBRANCH   1   2
BRANCH   1  11
ATOM     11  C   UNK     1      37.959 -24.461 -14.049  0.00  0.00    +0.047 C 
BRANCH  11  12
ATOM     12  C   UNK     1      37.696 -24.848 -12.592  0.00  0.00    +0.047 C 
BRANCH  12  13
ATOM     13  N   UNK     1      36.440 -25.595 -12.492  0.00  0.00    +0.389 N 
ATOM     14  H   UNK     1      35.912 -25.267 -11.683  0.00  0.00    -0.088 HD
ATOM     15  H   UNK     1      36.642 -26.589 -12.385  0.00  0.00    -0.088 HD
ATOM     16  H   UNK     1      35.889 -25.449 -13.339  0.00  0.00    -0.088 HD
ENDBRANCH  12  13
BRANCH  12  18
ATOM     17  O   UNK     1      38.142 -22.571 -11.913  0.00  0.00    -0.253 OA
ATOM     18  C   UNK     1      37.581 -23.637 -11.687  0.00  0.00    +0.294 C 
BRANCH  18  19
ATOM     19  O   UNK     1      36.826 -23.850 -10.580  0.00  0.00    -0.482 OA
ATOM     20  H   UNK     1      37.207 -23.759  -9.729  0.00  0.00    +0.295 HD
ENDBRANCH  18  19
ENDBRANCH  12  18
ENDBRANCH  11  12
ENDBRANCH   1  11
TORSDOF 13
ENDMDL
MODEL 6
REMARK VINA RESULT:      -6.2      1.884      2.194
REMARK  Name = 46937099
REMARK  13 active torsions:
REMARK  status: ('A' for Active; 'I' for Inactive)
REMARK    1  A    between atoms: S_1  and  C_2
REMARK    2  A    between atoms: S_1  and  C_11
REMARK    3  A    between atoms: C_2  and  C_3
REMARK    4  A    between atoms: C_3  and  C_4
REMARK    5  A    between atoms: C_4  and  C_5
REMARK    6  A    between atoms: C_5  and  C_6
REMARK    7  A    between atoms: C_6  and  C_7
REMARK    8  A    between atoms: C_7  and  C_8
REMARK    9  A    between atoms: C_8  and  C_9
REMARK   10  A    between atoms: C_11  and  C_12
REMARK   11  A    between atoms: C_12  and  N_13
REMARK   12  A    between atoms: C_12  and  C_18
REMARK   13  A    between atoms: C_18  and  O_19
REMARK                            x       y       z     vdW  Elec       q    Type
REMARK                         _______ _______ _______ _____ _____    ______ ____
ROOT
ATOM      1  S   UNK     1      36.029 -22.827 -15.575  0.00  0.00    -0.142 S 
ENDROOT
BRANCH   1   2
ATOM      2  C   UNK     1      37.191 -21.834 -16.558  0.00  0.00    +0.057 C 
BRANCH   2   3
ATOM      3  C   UNK     1      36.753 -21.668 -18.013  0.00  0.00    +0.012 C 
BRANCH   3   4
ATOM      4  C   UNK     1      35.277 -22.001 -18.253  0.00  0.00    +0.001 C 
BRANCH   4   5
ATOM      5  C   UNK     1      34.898 -21.805 -19.722  0.00  0.00    +0.000 C 
BRANCH   5   6
ATOM      6  C   UNK     1      35.490 -20.509 -20.281  0.00  0.00    +0.000 C 
BRANCH   6   7
ATOM      7  C   UNK     1      34.475 -19.767 -21.153  0.00  0.00    +0.000 C 
BRANCH   7   8
ATOM      8  C   UNK     1      35.123 -18.887 -22.228  0.00  0.00    +0.000 C 
BRANCH   8   9
ATOM      9  C   UNK     1      34.888 -19.325 -23.676  0.00  0.00    +0.000 C 
ATOM     10  C   UNK     1      34.615 -18.167 -24.624  0.00  0.00    +0.000 C 
ENDBRANCH   8   9
ENDBRANCH   7   8
ENDBRANCH   6   7
ENDBRANCH   5   6
ENDBRANCH   4   5
ENDBRANCH   3   4
ENDBRANCH   2   3
ENDBRANCH   1   2
BRANCH   1  11
ATOM     11  C   UNK     1      37.178 -24.114 -15.036  0.00  0.00    +0.047 C 
BRANCH  11  12
ATOM     12  C   UNK     1      36.523 -25.497 -15.025  0.00  0.00    +0.047 C 
BRANCH  12  13
ATOM     13  N   UNK     1      35.206 -25.422 -14.390  0.00  0.00    +0.389 N 
ATOM     14  H   UNK     1      34.686 -26.278 -14.582  0.00  0.00    -0.088 HD
ATOM     15  H   UNK     1      34.693 -24.622 -14.762  0.00  0.00    -0.088 HD
ATOM     16  H   UNK     1      35.320 -25.314 -13.381  0.00  0.00    -0.088 HD
ENDBRANCH  12  13
BRANCH  12  18
ATOM     17  O   UNK     1      38.388 -26.999 -14.681  0.00  0.00    -0.253 OA
ATOM     18  C   UNK     1      37.344 -26.515 -14.256  0.00  0.00    +0.294 C 
BRANCH  18  19
ATOM     19  O   UNK     1      36.801 -26.871 -13.066  0.00  0.00    -0.482 OA
ATOM     20  H   UNK     1      35.934 -26.591 -12.844  0.00  0.00    +0.295 HD
ENDBRANCH  18  19
ENDBRANCH  12  18
ENDBRANCH  11  12
ENDBRANCH   1  11
TORSDOF 13
ENDMDL
MODEL 7
REMARK VINA RESULT:      -6.2      4.353      5.499
REMARK  Name = 46937099
REMARK  13 active torsions:
REMARK  status: ('A' for Active; 'I' for Inactive)
REMARK    1  A    between atoms: S_1  and  C_2
REMARK    2  A    between atoms: S_1  and  C_11
REMARK    3  A    between atoms: C_2  and  C_3
REMARK    4  A    between atoms: C_3  and  C_4
REMARK    5  A    between atoms: C_4  and  C_5
REMARK    6  A    between atoms: C_5  and  C_6
REMARK    7  A    between atoms: C_6  and  C_7
REMARK    8  A    between atoms: C_7  and  C_8
REMARK    9  A    between atoms: C_8  and  C_9
REMARK   10  A    between atoms: C_11  and  C_12
REMARK   11  A    between atoms: C_12  and  N_13
REMARK   12  A    between atoms: C_12  and  C_18
REMARK   13  A    between atoms: C_18  and  O_19
REMARK                            x       y       z     vdW  Elec       q    Type
REMARK                         _______ _______ _______ _____ _____    ______ ____
ROOT
ATOM      1  S   UNK     1      37.918 -24.094 -12.108  0.00  0.00    -0.142 S 
ENDROOT
BRANCH   1   2
ATOM      2  C   UNK     1      36.666 -23.390 -13.220  0.00  0.00    +0.057 C 
BRANCH   2   3
ATOM      3  C   UNK     1      35.348 -24.165 -13.204  0.00  0.00    +0.012 C 
BRANCH   3   4
ATOM      4  C   UNK     1      34.770 -24.423 -14.599  0.00  0.00    +0.001 C 
BRANCH   4   5
ATOM      5  C   UNK     1      34.154 -23.151 -15.185  0.00  0.00    +0.000 C 
BRANCH   5   6
ATOM      6  C   UNK     1      33.071 -23.481 -16.215  0.00  0.00    +0.000 C 
BRANCH   6   7
ATOM      7  C   UNK     1      31.687 -23.062 -15.718  0.00  0.00    +0.000 C 
BRANCH   7   8
ATOM      8  C   UNK     1      31.568 -23.042 -14.190  0.00  0.00    +0.000 C 
BRANCH   8   9
ATOM      9  C   UNK     1      30.878 -24.254 -13.561  0.00  0.00    +0.000 C 
ATOM     10  C   UNK     1      30.304 -25.225 -14.582  0.00  0.00    +0.000 C 
ENDBRANCH   8   9
ENDBRANCH   7   8
ENDBRANCH   6   7
ENDBRANCH   5   6
ENDBRANCH   4   5
ENDBRANCH   3   4
ENDBRANCH   2   3
ENDBRANCH   1   2
BRANCH   1  11
ATOM     11  C   UNK     1      38.368 -25.537 -13.100  0.00  0.00    +0.047 C 
BRANCH  11  12
ATOM     12  C   UNK     1      38.631 -25.167 -14.561  0.00  0.00    +0.047 C 
BRANCH  12  13
ATOM     13  N   UNK     1      37.914 -26.087 -15.446  0.00  0.00    +0.389 N 
ATOM     14  H   UNK     1      37.772 -26.978 -14.970  0.00  0.00    -0.088 HD
ATOM     15  H   UNK     1      38.462 -26.240 -16.294  0.00  0.00    -0.088 HD
ATOM     16  H   UNK     1      37.009 -25.686 -15.694  0.00  0.00    -0.088 HD
ENDBRANCH  12  13
BRANCH  12  18
ATOM     17  O   UNK     1      40.984 -24.695 -14.263  0.00  0.00    -0.253 OA
ATOM     18  C   UNK     1      40.103 -25.243 -14.916  0.00  0.00    +0.294 C 
BRANCH  18  19
ATOM     19  O   UNK     1      40.357 -25.946 -16.048  0.00  0.00    -0.482 OA
ATOM     20  H   UNK     1      39.768 -25.892 -16.776  0.00  0.00    +0.295 HD
ENDBRANCH  18  19
ENDBRANCH  12  18
ENDBRANCH  11  12
ENDBRANCH   1  11
TORSDOF 13
ENDMDL
MODEL 8
REMARK VINA RESULT:      -6.2      8.401     10.758
REMARK  Name = 46937099
REMARK  13 active torsions:
REMARK  status: ('A' for Active; 'I' for Inactive)
REMARK    1  A    between atoms: S_1  and  C_2
REMARK    2  A    between atoms: S_1  and  C_11
REMARK    3  A    between atoms: C_2  and  C_3
REMARK    4  A    between atoms: C_3  and  C_4
REMARK    5  A    between atoms: C_4  and  C_5
REMARK    6  A    between atoms: C_5  and  C_6
REMARK    7  A    between atoms: C_6  and  C_7
REMARK    8  A    between atoms: C_7  and  C_8
REMARK    9  A    between atoms: C_8  and  C_9
REMARK   10  A    between atoms: C_11  and  C_12
REMARK   11  A    between atoms: C_12  and  N_13
REMARK   12  A    between atoms: C_12  and  C_18
REMARK   13  A    between atoms: C_18  and  O_19
REMARK                            x       y       z     vdW  Elec       q    Type
REMARK                         _______ _______ _______ _____ _____    ______ ____
ROOT
ATOM      1  S   UNK     1      33.042 -14.150 -25.234  0.00  0.00    -0.142 S 
ENDROOT
BRANCH   1   2
ATOM      2  C   UNK     1      33.714 -15.758 -25.745  0.00  0.00    +0.057 C 
BRANCH   2   3
ATOM      3  C   UNK     1      34.494 -16.461 -24.634  0.00  0.00    +0.012 C 
BRANCH   3   4
ATOM      4  C   UNK     1      34.583 -17.980 -24.811  0.00  0.00    +0.001 C 
BRANCH   4   5
ATOM      5  C   UNK     1      35.334 -18.629 -23.647  0.00  0.00    +0.000 C 
BRANCH   5   6
ATOM      6  C   UNK     1      35.349 -17.718 -22.417  0.00  0.00    +0.000 C 
BRANCH   6   7
ATOM      7  C   UNK     1      34.901 -18.472 -21.164  0.00  0.00    +0.000 C 
BRANCH   7   8
ATOM      8  C   UNK     1      34.059 -19.715 -21.468  0.00  0.00    +0.000 C 
BRANCH   8   9
ATOM      9  C   UNK     1      33.003 -20.076 -20.421  0.00  0.00    +0.000 C 
ATOM     10  C   UNK     1      33.397 -21.252 -19.540  0.00  0.00    +0.000 C 
ENDBRANCH   8   9
ENDBRANCH   7   8
ENDBRANCH   6   7
ENDBRANCH   5   6
ENDBRANCH   4   5
ENDBRANCH   3   4
ENDBRANCH   2   3
ENDBRANCH   1   2
BRANCH   1  11
ATOM     11  C   UNK     1      33.695 -14.117 -23.549  0.00  0.00    +0.047 C 
BRANCH  11  12
ATOM     12  C   UNK     1      32.599 -14.347 -22.506  0.00  0.00    +0.047 C 
BRANCH  12  13
ATOM     13  N   UNK     1      31.964 -13.074 -22.159  0.00  0.00    +0.389 N 
ATOM     14  H   UNK     1      32.533 -12.303 -22.508  0.00  0.00    -0.088 HD
ATOM     15  H   UNK     1      31.878 -13.002 -21.145  0.00  0.00    -0.088 HD
ATOM     16  H   UNK     1      31.036 -13.031 -22.583  0.00  0.00    -0.088 HD
ENDBRANCH  12  13
BRANCH  12  18
ATOM     17  O   UNK     1      34.232 -14.654 -20.749  0.00  0.00    -0.253 OA
ATOM     18  C   UNK     1      33.143 -14.951 -21.226  0.00  0.00    +0.294 C 
BRANCH  18  19
ATOM     19  O   UNK     1      32.326 -15.881 -20.670  0.00  0.00    -0.482 OA
ATOM     20  H   UNK     1      31.408 -15.872 -20.860  0.00  0.00    +0.295 HD
ENDBRANCH  18  19
ENDBRANCH  12  18
ENDBRANCH  11  12
ENDBRANCH   1  11
TORSDOF 13
ENDMDL
MODEL 9
REMARK VINA RESULT:      -6.1      3.005      3.737
REMARK  Name = 46937099
REMARK  13 active torsions:
REMARK  status: ('A' for Active; 'I' for Inactive)
REMARK    1  A    between atoms: S_1  and  C_2
REMARK    2  A    between atoms: S_1  and  C_11
REMARK    3  A    between atoms: C_2  and  C_3
REMARK    4  A    between atoms: C_3  and  C_4
REMARK    5  A    between atoms: C_4  and  C_5
REMARK    6  A    between atoms: C_5  and  C_6
REMARK    7  A    between atoms: C_6  and  C_7
REMARK    8  A    between atoms: C_7  and  C_8
REMARK    9  A    between atoms: C_8  and  C_9
REMARK   10  A    between atoms: C_11  and  C_12
REMARK   11  A    between atoms: C_12  and  N_13
REMARK   12  A    between atoms: C_12  and  C_18
REMARK   13  A    between atoms: C_18  and  O_19
REMARK                            x       y       z     vdW  Elec       q    Type
REMARK                         _______ _______ _______ _____ _____    ______ ____
ROOT
ATOM      1  S   UNK     1      37.856 -24.714 -14.640  0.00  0.00    -0.142 S 
ENDROOT
BRANCH   1   2
ATOM      2  C   UNK     1      36.123 -24.530 -15.154  0.00  0.00    +0.057 C 
BRANCH   2   3
ATOM      3  C   UNK     1      35.830 -23.172 -15.792  0.00  0.00    +0.012 C 
BRANCH   3   4
ATOM      4  C   UNK     1      37.089 -22.385 -16.169  0.00  0.00    +0.001 C 
BRANCH   4   5
ATOM      5  C   UNK     1      36.945 -21.740 -17.549  0.00  0.00    +0.000 C 
BRANCH   5   6
ATOM      6  C   UNK     1      35.555 -21.989 -18.138  0.00  0.00    +0.000 C 
BRANCH   6   7
ATOM      7  C   UNK     1      35.570 -21.874 -19.663  0.00  0.00    +0.000 C 
BRANCH   7   8
ATOM      8  C   UNK     1      35.396 -20.438 -20.168  0.00  0.00    +0.000 C 
BRANCH   8   9
ATOM      9  C   UNK     1      34.153 -20.179 -21.022  0.00  0.00    +0.000 C 
ATOM     10  C   UNK     1      32.854 -20.213 -20.231  0.00  0.00    +0.000 C 
ENDBRANCH   8   9
ENDBRANCH   7   8
ENDBRANCH   6   7
ENDBRANCH   5   6
ENDBRANCH   4   5
ENDBRANCH   3   4
ENDBRANCH   2   3
ENDBRANCH   1   2
BRANCH   1  11
ATOM     11  C   UNK     1      37.575 -25.034 -12.884  0.00  0.00    +0.047 C 
BRANCH  11  12
ATOM     12  C   UNK     1      36.885 -23.858 -12.191  0.00  0.00    +0.047 C 
BRANCH  12  13
ATOM     13  N   UNK     1      37.880 -23.014 -11.527  0.00  0.00    +0.389 N 
ATOM     14  H   UNK     1      37.606 -22.035 -11.608  0.00  0.00    -0.088 HD
ATOM     15  H   UNK     1      38.791 -23.150 -11.967  0.00  0.00    -0.088 HD
ATOM     16  H   UNK     1      37.939 -23.270 -10.540  0.00  0.00    -0.088 HD
ENDBRANCH  12  13
BRANCH  12  18
ATOM     17  O   UNK     1      34.829 -24.860 -11.403  0.00  0.00    -0.253 OA
ATOM     18  C   UNK     1      35.894 -24.313 -11.137  0.00  0.00    +0.294 C 
BRANCH  18  19
ATOM     19  O   UNK     1      36.277 -24.029  -9.867  0.00  0.00    -0.482 OA
ATOM     20  H   UNK     1      36.916 -24.566  -9.439  0.00  0.00    +0.295 HD
ENDBRANCH  18  19
ENDBRANCH  12  18
ENDBRANCH  11  12
ENDBRANCH   1  11
TORSDOF 13
ENDMDL
