MODEL 1
REMARK VINA RESULT:      -7.7      0.000      0.000
REMARK  Name = 10518
REMARK  2 active torsions:
REMARK  status: ('A' for Active; 'I' for Inactive)
REMARK    1  A    between atoms: C_6  and  C_12
REMARK    2  A    between atoms: C_6  and  C_19
REMARK                            x       y       z     vdW  Elec       q    Type
REMARK                         _______ _______ _______ _____ _____    ______ ____
ROOT
ATOM      1  O   UNL     1      36.836 -22.546 -12.871  0.00  0.00    -0.274 OA
ATOM      2  O   UNL     1      35.932 -26.163 -15.903  0.00  0.00    -0.274 OA
ATOM      3  O   UNL     1      37.438 -26.919 -11.642  0.00  0.00    -0.252 OA
ATOM      4  N   UNL     1      37.122 -24.740 -12.290  0.00  0.00    -0.239 N 
ATOM      5  N   UNL     1      36.683 -26.504 -13.770  0.00  0.00    -0.239 N 
ATOM      6  C   UNL     1      36.284 -24.199 -14.541  0.00  0.00    +0.153 C 
ATOM      7  C   UNL     1      36.771 -23.738 -13.177  0.00  0.00    +0.240 C 
ATOM      8  C   UNL     1      36.283 -25.694 -14.818  0.00  0.00    +0.240 C 
ATOM      9  C   UNL     1      37.103 -26.109 -12.509  0.00  0.00    +0.312 C 
ATOM     10  H   UNL     1      37.420 -24.446 -11.399  0.00  0.00    +0.159 HD
ATOM     11  H   UNL     1      36.669 -27.474 -13.940  0.00  0.00    +0.159 HD
ENDROOT
BRANCH   6  12
ATOM     12  C   UNL     1      34.849 -23.763 -14.626  0.00  0.00    -0.033 C 
ATOM     13  C   UNL     1      34.502 -22.868 -15.790  0.00  0.00    +0.023 C 
ATOM     14  C   UNL     1      33.397 -23.412 -16.696  0.00  0.00    +0.004 C 
ATOM     15  C   UNL     1      31.991 -23.281 -16.118  0.00  0.00    +0.001 C 
ATOM     16  C   UNL     1      31.718 -24.159 -14.899  0.00  0.00    +0.005 C 
ATOM     17  C   UNL     1      33.957 -24.143 -13.695  0.00  0.00    -0.034 C 
ATOM     18  C   UNL     1      32.509 -23.761 -13.656  0.00  0.00    +0.025 C 
ENDBRANCH   6  12
BRANCH   6  19
ATOM     19  C   UNL     1      37.130 -23.512 -15.621  0.00  0.00    +0.021 C 
ATOM     20  C   UNL     1      38.590 -23.887 -15.493  0.00  0.00    +0.001 C 
ENDBRANCH   6  19
TORSDOF 2
ENDMDL
MODEL 2
REMARK VINA RESULT:      -7.0     16.882     18.571
REMARK  Name = 10518
REMARK  2 active torsions:
REMARK  status: ('A' for Active; 'I' for Inactive)
REMARK    1  A    between atoms: C_6  and  C_12
REMARK    2  A    between atoms: C_6  and  C_19
REMARK                            x       y       z     vdW  Elec       q    Type
REMARK                         _______ _______ _______ _____ _____    ______ ____
ROOT
ATOM      1  O   UNL     1      31.488  -8.279 -24.131  0.00  0.00    -0.274 OA
ATOM      2  O   UNL     1      33.122  -7.049 -19.783  0.00  0.00    -0.274 OA
ATOM      3  O   UNL     1      30.100  -4.446 -22.039  0.00  0.00    -0.252 OA
ATOM      4  N   UNL     1      30.814  -6.375 -23.056  0.00  0.00    -0.239 N 
ATOM      5  N   UNL     1      31.613  -5.774 -20.936  0.00  0.00    -0.239 N 
ATOM      6  C   UNL     1      32.410  -7.878 -21.936  0.00  0.00    +0.153 C 
ATOM      7  C   UNL     1      31.547  -7.545 -23.142  0.00  0.00    +0.240 C 
ATOM      8  C   UNL     1      32.431  -6.880 -20.790  0.00  0.00    +0.240 C 
ATOM      9  C   UNL     1      30.795  -5.463 -22.011  0.00  0.00    +0.312 C 
ATOM     10  H   UNL     1      30.239  -6.165 -23.827  0.00  0.00    +0.159 HD
ATOM     11  H   UNL     1      31.611  -5.133 -20.189  0.00  0.00    +0.159 HD
ENDROOT
BRANCH   6  12
ATOM     12  C   UNL     1      31.838  -9.147 -21.368  0.00  0.00    -0.033 C 
ATOM     13  C   UNL     1      31.373 -10.167 -22.378  0.00  0.00    +0.023 C 
ATOM     14  C   UNL     1      32.044 -11.535 -22.246  0.00  0.00    +0.004 C 
ATOM     15  C   UNL     1      31.524 -12.378 -21.085  0.00  0.00    +0.001 C 
ATOM     16  C   UNL     1      31.868 -11.838 -19.699  0.00  0.00    +0.005 C 
ATOM     17  C   UNL     1      31.738  -9.322 -20.040  0.00  0.00    -0.034 C 
ATOM     18  C   UNL     1      31.171 -10.526 -19.352  0.00  0.00    +0.025 C 
ENDBRANCH   6  12
BRANCH   6  19
ATOM     19  C   UNL     1      33.853  -8.094 -22.412  0.00  0.00    +0.021 C 
ATOM     20  C   UNL     1      34.213  -7.128 -23.520  0.00  0.00    +0.001 C 
ENDBRANCH   6  19
TORSDOF 2
ENDMDL
MODEL 3
REMARK VINA RESULT:      -6.8      2.095      3.114
REMARK  Name = 10518
REMARK  2 active torsions:
REMARK  status: ('A' for Active; 'I' for Inactive)
REMARK    1  A    between atoms: C_6  and  C_12
REMARK    2  A    between atoms: C_6  and  C_19
REMARK                            x       y       z     vdW  Elec       q    Type
REMARK                         _______ _______ _______ _____ _____    ______ ____
ROOT
ATOM      1  O   UNL     1      34.513 -24.489 -13.670  0.00  0.00    -0.274 OA
ATOM      2  O   UNL     1      38.709 -23.302 -15.690  0.00  0.00    -0.274 OA
ATOM      3  O   UNL     1      37.554 -27.672 -14.942  0.00  0.00    -0.252 OA
ATOM      4  N   UNL     1      36.053 -26.052 -14.320  0.00  0.00    -0.239 N 
ATOM      5  N   UNL     1      38.100 -25.472 -15.303  0.00  0.00    -0.239 N 
ATOM      6  C   UNL     1      36.537 -23.668 -14.698  0.00  0.00    +0.153 C 
ATOM      7  C   UNL     1      35.607 -24.750 -14.177  0.00  0.00    +0.240 C 
ATOM      8  C   UNL     1      37.876 -24.107 -15.268  0.00  0.00    +0.240 C 
ATOM      9  C   UNL     1      37.256 -26.480 -14.861  0.00  0.00    +0.312 C 
ATOM     10  H   UNL     1      35.445 -26.757 -14.000  0.00  0.00    +0.159 HD
ATOM     11  H   UNL     1      38.960 -25.762 -15.686  0.00  0.00    +0.159 HD
ENDROOT
BRANCH   6  12
ATOM     12  C   UNL     1      35.800 -23.014 -15.833  0.00  0.00    -0.033 C 
ATOM     13  C   UNL     1      36.425 -21.756 -16.383  0.00  0.00    +0.023 C 
ATOM     14  C   UNL     1      36.743 -21.812 -17.877  0.00  0.00    +0.004 C 
ATOM     15  C   UNL     1      35.524 -21.658 -18.783  0.00  0.00    +0.001 C 
ATOM     16  C   UNL     1      34.539 -22.823 -18.732  0.00  0.00    +0.005 C 
ATOM     17  C   UNL     1      34.647 -23.529 -16.292  0.00  0.00    -0.034 C 
ATOM     18  C   UNL     1      33.810 -22.963 -17.398  0.00  0.00    +0.025 C 
ENDBRANCH   6  12
BRANCH   6  19
ATOM     19  C   UNL     1      36.803 -22.664 -13.568  0.00  0.00    +0.021 C 
ATOM     20  C   UNL     1      37.460 -23.337 -12.382  0.00  0.00    +0.001 C 
ENDBRANCH   6  19
TORSDOF 2
ENDMDL
MODEL 4
REMARK VINA RESULT:      -6.7      1.510      2.149
REMARK  Name = 10518
REMARK  2 active torsions:
REMARK  status: ('A' for Active; 'I' for Inactive)
REMARK    1  A    between atoms: C_6  and  C_12
REMARK    2  A    between atoms: C_6  and  C_19
REMARK                            x       y       z     vdW  Elec       q    Type
REMARK                         _______ _______ _______ _____ _____    ______ ____
ROOT
ATOM      1  O   UNL     1      35.652 -25.352 -11.707  0.00  0.00    -0.274 OA
ATOM      2  O   UNL     1      37.705 -22.996 -15.357  0.00  0.00    -0.274 OA
ATOM      3  O   UNL     1      38.275 -27.506 -14.785  0.00  0.00    -0.252 OA
ATOM      4  N   UNL     1      36.964 -26.396 -13.264  0.00  0.00    -0.239 N 
ATOM      5  N   UNL     1      37.967 -25.246 -15.042  0.00  0.00    -0.239 N 
ATOM      6  C   UNL     1      36.551 -23.978 -13.477  0.00  0.00    +0.153 C 
ATOM      7  C   UNL     1      36.343 -25.283 -12.726  0.00  0.00    +0.240 C 
ATOM      8  C   UNL     1      37.454 -24.008 -14.699  0.00  0.00    +0.240 C 
ATOM      9  C   UNL     1      37.769 -26.454 -14.391  0.00  0.00    +0.312 C 
ATOM     10  H   UNL     1      36.818 -27.247 -12.790  0.00  0.00    +0.159 HD
ATOM     11  H   UNL     1      38.540 -25.273 -15.843  0.00  0.00    +0.159 HD
ENDROOT
BRANCH   6  12
ATOM     12  C   UNL     1      35.191 -23.581 -13.979  0.00  0.00    -0.033 C 
ATOM     13  C   UNL     1      35.172 -22.768 -15.250  0.00  0.00    +0.023 C 
ATOM     14  C   UNL     1      34.360 -23.392 -16.385  0.00  0.00    +0.004 C 
ATOM     15  C   UNL     1      32.848 -23.258 -16.221  0.00  0.00    +0.001 C 
ATOM     16  C   UNL     1      32.257 -24.065 -15.068  0.00  0.00    +0.005 C 
ATOM     17  C   UNL     1      34.081 -23.924 -13.303  0.00  0.00    -0.034 C 
ATOM     18  C   UNL     1      32.676 -23.573 -13.685  0.00  0.00    +0.025 C 
ENDBRANCH   6  12
BRANCH   6  19
ATOM     19  C   UNL     1      37.101 -22.931 -12.499  0.00  0.00    +0.021 C 
ATOM     20  C   UNL     1      38.396 -23.397 -11.871  0.00  0.00    +0.001 C 
ENDBRANCH   6  19
TORSDOF 2
ENDMDL
MODEL 5
REMARK VINA RESULT:      -6.6      8.812     10.167
REMARK  Name = 10518
REMARK  2 active torsions:
REMARK  status: ('A' for Active; 'I' for Inactive)
REMARK    1  A    between atoms: C_6  and  C_12
REMARK    2  A    between atoms: C_6  and  C_19
REMARK                            x       y       z     vdW  Elec       q    Type
REMARK                         _______ _______ _______ _____ _____    ______ ____
ROOT
ATOM      1  O   UNL     1      37.532 -18.155 -22.448  0.00  0.00    -0.274 OA
ATOM      2  O   UNL     1      32.867 -19.084 -21.767  0.00  0.00    -0.274 OA
ATOM      3  O   UNL     1      36.106 -21.010 -19.161  0.00  0.00    -0.252 OA
ATOM      4  N   UNL     1      36.784 -19.572 -20.814  0.00  0.00    -0.239 N 
ATOM      5  N   UNL     1      34.509 -20.027 -20.484  0.00  0.00    -0.239 N 
ATOM      6  C   UNL     1      35.142 -18.445 -22.262  0.00  0.00    +0.153 C 
ATOM      7  C   UNL     1      36.588 -18.700 -21.871  0.00  0.00    +0.240 C 
ATOM      8  C   UNL     1      34.065 -19.203 -21.504  0.00  0.00    +0.240 C 
ATOM      9  C   UNL     1      35.819 -20.254 -20.090  0.00  0.00    +0.312 C 
ATOM     10  H   UNL     1      37.719 -19.726 -20.546  0.00  0.00    +0.159 HD
ATOM     11  H   UNL     1      33.813 -20.508 -19.980  0.00  0.00    +0.159 HD
ENDROOT
BRANCH   6  12
ATOM     12  C   UNL     1      34.899 -16.989 -21.979  0.00  0.00    -0.033 C 
ATOM     13  C   UNL     1      34.852 -16.084 -23.185  0.00  0.00    +0.023 C 
ATOM     14  C   UNL     1      33.551 -15.294 -23.330  0.00  0.00    +0.004 C 
ATOM     15  C   UNL     1      33.429 -14.108 -22.378  0.00  0.00    +0.001 C 
ATOM     16  C   UNL     1      33.286 -14.483 -20.906  0.00  0.00    +0.005 C 
ATOM     17  C   UNL     1      34.759 -16.548 -20.718  0.00  0.00    -0.034 C 
ATOM     18  C   UNL     1      34.533 -15.126 -20.303  0.00  0.00    +0.025 C 
ENDBRANCH   6  12
BRANCH   6  19
ATOM     19  C   UNL     1      34.978 -18.746 -23.758  0.00  0.00    +0.021 C 
ATOM     20  C   UNL     1      35.205 -20.214 -24.048  0.00  0.00    +0.001 C 
ENDBRANCH   6  19
TORSDOF 2
ENDMDL
MODEL 6
REMARK VINA RESULT:      -6.6      1.554      1.873
REMARK  Name = 10518
REMARK  2 active torsions:
REMARK  status: ('A' for Active; 'I' for Inactive)
REMARK    1  A    between atoms: C_6  and  C_12
REMARK    2  A    between atoms: C_6  and  C_19
REMARK                            x       y       z     vdW  Elec       q    Type
REMARK                         _______ _______ _______ _____ _____    ______ ____
ROOT
ATOM      1  O   UNL     1      35.063 -23.486 -11.982  0.00  0.00    -0.274 OA
ATOM      2  O   UNL     1      34.837 -24.626 -16.645  0.00  0.00    -0.274 OA
ATOM      3  O   UNL     1      37.106 -27.237 -13.640  0.00  0.00    -0.252 OA
ATOM      4  N   UNL     1      36.068 -25.353 -12.844  0.00  0.00    -0.239 N 
ATOM      5  N   UNL     1      35.959 -25.907 -15.118  0.00  0.00    -0.239 N 
ATOM      6  C   UNL     1      34.787 -23.883 -14.348  0.00  0.00    +0.153 C 
ATOM      7  C   UNL     1      35.310 -24.200 -12.957  0.00  0.00    +0.240 C 
ATOM      8  C   UNL     1      35.188 -24.816 -15.479  0.00  0.00    +0.240 C 
ATOM      9  C   UNL     1      36.423 -26.234 -13.853  0.00  0.00    +0.312 C 
ATOM     10  H   UNL     1      36.393 -25.572 -11.941  0.00  0.00    +0.159 HD
ATOM     11  H   UNL     1      36.208 -26.523 -15.846  0.00  0.00    +0.159 HD
ENDROOT
BRANCH   6  12
ATOM     12  C   UNL     1      33.291 -23.975 -14.247  0.00  0.00    -0.033 C 
ATOM     13  C   UNL     1      32.521 -22.811 -14.821  0.00  0.00    +0.023 C 
ATOM     14  C   UNL     1      31.519 -23.194 -15.910  0.00  0.00    +0.004 C 
ATOM     15  C   UNL     1      30.240 -23.840 -15.386  0.00  0.00    +0.001 C 
ATOM     16  C   UNL     1      30.429 -25.226 -14.775  0.00  0.00    +0.005 C 
ATOM     17  C   UNL     1      32.704 -25.030 -13.657  0.00  0.00    -0.034 C 
ATOM     18  C   UNL     1      31.230 -25.230 -13.476  0.00  0.00    +0.025 C 
ENDBRANCH   6  12
BRANCH   6  19
ATOM     19  C   UNL     1      35.224 -22.460 -14.722  0.00  0.00    +0.021 C 
ATOM     20  C   UNL     1      36.679 -22.426 -15.136  0.00  0.00    +0.001 C 
ENDBRANCH   6  19
TORSDOF 2
ENDMDL
MODEL 7
REMARK VINA RESULT:      -6.5      1.966      3.603
REMARK  Name = 10518
REMARK  2 active torsions:
REMARK  status: ('A' for Active; 'I' for Inactive)
REMARK    1  A    between atoms: C_6  and  C_12
REMARK    2  A    between atoms: C_6  and  C_19
REMARK                            x       y       z     vdW  Elec       q    Type
REMARK                         _______ _______ _______ _____ _____    ______ ____
ROOT
ATOM      1  O   UNL     1      36.469 -26.676 -15.661  0.00  0.00    -0.274 OA
ATOM      2  O   UNL     1      37.970 -23.117 -12.803  0.00  0.00    -0.274 OA
ATOM      3  O   UNL     1      40.923 -25.756 -15.107  0.00  0.00    -0.252 OA
ATOM      4  N   UNL     1      38.684 -26.186 -15.364  0.00  0.00    -0.239 N 
ATOM      5  N   UNL     1      39.416 -24.452 -13.968  0.00  0.00    -0.239 N 
ATOM      6  C   UNL     1      36.993 -24.821 -14.208  0.00  0.00    +0.153 C 
ATOM      7  C   UNL     1      37.336 -25.976 -15.133  0.00  0.00    +0.240 C 
ATOM      8  C   UNL     1      38.147 -24.051 -13.587  0.00  0.00    +0.240 C 
ATOM      9  C   UNL     1      39.754 -25.482 -14.832  0.00  0.00    +0.312 C 
ATOM     10  H   UNL     1      38.910 -26.923 -15.977  0.00  0.00    +0.159 HD
ATOM     11  H   UNL     1      40.167 -23.946 -13.580  0.00  0.00    +0.159 HD
ENDROOT
BRANCH   6  12
ATOM     12  C   UNL     1      36.248 -23.830 -15.059  0.00  0.00    -0.033 C 
ATOM     13  C   UNL     1      37.032 -22.617 -15.493  0.00  0.00    +0.023 C 
ATOM     14  C   UNL     1      37.105 -22.423 -17.007  0.00  0.00    +0.004 C 
ATOM     15  C   UNL     1      35.825 -21.876 -17.632  0.00  0.00    +0.001 C 
ATOM     16  C   UNL     1      34.638 -22.835 -17.598  0.00  0.00    +0.005 C 
ATOM     17  C   UNL     1      34.958 -24.030 -15.376  0.00  0.00    -0.034 C 
ATOM     18  C   UNL     1      34.102 -23.113 -16.196  0.00  0.00    +0.025 C 
ENDBRANCH   6  12
BRANCH   6  19
ATOM     19  C   UNL     1      36.102 -25.348 -13.075  0.00  0.00    +0.021 C 
ATOM     20  C   UNL     1      36.910 -26.135 -12.066  0.00  0.00    +0.001 C 
ENDBRANCH   6  19
TORSDOF 2
ENDMDL
MODEL 8
REMARK VINA RESULT:      -6.3     18.664     20.224
REMARK  Name = 10518
REMARK  2 active torsions:
REMARK  status: ('A' for Active; 'I' for Inactive)
REMARK    1  A    between atoms: C_6  and  C_12
REMARK    2  A    between atoms: C_6  and  C_19
REMARK                            x       y       z     vdW  Elec       q    Type
REMARK                         _______ _______ _______ _____ _____    ______ ____
ROOT
ATOM      1  O   UNL     1      30.605  -8.242 -23.328  0.00  0.00    -0.274 OA
ATOM      2  O   UNL     1      35.266  -7.073 -23.377  0.00  0.00    -0.274 OA
ATOM      3  O   UNL     1      33.848 -11.336 -24.278  0.00  0.00    -0.252 OA
ATOM      4  N   UNL     1      32.250  -9.760 -23.802  0.00  0.00    -0.239 N 
ATOM      5  N   UNL     1      34.523  -9.190 -23.823  0.00  0.00    -0.239 N 
ATOM      6  C   UNL     1      32.877  -7.425 -23.333  0.00  0.00    +0.153 C 
ATOM      7  C   UNL     1      31.804  -8.491 -23.477  0.00  0.00    +0.240 C 
ATOM      8  C   UNL     1      34.324  -7.859 -23.502  0.00  0.00    +0.240 C 
ATOM      9  C   UNL     1      33.561 -10.174 -23.988  0.00  0.00    +0.312 C 
ATOM     10  H   UNL     1      31.556 -10.450 -23.913  0.00  0.00    +0.159 HD
ATOM     11  H   UNL     1      35.459  -9.471 -23.949  0.00  0.00    +0.159 HD
ENDROOT
BRANCH   6  12
ATOM     12  C   UNL     1      32.612  -6.436 -24.432  0.00  0.00    -0.033 C 
ATOM     13  C   UNL     1      31.228  -5.835 -24.456  0.00  0.00    +0.023 C 
ATOM     14  C   UNL     1      31.201  -4.310 -24.372  0.00  0.00    +0.004 C 
ATOM     15  C   UNL     1      31.580  -3.604 -25.672  0.00  0.00    +0.001 C 
ATOM     16  C   UNL     1      33.040  -3.768 -26.086  0.00  0.00    +0.005 C 
ATOM     17  C   UNL     1      33.561  -6.141 -25.337  0.00  0.00    -0.034 C 
ATOM     18  C   UNL     1      33.416  -5.192 -26.487  0.00  0.00    +0.025 C 
ENDBRANCH   6  12
BRANCH   6  19
ATOM     19  C   UNL     1      32.731  -6.765 -21.955  0.00  0.00    +0.021 C 
ATOM     20  C   UNL     1      32.881  -7.781 -20.844  0.00  0.00    +0.001 C 
ENDBRANCH   6  19
TORSDOF 2
ENDMDL
MODEL 9
REMARK VINA RESULT:      -6.1     17.369     19.065
REMARK  Name = 10518
REMARK  2 active torsions:
REMARK  status: ('A' for Active; 'I' for Inactive)
REMARK    1  A    between atoms: C_6  and  C_12
REMARK    2  A    between atoms: C_6  and  C_19
REMARK                            x       y       z     vdW  Elec       q    Type
REMARK                         _______ _______ _______ _____ _____    ______ ____
ROOT
ATOM      1  O   UNL     1      34.985  -7.902 -22.793  0.00  0.00    -0.274 OA
ATOM      2  O   UNL     1      30.219  -7.702 -23.377  0.00  0.00    -0.274 OA
ATOM      3  O   UNL     1      33.062  -5.197 -25.953  0.00  0.00    -0.252 OA
ATOM      4  N   UNL     1      33.992  -6.566 -24.363  0.00  0.00    -0.239 N 
ATOM      5  N   UNL     1      31.667  -6.467 -24.645  0.00  0.00    -0.239 N 
ATOM      6  C   UNL     1      32.576  -7.989 -22.936  0.00  0.00    +0.153 C 
ATOM      7  C   UNL     1      33.956  -7.494 -23.336  0.00  0.00    +0.240 C 
ATOM      8  C   UNL     1      31.378  -7.385 -23.651  0.00  0.00    +0.240 C 
ATOM      9  C   UNL     1      32.917  -6.021 -25.049  0.00  0.00    +0.312 C 
ATOM     10  H   UNL     1      34.885  -6.256 -24.638  0.00  0.00    +0.159 HD
ATOM     11  H   UNL     1      30.894  -6.085 -25.122  0.00  0.00    +0.159 HD
ENDROOT
BRANCH   6  12
ATOM     12  C   UNL     1      32.561  -9.454 -23.270  0.00  0.00    -0.033 C 
ATOM     13  C   UNL     1      33.043  -9.817 -24.653  0.00  0.00    +0.023 C 
ATOM     14  C   UNL     1      34.215 -10.797 -24.674  0.00  0.00    +0.004 C 
ATOM     15  C   UNL     1      33.828 -12.244 -24.379  0.00  0.00    +0.001 C 
ATOM     16  C   UNL     1      33.363 -12.501 -22.948  0.00  0.00    +0.005 C 
ATOM     17  C   UNL     1      32.118 -10.358 -22.380  0.00  0.00    -0.034 C 
ATOM     18  C   UNL     1      32.033 -11.838 -22.598  0.00  0.00    +0.025 C 
ENDBRANCH   6  12
BRANCH   6  19
ATOM     19  C   UNL     1      32.396  -7.769 -21.428  0.00  0.00    +0.021 C 
ATOM     20  C   UNL     1      32.202  -6.303 -21.108  0.00  0.00    +0.001 C 
ENDBRANCH   6  19
TORSDOF 2
ENDMDL
