MODEL 1
REMARK VINA RESULT:     -10.3      0.000      0.000
REMARK  Name = 9576912
REMARK  8 active torsions:
REMARK  status: ('A' for Active; 'I' for Inactive)
REMARK    1  A    between atoms: N_1  and  C1*_14
REMARK    2  A    between atoms: N_4  and  N_27
REMARK    3  A    between atoms: C2*_13  and  O2*_17
REMARK    4  A    between atoms: C3*_15  and  O3*_19
REMARK    5  A    between atoms: C4*_16  and  C5*_21
REMARK    6  A    between atoms: C5*_21  and  O5*_22
REMARK    7  A    between atoms: N_27  and  C_28
REMARK    8  A    between atoms: C_28  and  C_29
REMARK                            x       y       z     vdW  Elec       q    Type
REMARK                         _______ _______ _______ _____ _____    ______ ____
ROOT
ATOM      1  N   UNL     1      34.839 -24.334 -14.363  0.00  0.00    -0.236 N 
ATOM      2  N   UNL     1      33.001 -23.795 -13.224  0.00  0.00    -0.240 NA
ATOM      3  N   UNL     1      34.097 -23.825 -16.619  0.00  0.00    -0.310 NA
ATOM      4  N   UNL     1      33.028 -23.225 -18.613  0.00  0.00    -0.186 N 
ATOM      5  N   UNL     1      31.800 -22.997 -16.631  0.00  0.00    -0.311 NA
ATOM      6  C   UNL     1      33.931 -23.908 -15.291  0.00  0.00    +0.221 C 
ATOM      7  C   UNL     1      34.233 -24.248 -13.138  0.00  0.00    +0.224 C 
ATOM      8  C   UNL     1      32.798 -23.578 -14.564  0.00  0.00    +0.167 C 
ATOM      9  C   UNL     1      31.705 -23.106 -15.283  0.00  0.00    +0.212 C 
ATOM     10  C   UNL     1      32.974 -23.357 -17.217  0.00  0.00    +0.217 C 
ATOM     11  H   UNL     1      32.239 -22.896 -19.101  0.00  0.00    +0.182 HD
ATOM     12  N   UNL     1      30.514 -22.746 -14.628  0.00  0.00    -0.331 N 
ATOM     13  H   UNL     1      29.747 -22.414 -15.148  0.00  0.00    +0.145 HD
ATOM     14  H   UNL     1      30.448 -22.827 -13.649  0.00  0.00    +0.145 HD
ENDROOT
BRANCH   1  17
ATOM     15  O4* UNL     1      36.718 -25.457 -13.447  0.00  0.00    -0.333 OA
ATOM     16  C2* UNL     1      37.183 -23.685 -14.949  0.00  0.00    +0.187 C 
ATOM     17  C1* UNL     1      36.201 -24.798 -14.620  0.00  0.00    +0.226 C 
ATOM     18  C3* UNL     1      38.500 -24.314 -14.537  0.00  0.00    +0.171 C 
ATOM     19  C4* UNL     1      38.110 -25.095 -13.286  0.00  0.00    +0.175 C 
BRANCH  16  20
ATOM     20  O2* UNL     1      37.142 -23.335 -16.317  0.00  0.00    -0.378 OA
ATOM     21  H2* UNL     1      37.156 -24.140 -16.858  0.00  0.00    +0.211 HD
ENDBRANCH  16  20
BRANCH  18  22
ATOM     22  O3* UNL     1      38.923 -25.235 -15.542  0.00  0.00    -0.379 OA
ATOM     23  H3* UNL     1      38.833 -26.141 -15.210  0.00  0.00    +0.211 HD
ENDBRANCH  18  22
BRANCH  19  24
ATOM     24  C5* UNL     1      38.249 -24.279 -12.009  0.00  0.00    +0.169 C 
BRANCH  24  25
ATOM     25  O5* UNL     1      37.164 -24.589 -11.152  0.00  0.00    -0.379 OA
ATOM     26  H5* UNL     1      36.845 -23.778 -10.726  0.00  0.00    +0.211 HD
ENDBRANCH  24  25
ENDBRANCH  19  24
ENDBRANCH   1  17
BRANCH   4  27
ATOM     27  N   UNL     1      34.148 -23.541 -19.292  0.00  0.00    -0.123 NA
BRANCH  27  28
ATOM     28  C   UNL     1      34.622 -22.563 -19.990  0.00  0.00    +0.112 C 
BRANCH  28  29
ATOM     29  C   UNL     1      34.725 -21.186 -19.401  0.00  0.00    +0.019 C 
ATOM     30  C   UNL     1      33.903 -20.197 -20.229  0.00  0.00    +0.001 C 
ATOM     31  C   UNL     1      36.186 -20.762 -19.250  0.00  0.00    +0.001 C 
ATOM     32  C   UNL     1      34.580 -19.809 -21.543  0.00  0.00    +0.000 C 
ATOM     33  C   UNL     1      36.840 -20.350 -20.570  0.00  0.00    +0.000 C 
ATOM     34  C   UNL     1      36.005 -19.317 -21.318  0.00  0.00    +0.000 C 
ENDBRANCH  28  29
ENDBRANCH  27  28
ENDBRANCH   4  27
TORSDOF 8
ENDMDL
MODEL 2
REMARK VINA RESULT:     -10.1      1.455      2.123
REMARK  Name = 9576912
REMARK  8 active torsions:
REMARK  status: ('A' for Active; 'I' for Inactive)
REMARK    1  A    between atoms: N_1  and  C1*_14
REMARK    2  A    between atoms: N_4  and  N_27
REMARK    3  A    between atoms: C2*_13  and  O2*_17
REMARK    4  A    between atoms: C3*_15  and  O3*_19
REMARK    5  A    between atoms: C4*_16  and  C5*_21
REMARK    6  A    between atoms: C5*_21  and  O5*_22
REMARK    7  A    between atoms: N_27  and  C_28
REMARK    8  A    between atoms: C_28  and  C_29
REMARK                            x       y       z     vdW  Elec       q    Type
REMARK                         _______ _______ _______ _____ _____    ______ ____
ROOT
ATOM      1  N   UNL     1      34.432 -23.743 -14.755  0.00  0.00    -0.236 N 
ATOM      2  N   UNL     1      32.257 -23.787 -14.271  0.00  0.00    -0.240 NA
ATOM      3  N   UNL     1      34.328 -23.076 -17.088  0.00  0.00    -0.310 NA
ATOM      4  N   UNL     1      33.819 -22.432 -19.280  0.00  0.00    -0.186 N 
ATOM      5  N   UNL     1      32.019 -22.770 -17.820  0.00  0.00    -0.311 NA
ATOM      6  C   UNL     1      33.783 -23.390 -15.903  0.00  0.00    +0.221 C 
ATOM      7  C   UNL     1      33.473 -23.972 -13.804  0.00  0.00    +0.224 C 
ATOM      8  C   UNL     1      32.435 -23.423 -15.582  0.00  0.00    +0.167 C 
ATOM      9  C   UNL     1      31.539 -23.096 -16.595  0.00  0.00    +0.212 C 
ATOM     10  C   UNL     1      33.368 -22.778 -17.997  0.00  0.00    +0.217 C 
ATOM     11  H   UNL     1      33.167 -22.212 -19.983  0.00  0.00    +0.182 HD
ATOM     12  N   UNL     1      30.153 -23.102 -16.359  0.00  0.00    -0.331 N 
ATOM     13  H   UNL     1      29.529 -22.870 -17.083  0.00  0.00    +0.145 HD
ATOM     14  H   UNL     1      29.807 -23.340 -15.468  0.00  0.00    +0.145 HD
ENDROOT
BRANCH   1  17
ATOM     15  O4* UNL     1      36.430 -24.724 -15.577  0.00  0.00    -0.333 OA
ATOM     16  C2* UNL     1      36.281 -24.457 -13.228  0.00  0.00    +0.187 C 
ATOM     17  C1* UNL     1      35.877 -23.859 -14.566  0.00  0.00    +0.226 C 
ATOM     18  C3* UNL     1      37.647 -25.027 -13.553  0.00  0.00    +0.171 C 
ATOM     19  C4* UNL     1      37.452 -25.551 -14.972  0.00  0.00    +0.175 C 
BRANCH  16  20
ATOM     20  O2* UNL     1      36.317 -23.483 -12.205  0.00  0.00    -0.378 OA
ATOM     21  H2* UNL     1      37.010 -23.711 -11.565  0.00  0.00    +0.211 HD
ENDBRANCH  16  20
BRANCH  18  22
ATOM     22  O3* UNL     1      38.609 -23.972 -13.580  0.00  0.00    -0.379 OA
ATOM     23  H3* UNL     1      38.242 -23.211 -14.055  0.00  0.00    +0.211 HD
ENDBRANCH  18  22
BRANCH  19  24
ATOM     24  C5* UNL     1      36.983 -26.999 -15.011  0.00  0.00    +0.169 C 
BRANCH  24  25
ATOM     25  O5* UNL     1      36.738 -27.361 -16.358  0.00  0.00    -0.379 OA
ATOM     26  H5* UNL     1      36.384 -28.263 -16.392  0.00  0.00    +0.211 HD
ENDBRANCH  24  25
ENDBRANCH  19  24
ENDBRANCH   1  17
BRANCH   4  27
ATOM     27  N   UNL     1      35.137 -22.395 -19.560  0.00  0.00    -0.123 NA
BRANCH  27  28
ATOM     28  C   UNL     1      35.449 -21.525 -20.461  0.00  0.00    +0.112 C 
BRANCH  28  29
ATOM     29  C   UNL     1      35.164 -20.067 -20.243  0.00  0.00    +0.019 C 
ATOM     30  C   UNL     1      34.101 -19.586 -21.233  0.00  0.00    +0.001 C 
ATOM     31  C   UNL     1      36.449 -19.241 -20.307  0.00  0.00    +0.001 C 
ATOM     32  C   UNL     1      34.645 -19.385 -22.645  0.00  0.00    +0.000 C 
ATOM     33  C   UNL     1      36.964 -19.025 -21.731  0.00  0.00    +0.000 C 
ATOM     34  C   UNL     1      35.877 -18.487 -22.652  0.00  0.00    +0.000 C 
ENDBRANCH  28  29
ENDBRANCH  27  28
ENDBRANCH   4  27
TORSDOF 8
ENDMDL
MODEL 3
REMARK VINA RESULT:     -10.1      1.289      1.534
REMARK  Name = 9576912
REMARK  8 active torsions:
REMARK  status: ('A' for Active; 'I' for Inactive)
REMARK    1  A    between atoms: N_1  and  C1*_14
REMARK    2  A    between atoms: N_4  and  N_27
REMARK    3  A    between atoms: C2*_13  and  O2*_17
REMARK    4  A    between atoms: C3*_15  and  O3*_19
REMARK    5  A    between atoms: C4*_16  and  C5*_21
REMARK    6  A    between atoms: C5*_21  and  O5*_22
REMARK    7  A    between atoms: N_27  and  C_28
REMARK    8  A    between atoms: C_28  and  C_29
REMARK                            x       y       z     vdW  Elec       q    Type
REMARK                         _______ _______ _______ _____ _____    ______ ____
ROOT
ATOM      1  N   UNL     1      34.840 -24.190 -15.320  0.00  0.00    -0.236 N 
ATOM      2  N   UNL     1      32.720 -24.212 -14.631  0.00  0.00    -0.240 NA
ATOM      3  N   UNL     1      34.576 -23.049 -17.448  0.00  0.00    -0.310 NA
ATOM      4  N   UNL     1      33.922 -21.937 -19.401  0.00  0.00    -0.186 N 
ATOM      5  N   UNL     1      32.240 -22.469 -17.859  0.00  0.00    -0.311 NA
ATOM      6  C   UNL     1      34.118 -23.570 -16.300  0.00  0.00    +0.221 C 
ATOM      7  C   UNL     1      33.956 -24.557 -14.340  0.00  0.00    +0.224 C 
ATOM      8  C   UNL     1      32.806 -23.594 -15.854  0.00  0.00    +0.167 C 
ATOM      9  C   UNL     1      31.850 -23.015 -16.681  0.00  0.00    +0.212 C 
ATOM     10  C   UNL     1      33.563 -22.515 -18.174  0.00  0.00    +0.217 C 
ATOM     11  H   UNL     1      33.226 -21.540 -19.973  0.00  0.00    +0.182 HD
ATOM     12  N   UNL     1      30.494 -22.992 -16.308  0.00  0.00    -0.331 N 
ATOM     13  H   UNL     1      29.826 -22.580 -16.902  0.00  0.00    +0.145 HD
ATOM     14  H   UNL     1      30.213 -23.390 -15.452  0.00  0.00    +0.145 HD
ENDROOT
BRANCH   1  17
ATOM     15  O4* UNL     1      36.586 -25.551 -14.466  0.00  0.00    -0.333 OA
ATOM     16  C2* UNL     1      37.096 -23.258 -14.770  0.00  0.00    +0.187 C 
ATOM     17  C1* UNL     1      36.283 -24.423 -15.310  0.00  0.00    +0.226 C 
ATOM     18  C3* UNL     1      38.350 -23.962 -14.291  0.00  0.00    +0.171 C 
ATOM     19  C4* UNL     1      37.796 -25.265 -13.726  0.00  0.00    +0.175 C 
BRANCH  16  20
ATOM     20  O2* UNL     1      37.351 -22.287 -15.764  0.00  0.00    -0.378 OA
ATOM     21  H2* UNL     1      38.040 -21.679 -15.453  0.00  0.00    +0.211 HD
ENDBRANCH  16  20
BRANCH  18  22
ATOM     22  O3* UNL     1      39.183 -24.262 -15.411  0.00  0.00    -0.379 OA
ATOM     23  H3* UNL     1      39.613 -23.450 -15.722  0.00  0.00    +0.211 HD
ENDBRANCH  18  22
BRANCH  19  24
ATOM     24  C5* UNL     1      37.443 -25.169 -12.248  0.00  0.00    +0.169 C 
BRANCH  24  25
ATOM     25  O5* UNL     1      36.612 -26.265 -11.907  0.00  0.00    -0.379 OA
ATOM     26  H5* UNL     1      36.895 -26.633 -11.056  0.00  0.00    +0.211 HD
ENDBRANCH  24  25
ENDBRANCH  19  24
ENDBRANCH   1  17
BRANCH   4  27
ATOM     27  N   UNL     1      35.207 -21.917 -19.803  0.00  0.00    -0.123 NA
BRANCH  27  28
ATOM     28  C   UNL     1      35.426 -21.116 -20.792  0.00  0.00    +0.112 C 
BRANCH  28  29
ATOM     29  C   UNL     1      34.973 -19.686 -20.730  0.00  0.00    +0.019 C 
ATOM     30  C   UNL     1      33.952 -19.409 -21.836  0.00  0.00    +0.001 C 
ATOM     31  C   UNL     1      36.165 -18.729 -20.771  0.00  0.00    +0.001 C 
ATOM     32  C   UNL     1      34.591 -19.266 -23.216  0.00  0.00    +0.000 C 
ATOM     33  C   UNL     1      36.773 -18.575 -22.166  0.00  0.00    +0.000 C 
ATOM     34  C   UNL     1      35.717 -18.239 -23.212  0.00  0.00    +0.000 C 
ENDBRANCH  28  29
ENDBRANCH  27  28
ENDBRANCH   4  27
TORSDOF 8
ENDMDL
MODEL 4
REMARK VINA RESULT:      -9.7      2.264      5.277
REMARK  Name = 9576912
REMARK  8 active torsions:
REMARK  status: ('A' for Active; 'I' for Inactive)
REMARK    1  A    between atoms: N_1  and  C1*_14
REMARK    2  A    between atoms: N_4  and  N_27
REMARK    3  A    between atoms: C2*_13  and  O2*_17
REMARK    4  A    between atoms: C3*_15  and  O3*_19
REMARK    5  A    between atoms: C4*_16  and  C5*_21
REMARK    6  A    between atoms: C5*_21  and  O5*_22
REMARK    7  A    between atoms: N_27  and  C_28
REMARK    8  A    between atoms: C_28  and  C_29
REMARK                            x       y       z     vdW  Elec       q    Type
REMARK                         _______ _______ _______ _____ _____    ______ ____
ROOT
ATOM      1  N   UNL     1      36.275 -22.856 -15.348  0.00  0.00    -0.236 N 
ATOM      2  N   UNL     1      37.573 -21.973 -16.929  0.00  0.00    -0.240 NA
ATOM      3  N   UNL     1      34.168 -22.968 -16.551  0.00  0.00    -0.310 NA
ATOM      4  N   UNL     1      32.350 -22.913 -18.024  0.00  0.00    -0.186 N 
ATOM      5  N   UNL     1      34.400 -22.112 -18.826  0.00  0.00    -0.311 NA
ATOM      6  C   UNL     1      35.472 -22.677 -16.439  0.00  0.00    +0.221 C 
ATOM      7  C   UNL     1      37.526 -22.419 -15.692  0.00  0.00    +0.224 C 
ATOM      8  C   UNL     1      36.297 -22.129 -17.409  0.00  0.00    +0.167 C 
ATOM      9  C   UNL     1      35.716 -21.845 -18.640  0.00  0.00    +0.212 C 
ATOM     10  C   UNL     1      33.708 -22.651 -17.787  0.00  0.00    +0.217 C 
ATOM     11  H   UNL     1      31.959 -22.696 -18.901  0.00  0.00    +0.182 HD
ATOM     12  N   UNL     1      36.477 -21.289 -19.683  0.00  0.00    -0.331 N 
ATOM     13  H   UNL     1      36.056 -21.092 -20.551  0.00  0.00    +0.145 HD
ATOM     14  H   UNL     1      37.433 -21.096 -19.546  0.00  0.00    +0.145 HD
ENDROOT
BRANCH   1  17
ATOM     15  O4* UNL     1      36.735 -22.878 -13.020  0.00  0.00    -0.333 OA
ATOM     16  C2* UNL     1      35.997 -24.922 -13.963  0.00  0.00    +0.187 C 
ATOM     17  C1* UNL     1      35.881 -23.408 -14.053  0.00  0.00    +0.226 C 
ATOM     18  C3* UNL     1      36.165 -25.123 -12.470  0.00  0.00    +0.171 C 
ATOM     19  C4* UNL     1      37.034 -23.933 -12.077  0.00  0.00    +0.175 C 
BRANCH  16  20
ATOM     20  O2* UNL     1      34.854 -25.569 -14.484  0.00  0.00    -0.378 OA
ATOM     21  H2* UNL     1      35.128 -26.231 -15.138  0.00  0.00    +0.211 HD
ENDBRANCH  16  20
BRANCH  18  22
ATOM     22  O3* UNL     1      34.895 -24.998 -11.828  0.00  0.00    -0.379 OA
ATOM     23  H3* UNL     1      34.316 -24.431 -12.362  0.00  0.00    +0.211 HD
ENDBRANCH  18  22
BRANCH  19  24
ATOM     24  C5* UNL     1      38.524 -24.236 -12.153  0.00  0.00    +0.169 C 
BRANCH  24  25
ATOM     25  O5* UNL     1      39.239 -23.134 -11.621  0.00  0.00    -0.379 OA
ATOM     26  H5* UNL     1      39.295 -22.432 -12.288  0.00  0.00    +0.211 HD
ENDBRANCH  24  25
ENDBRANCH  19  24
ENDBRANCH   1  17
BRANCH   4  27
ATOM     27  N   UNL     1      31.575 -23.458 -17.066  0.00  0.00    -0.123 NA
BRANCH  27  28
ATOM     28  C   UNL     1      30.534 -22.751 -16.779  0.00  0.00    +0.112 C 
BRANCH  28  29
ATOM     29  C   UNL     1      29.928 -22.809 -15.407  0.00  0.00    +0.019 C 
ATOM     30  C   UNL     1      31.016 -22.643 -14.344  0.00  0.00    +0.001 C 
ATOM     31  C   UNL     1      29.108 -24.086 -15.222  0.00  0.00    +0.001 C 
ATOM     32  C   UNL     1      31.858 -23.903 -14.149  0.00  0.00    +0.000 C 
ATOM     33  C   UNL     1      29.966 -25.333 -14.999  0.00  0.00    +0.000 C 
ATOM     34  C   UNL     1      30.988 -25.127 -13.887  0.00  0.00    +0.000 C 
ENDBRANCH  28  29
ENDBRANCH  27  28
ENDBRANCH   4  27
TORSDOF 8
ENDMDL
MODEL 5
REMARK VINA RESULT:      -9.5      1.463      2.191
REMARK  Name = 9576912
REMARK  8 active torsions:
REMARK  status: ('A' for Active; 'I' for Inactive)
REMARK    1  A    between atoms: N_1  and  C1*_14
REMARK    2  A    between atoms: N_4  and  N_27
REMARK    3  A    between atoms: C2*_13  and  O2*_17
REMARK    4  A    between atoms: C3*_15  and  O3*_19
REMARK    5  A    between atoms: C4*_16  and  C5*_21
REMARK    6  A    between atoms: C5*_21  and  O5*_22
REMARK    7  A    between atoms: N_27  and  C_28
REMARK    8  A    between atoms: C_28  and  C_29
REMARK                            x       y       z     vdW  Elec       q    Type
REMARK                         _______ _______ _______ _____ _____    ______ ____
ROOT
ATOM      1  N   UNL     1      34.158 -23.878 -14.574  0.00  0.00    -0.236 N 
ATOM      2  N   UNL     1      31.952 -23.890 -14.252  0.00  0.00    -0.240 NA
ATOM      3  N   UNL     1      34.239 -23.135 -16.885  0.00  0.00    -0.310 NA
ATOM      4  N   UNL     1      33.907 -22.409 -19.084  0.00  0.00    -0.186 N 
ATOM      5  N   UNL     1      31.997 -22.755 -17.772  0.00  0.00    -0.311 NA
ATOM      6  C   UNL     1      33.602 -23.474 -15.754  0.00  0.00    +0.221 C 
ATOM      7  C   UNL     1      33.127 -24.117 -13.704  0.00  0.00    +0.224 C 
ATOM      8  C   UNL     1      32.233 -23.488 -15.534  0.00  0.00    +0.167 C 
ATOM      9  C   UNL     1      31.422 -23.109 -16.598  0.00  0.00    +0.212 C 
ATOM     10  C   UNL     1      33.355 -22.786 -17.851  0.00  0.00    +0.217 C 
ATOM     11  H   UNL     1      33.312 -22.153 -19.826  0.00  0.00    +0.182 HD
ATOM     12  N   UNL     1      30.022 -23.093 -16.464  0.00  0.00    -0.331 N 
ATOM     13  H   UNL     1      29.458 -22.823 -17.224  0.00  0.00    +0.145 HD
ATOM     14  H   UNL     1      29.607 -23.351 -15.609  0.00  0.00    +0.145 HD
ENDROOT
BRANCH   1  17
ATOM     15  O4* UNL     1      36.262 -22.783 -14.515  0.00  0.00    -0.333 OA
ATOM     16  C2* UNL     1      36.284 -25.064 -15.152  0.00  0.00    +0.187 C 
ATOM     17  C1* UNL     1      35.582 -24.032 -14.284  0.00  0.00    +0.226 C 
ATOM     18  C3* UNL     1      37.717 -24.573 -15.106  0.00  0.00    +0.171 C 
ATOM     19  C4* UNL     1      37.542 -23.058 -15.131  0.00  0.00    +0.175 C 
BRANCH  16  20
ATOM     20  O2* UNL     1      36.131 -26.373 -14.642  0.00  0.00    -0.378 OA
ATOM     21  H2* UNL     1      37.006 -26.771 -14.505  0.00  0.00    +0.211 HD
ENDBRANCH  16  20
BRANCH  18  22
ATOM     22  O3* UNL     1      38.309 -24.948 -13.862  0.00  0.00    -0.379 OA
ATOM     23  H3* UNL     1      37.660 -24.839 -13.149  0.00  0.00    +0.211 HD
ENDBRANCH  18  22
BRANCH  19  24
ATOM     24  C5* UNL     1      37.528 -22.485 -16.542  0.00  0.00    +0.169 C 
BRANCH  24  25
ATOM     25  O5* UNL     1      36.743 -21.306 -16.545  0.00  0.00    -0.379 OA
ATOM     26  H5* UNL     1      36.662 -20.969 -15.639  0.00  0.00    +0.211 HD
ENDBRANCH  24  25
ENDBRANCH  19  24
ENDBRANCH   1  17
BRANCH   4  27
ATOM     27  N   UNL     1      35.242 -22.393 -19.266  0.00  0.00    -0.123 NA
BRANCH  27  28
ATOM     28  C   UNL     1      35.630 -21.552 -20.166  0.00  0.00    +0.112 C 
BRANCH  28  29
ATOM     29  C   UNL     1      35.375 -20.082 -19.997  0.00  0.00    +0.019 C 
ATOM     30  C   UNL     1      34.243 -19.634 -20.923  0.00  0.00    +0.001 C 
ATOM     31  C   UNL     1      36.659 -19.276 -20.199  0.00  0.00    +0.001 C 
ATOM     32  C   UNL     1      34.678 -19.507 -22.382  0.00  0.00    +0.000 C 
ATOM     33  C   UNL     1      37.064 -19.134 -21.666  0.00  0.00    +0.000 C 
ATOM     34  C   UNL     1      35.913 -18.626 -22.526  0.00  0.00    +0.000 C 
ENDBRANCH  28  29
ENDBRANCH  27  28
ENDBRANCH   4  27
TORSDOF 8
ENDMDL
MODEL 6
REMARK VINA RESULT:      -9.4      2.858      4.955
REMARK  Name = 9576912
REMARK  8 active torsions:
REMARK  status: ('A' for Active; 'I' for Inactive)
REMARK    1  A    between atoms: N_1  and  C1*_14
REMARK    2  A    between atoms: N_4  and  N_27
REMARK    3  A    between atoms: C2*_13  and  O2*_17
REMARK    4  A    between atoms: C3*_15  and  O3*_19
REMARK    5  A    between atoms: C4*_16  and  C5*_21
REMARK    6  A    between atoms: C5*_21  and  O5*_22
REMARK    7  A    between atoms: N_27  and  C_28
REMARK    8  A    between atoms: C_28  and  C_29
REMARK                            x       y       z     vdW  Elec       q    Type
REMARK                         _______ _______ _______ _____ _____    ______ ____
ROOT
ATOM      1  N   UNL     1      33.759 -23.466 -14.401  0.00  0.00    -0.236 N 
ATOM      2  N   UNL     1      35.139 -24.525 -13.008  0.00  0.00    -0.240 NA
ATOM      3  N   UNL     1      35.376 -22.474 -15.918  0.00  0.00    -0.310 NA
ATOM      4  N   UNL     1      37.216 -21.703 -17.141  0.00  0.00    -0.186 N 
ATOM      5  N   UNL     1      37.661 -23.047 -15.276  0.00  0.00    -0.311 NA
ATOM      6  C   UNL     1      35.022 -23.210 -14.854  0.00  0.00    +0.221 C 
ATOM      7  C   UNL     1      33.882 -24.259 -13.291  0.00  0.00    +0.224 C 
ATOM      8  C   UNL     1      35.863 -23.876 -13.976  0.00  0.00    +0.167 C 
ATOM      9  C   UNL     1      37.230 -23.776 -14.218  0.00  0.00    +0.212 C 
ATOM     10  C   UNL     1      36.724 -22.445 -16.057  0.00  0.00    +0.217 C 
ATOM     11  H   UNL     1      38.187 -21.640 -17.288  0.00  0.00    +0.182 HD
ATOM     12  N   UNL     1      38.157 -24.420 -13.379  0.00  0.00    -0.331 N 
ATOM     13  H   UNL     1      39.121 -24.342 -13.560  0.00  0.00    +0.145 HD
ATOM     14  H   UNL     1      37.841 -24.949 -12.611  0.00  0.00    +0.145 HD
ENDROOT
BRANCH   1  17
ATOM     15  O4* UNL     1      31.459 -23.044 -13.994  0.00  0.00    -0.333 OA
ATOM     16  C2* UNL     1      32.018 -23.810 -16.165  0.00  0.00    +0.187 C 
ATOM     17  C1* UNL     1      32.506 -22.988 -14.983  0.00  0.00    +0.226 C 
ATOM     18  C3* UNL     1      30.528 -23.532 -16.130  0.00  0.00    +0.171 C 
ATOM     19  C4* UNL     1      30.240 -23.489 -14.634  0.00  0.00    +0.175 C 
BRANCH  16  20
ATOM     20  O2* UNL     1      32.628 -23.407 -17.374  0.00  0.00    -0.378 OA
ATOM     21  H2* UNL     1      33.413 -23.954 -17.538  0.00  0.00    +0.211 HD
ENDBRANCH  16  20
BRANCH  18  22
ATOM     22  O3* UNL     1      30.272 -22.242 -16.686  0.00  0.00    -0.379 OA
ATOM     23  H3* UNL     1      29.359 -21.980 -16.489  0.00  0.00    +0.211 HD
ENDBRANCH  18  22
BRANCH  19  24
ATOM     24  C5* UNL     1      29.867 -24.850 -14.061  0.00  0.00    +0.169 C 
BRANCH  24  25
ATOM     25  O5* UNL     1      30.444 -24.974 -12.773  0.00  0.00    -0.379 OA
ATOM     26  H5* UNL     1      30.545 -24.094 -12.377  0.00  0.00    +0.211 HD
ENDBRANCH  24  25
ENDBRANCH  19  24
ENDBRANCH   1  17
BRANCH   4  27
ATOM     27  N   UNL     1      36.373 -21.076 -17.986  0.00  0.00    -0.123 NA
BRANCH  27  28
ATOM     28  C   UNL     1      36.844 -20.944 -19.181  0.00  0.00    +0.112 C 
BRANCH  28  29
ATOM     29  C   UNL     1      36.068 -21.442 -20.366  0.00  0.00    +0.019 C 
ATOM     30  C   UNL     1      35.765 -20.286 -21.321  0.00  0.00    +0.001 C 
ATOM     31  C   UNL     1      34.810 -22.190 -19.923  0.00  0.00    +0.001 C 
ATOM     32  C   UNL     1      34.641 -19.378 -20.823  0.00  0.00    +0.000 C 
ATOM     33  C   UNL     1      33.685 -21.265 -19.456  0.00  0.00    +0.000 C 
ATOM     34  C   UNL     1      33.388 -20.173 -20.475  0.00  0.00    +0.000 C 
ENDBRANCH  28  29
ENDBRANCH  27  28
ENDBRANCH   4  27
TORSDOF 8
ENDMDL
MODEL 7
REMARK VINA RESULT:      -9.4      2.158      5.297
REMARK  Name = 9576912
REMARK  8 active torsions:
REMARK  status: ('A' for Active; 'I' for Inactive)
REMARK    1  A    between atoms: N_1  and  C1*_14
REMARK    2  A    between atoms: N_4  and  N_27
REMARK    3  A    between atoms: C2*_13  and  O2*_17
REMARK    4  A    between atoms: C3*_15  and  O3*_19
REMARK    5  A    between atoms: C4*_16  and  C5*_21
REMARK    6  A    between atoms: C5*_21  and  O5*_22
REMARK    7  A    between atoms: N_27  and  C_28
REMARK    8  A    between atoms: C_28  and  C_29
REMARK                            x       y       z     vdW  Elec       q    Type
REMARK                         _______ _______ _______ _____ _____    ______ ____
ROOT
ATOM      1  N   UNL     1      36.713 -23.090 -15.467  0.00  0.00    -0.236 N 
ATOM      2  N   UNL     1      37.422 -22.069 -17.317  0.00  0.00    -0.240 NA
ATOM      3  N   UNL     1      34.352 -23.316 -15.993  0.00  0.00    -0.310 NA
ATOM      4  N   UNL     1      32.177 -23.349 -16.854  0.00  0.00    -0.186 N 
ATOM      5  N   UNL     1      33.840 -22.379 -18.188  0.00  0.00    -0.311 NA
ATOM      6  C   UNL     1      35.611 -22.936 -16.259  0.00  0.00    +0.221 C 
ATOM      7  C   UNL     1      37.775 -22.553 -16.146  0.00  0.00    +0.224 C 
ATOM      8  C   UNL     1      36.072 -22.301 -17.402  0.00  0.00    +0.167 C 
ATOM      9  C   UNL     1      35.132 -22.024 -18.390  0.00  0.00    +0.212 C 
ATOM     10  C   UNL     1      33.525 -22.997 -17.018  0.00  0.00    +0.217 C 
ATOM     11  H   UNL     1      31.528 -23.135 -17.563  0.00  0.00    +0.182 HD
ATOM     12  N   UNL     1      35.511 -21.383 -19.583  0.00  0.00    -0.331 N 
ATOM     13  H   UNL     1      34.837 -21.192 -20.274  0.00  0.00    +0.145 HD
ATOM     14  H   UNL     1      36.450 -21.126 -19.726  0.00  0.00    +0.145 HD
ENDROOT
BRANCH   1  17
ATOM     15  O4* UNL     1      38.104 -23.645 -13.627  0.00  0.00    -0.333 OA
ATOM     16  C2* UNL     1      36.368 -25.176 -14.129  0.00  0.00    +0.187 C 
ATOM     17  C1* UNL     1      36.760 -23.707 -14.143  0.00  0.00    +0.226 C 
ATOM     18  C3* UNL     1      37.089 -25.668 -12.890  0.00  0.00    +0.171 C 
ATOM     19  C4* UNL     1      38.397 -24.885 -12.942  0.00  0.00    +0.175 C 
BRANCH  16  20
ATOM     20  O2* UNL     1      34.967 -25.346 -14.058  0.00  0.00    -0.378 OA
ATOM     21  H2* UNL     1      34.540 -24.479 -13.960  0.00  0.00    +0.211 HD
ENDBRANCH  16  20
BRANCH  18  22
ATOM     22  O3* UNL     1      36.361 -25.274 -11.727  0.00  0.00    -0.379 OA
ATOM     23  H3* UNL     1      36.924 -25.369 -10.944  0.00  0.00    +0.211 HD
ENDBRANCH  18  22
BRANCH  19  24
ATOM     24  C5* UNL     1      39.493 -25.610 -13.709  0.00  0.00    +0.169 C 
BRANCH  24  25
ATOM     25  O5* UNL     1      40.562 -24.708 -13.934  0.00  0.00    -0.379 OA
ATOM     26  H5* UNL     1      41.256 -25.150 -14.448  0.00  0.00    +0.211 HD
ENDBRANCH  24  25
ENDBRANCH  19  24
ENDBRANCH   1  17
BRANCH   4  27
ATOM     27  N   UNL     1      31.759 -23.977 -15.737  0.00  0.00    -0.123 NA
BRANCH  27  28
ATOM     28  C   UNL     1      31.210 -23.187 -14.876  0.00  0.00    +0.112 C 
BRANCH  28  29
ATOM     29  C   UNL     1      29.767 -23.356 -14.498  0.00  0.00    +0.019 C 
ATOM     30  C   UNL     1      29.286 -24.760 -14.870  0.00  0.00    +0.001 C 
ATOM     31  C   UNL     1      28.906 -22.253 -15.115  0.00  0.00    +0.001 C 
ATOM     32  C   UNL     1      29.033 -24.929 -16.366  0.00  0.00    +0.000 C 
ATOM     33  C   UNL     1      28.638 -22.454 -16.608  0.00  0.00    +0.000 C 
ATOM     34  C   UNL     1      28.103 -23.849 -16.906  0.00  0.00    +0.000 C 
ENDBRANCH  28  29
ENDBRANCH  27  28
ENDBRANCH   4  27
TORSDOF 8
ENDMDL
MODEL 8
REMARK VINA RESULT:      -9.3      3.160      5.166
REMARK  Name = 9576912
REMARK  8 active torsions:
REMARK  status: ('A' for Active; 'I' for Inactive)
REMARK    1  A    between atoms: N_1  and  C1*_14
REMARK    2  A    between atoms: N_4  and  N_27
REMARK    3  A    between atoms: C2*_13  and  O2*_17
REMARK    4  A    between atoms: C3*_15  and  O3*_19
REMARK    5  A    between atoms: C4*_16  and  C5*_21
REMARK    6  A    between atoms: C5*_21  and  O5*_22
REMARK    7  A    between atoms: N_27  and  C_28
REMARK    8  A    between atoms: C_28  and  C_29
REMARK                            x       y       z     vdW  Elec       q    Type
REMARK                         _______ _______ _______ _____ _____    ______ ____
ROOT
ATOM      1  N   UNL     1      33.797 -23.172 -15.290  0.00  0.00    -0.236 N 
ATOM      2  N   UNL     1      35.569 -24.037 -14.251  0.00  0.00    -0.240 NA
ATOM      3  N   UNL     1      34.891 -22.151 -17.202  0.00  0.00    -0.310 NA
ATOM      4  N   UNL     1      36.292 -21.314 -18.880  0.00  0.00    -0.186 N 
ATOM      5  N   UNL     1      37.306 -22.508 -17.137  0.00  0.00    -0.311 NA
ATOM      6  C   UNL     1      34.880 -22.847 -16.056  0.00  0.00    +0.221 C 
ATOM      7  C   UNL     1      34.262 -23.886 -14.217  0.00  0.00    +0.224 C 
ATOM      8  C   UNL     1      35.969 -23.393 -15.395  0.00  0.00    +0.167 C 
ATOM      9  C   UNL     1      37.218 -23.203 -15.978  0.00  0.00    +0.212 C 
ATOM     10  C   UNL     1      36.154 -22.026 -17.678  0.00  0.00    +0.217 C 
ATOM     11  H   UNL     1      37.187 -21.186 -19.269  0.00  0.00    +0.182 HD
ATOM     12  N   UNL     1      38.378 -23.723 -15.377  0.00  0.00    -0.331 N 
ATOM     13  H   UNL     1      39.256 -23.582 -15.798  0.00  0.00    +0.145 HD
ATOM     14  H   UNL     1      38.311 -24.228 -14.534  0.00  0.00    +0.145 HD
ENDROOT
BRANCH   1  17
ATOM     15  O4* UNL     1      31.578 -23.258 -14.452  0.00  0.00    -0.333 OA
ATOM     16  C2* UNL     1      31.825 -23.485 -16.797  0.00  0.00    +0.187 C 
ATOM     17  C1* UNL     1      32.402 -22.827 -15.554  0.00  0.00    +0.226 C 
ATOM     18  C3* UNL     1      30.344 -23.493 -16.475  0.00  0.00    +0.171 C 
ATOM     19  C4* UNL     1      30.338 -23.787 -14.978  0.00  0.00    +0.175 C 
BRANCH  16  20
ATOM     20  O2* UNL     1      32.132 -22.757 -17.969  0.00  0.00    -0.378 OA
ATOM     21  H2* UNL     1      32.786 -23.248 -18.492  0.00  0.00    +0.211 HD
ENDBRANCH  16  20
BRANCH  18  22
ATOM     22  O3* UNL     1      29.803 -22.189 -16.690  0.00  0.00    -0.379 OA
ATOM     23  H3* UNL     1      29.278 -22.187 -17.506  0.00  0.00    +0.211 HD
ENDBRANCH  18  22
BRANCH  19  24
ATOM     24  C5* UNL     1      30.281 -25.276 -14.666  0.00  0.00    +0.169 C 
BRANCH  24  25
ATOM     25  O5* UNL     1      28.949 -25.618 -14.329  0.00  0.00    -0.379 OA
ATOM     26  H5* UNL     1      28.336 -25.007 -14.767  0.00  0.00    +0.211 HD
ENDBRANCH  24  25
ENDBRANCH  19  24
ENDBRANCH   1  17
BRANCH   4  27
ATOM     27  N   UNL     1      35.214 -20.806 -19.507  0.00  0.00    -0.123 NA
BRANCH  27  28
ATOM     28  C   UNL     1      35.504 -20.136 -20.573  0.00  0.00    +0.112 C 
BRANCH  28  29
ATOM     29  C   UNL     1      34.416 -19.585 -21.447  0.00  0.00    +0.019 C 
ATOM     30  C   UNL     1      34.901 -19.491 -22.895  0.00  0.00    +0.001 C 
ATOM     31  C   UNL     1      33.900 -18.251 -20.908  0.00  0.00    +0.001 C 
ATOM     32  C   UNL     1      35.845 -18.314 -23.134  0.00  0.00    +0.000 C 
ATOM     33  C   UNL     1      34.843 -17.078 -21.181  0.00  0.00    +0.000 C 
ATOM     34  C   UNL     1      35.241 -17.000 -22.650  0.00  0.00    +0.000 C 
ENDBRANCH  28  29
ENDBRANCH  27  28
ENDBRANCH   4  27
TORSDOF 8
ENDMDL
MODEL 9
REMARK VINA RESULT:      -9.3      2.967      7.099
REMARK  Name = 9576912
REMARK  8 active torsions:
REMARK  status: ('A' for Active; 'I' for Inactive)
REMARK    1  A    between atoms: N_1  and  C1*_14
REMARK    2  A    between atoms: N_4  and  N_27
REMARK    3  A    between atoms: C2*_13  and  O2*_17
REMARK    4  A    between atoms: C3*_15  and  O3*_19
REMARK    5  A    between atoms: C4*_16  and  C5*_21
REMARK    6  A    between atoms: C5*_21  and  O5*_22
REMARK    7  A    between atoms: N_27  and  C_28
REMARK    8  A    between atoms: C_28  and  C_29
REMARK                            x       y       z     vdW  Elec       q    Type
REMARK                         _______ _______ _______ _____ _____    ______ ____
ROOT
ATOM      1  N   UNL     1      33.048 -23.340 -16.444  0.00  0.00    -0.236 N 
ATOM      2  N   UNL     1      33.683 -22.461 -18.391  0.00  0.00    -0.240 NA
ATOM      3  N   UNL     1      35.147 -23.219 -15.226  0.00  0.00    -0.310 NA
ATOM      4  N   UNL     1      37.317 -22.934 -14.399  0.00  0.00    -0.186 N 
ATOM      5  N   UNL     1      36.913 -22.243 -16.601  0.00  0.00    -0.311 NA
ATOM      6  C   UNL     1      34.372 -23.034 -16.306  0.00  0.00    +0.221 C 
ATOM      7  C   UNL     1      32.681 -22.978 -17.713  0.00  0.00    +0.224 C 
ATOM      8  C   UNL     1      34.747 -22.490 -17.525  0.00  0.00    +0.167 C 
ATOM      9  C   UNL     1      36.072 -22.086 -17.652  0.00  0.00    +0.212 C 
ATOM     10  C   UNL     1      36.412 -22.793 -15.462  0.00  0.00    +0.217 C 
ATOM     11  H   UNL     1      38.252 -22.649 -14.515  0.00  0.00    +0.182 HD
ATOM     12  N   UNL     1      36.540 -21.521 -18.852  0.00  0.00    -0.331 N 
ATOM     13  H   UNL     1      37.479 -21.239 -18.930  0.00  0.00    +0.145 HD
ATOM     14  H   UNL     1      35.927 -21.409 -19.614  0.00  0.00    +0.145 HD
ENDROOT
BRANCH   1  17
ATOM     15  O4* UNL     1      30.879 -24.194 -16.002  0.00  0.00    -0.333 OA
ATOM     16  C2* UNL     1      31.947 -23.067 -14.214  0.00  0.00    +0.187 C 
ATOM     17  C1* UNL     1      32.179 -23.943 -15.435  0.00  0.00    +0.226 C 
ATOM     18  C3* UNL     1      30.617 -23.594 -13.713  0.00  0.00    +0.171 C 
ATOM     19  C4* UNL     1      29.871 -23.881 -15.012  0.00  0.00    +0.175 C 
BRANCH  16  20
ATOM     20  O2* UNL     1      32.987 -23.199 -13.266  0.00  0.00    -0.378 OA
ATOM     21  H2* UNL     1      33.841 -23.238 -13.726  0.00  0.00    +0.211 HD
ENDBRANCH  16  20
BRANCH  18  22
ATOM     22  O3* UNL     1      30.824 -24.825 -13.019  0.00  0.00    -0.379 OA
ATOM     23  H3* UNL     1      30.664 -25.568 -13.622  0.00  0.00    +0.211 HD
ENDBRANCH  18  22
BRANCH  19  24
ATOM     24  C5* UNL     1      29.064 -22.690 -15.509  0.00  0.00    +0.169 C 
BRANCH  24  25
ATOM     25  O5* UNL     1      29.347 -22.491 -16.883  0.00  0.00    -0.379 OA
ATOM     26  H5* UNL     1      28.648 -22.897 -17.419  0.00  0.00    +0.211 HD
ENDBRANCH  24  25
ENDBRANCH  19  24
ENDBRANCH   1  17
BRANCH   4  27
ATOM     27  N   UNL     1      36.921 -23.455 -13.221  0.00  0.00    -0.123 NA
BRANCH  27  28
ATOM     28  C   UNL     1      37.901 -23.810 -12.459  0.00  0.00    +0.112 C 
BRANCH  28  29
ATOM     29  C   UNL     1      38.303 -25.253 -12.356  0.00  0.00    +0.019 C 
ATOM     30  C   UNL     1      39.471 -25.543 -13.300  0.00  0.00    +0.001 C 
ATOM     31  C   UNL     1      37.106 -26.175 -12.594  0.00  0.00    +0.001 C 
ATOM     32  C   UNL     1      39.046 -25.648 -14.763  0.00  0.00    +0.000 C 
ATOM     33  C   UNL     1      36.712 -26.291 -14.067  0.00  0.00    +0.000 C 
ATOM     34  C   UNL     1      37.905 -26.642 -14.948  0.00  0.00    +0.000 C 
ENDBRANCH  28  29
ENDBRANCH  27  28
ENDBRANCH   4  27
TORSDOF 8
ENDMDL
