MODEL 1
REMARK VINA RESULT:      -7.8      0.000      0.000
REMARK  Name = 2368
REMARK  2 active torsions:
REMARK  status: ('A' for Active; 'I' for Inactive)
REMARK    1  A    between atoms: N_1  and  C_9
REMARK    2  A    between atoms: C_9  and  C_10
REMARK                            x       y       z     vdW  Elec       q    Type
REMARK                         _______ _______ _______ _____ _____    ______ ____
ROOT
ATOM      1  N   UNL     1      35.864 -18.130 -22.693  0.00  0.00    -0.341 N 
ATOM      2  N   UNL     1      34.978 -16.694 -24.312  0.00  0.00    -0.343 N 
ATOM      3  N   UNL     1      35.017 -15.972 -22.090  0.00  0.00    -0.238 NA
ATOM      4  C   UNL     1      35.281 -16.898 -22.972  0.00  0.00    +0.195 C 
ATOM      5  C   UNL     1      34.630 -17.745 -25.242  0.00  0.00    +0.124 C 
ATOM      6  C   UNL     1      34.403 -14.737 -22.554  0.00  0.00    +0.155 C 
ATOM      7  H   UNL     1      36.005 -18.731 -23.461  0.00  0.00    +0.164 HD
ATOM      8  H   UNL     1      35.001 -15.771 -24.652  0.00  0.00    +0.163 HD
ENDROOT
BRANCH   1   9
ATOM      9  C   UNL     1      36.288 -18.628 -21.404  0.00  0.00    +0.127 C 
BRANCH   9  10
ATOM     10  C   UNL     1      35.282 -19.581 -20.812  0.00  0.00    -0.000 C 
ATOM     11  C   UNL     1      33.927 -19.336 -20.984  0.00  0.00    -0.002 C 
ATOM     12  C   UNL     1      35.725 -20.689 -20.105  0.00  0.00    -0.002 C 
ATOM     13  C   UNL     1      32.995 -20.218 -20.435  0.00  0.00    -0.000 C 
ATOM     14  C   UNL     1      34.794 -21.572 -19.558  0.00  0.00    -0.000 C 
ATOM     15  C   UNL     1      33.429 -21.336 -19.723  0.00  0.00    -0.000 C 
ENDBRANCH   9  10
ENDBRANCH   1   9
TORSDOF 2
ENDMDL
MODEL 2
REMARK VINA RESULT:      -7.7      0.717      2.303
REMARK  Name = 2368
REMARK  2 active torsions:
REMARK  status: ('A' for Active; 'I' for Inactive)
REMARK    1  A    between atoms: N_1  and  C_9
REMARK    2  A    between atoms: C_9  and  C_10
REMARK                            x       y       z     vdW  Elec       q    Type
REMARK                         _______ _______ _______ _____ _____    ______ ____
ROOT
ATOM      1  N   UNL     1      35.296 -17.429 -21.651  0.00  0.00    -0.341 N 
ATOM      2  N   UNL     1      34.167 -15.663 -22.688  0.00  0.00    -0.343 N 
ATOM      3  N   UNL     1      35.001 -17.386 -24.028  0.00  0.00    -0.238 NA
ATOM      4  C   UNL     1      34.840 -16.869 -22.841  0.00  0.00    +0.195 C 
ATOM      5  C   UNL     1      34.428 -14.706 -21.637  0.00  0.00    +0.124 C 
ATOM      6  C   UNL     1      34.459 -16.666 -25.170  0.00  0.00    +0.155 C 
ATOM      7  H   UNL     1      35.100 -16.926 -20.827  0.00  0.00    +0.164 HD
ATOM      8  H   UNL     1      33.463 -15.446 -23.341  0.00  0.00    +0.163 HD
ENDROOT
BRANCH   1   9
ATOM      9  C   UNL     1      36.024 -18.667 -21.487  0.00  0.00    +0.127 C 
BRANCH   9  10
ATOM     10  C   UNL     1      35.200 -19.713 -20.783  0.00  0.00    -0.000 C 
ATOM     11  C   UNL     1      35.838 -20.727 -20.082  0.00  0.00    -0.002 C 
ATOM     12  C   UNL     1      33.815 -19.647 -20.845  0.00  0.00    -0.002 C 
ATOM     13  C   UNL     1      35.074 -21.695 -19.430  0.00  0.00    -0.000 C 
ATOM     14  C   UNL     1      33.052 -20.615 -20.192  0.00  0.00    -0.000 C 
ATOM     15  C   UNL     1      33.682 -21.639 -19.484  0.00  0.00    -0.000 C 
ENDBRANCH   9  10
ENDBRANCH   1   9
TORSDOF 2
ENDMDL
MODEL 3
REMARK VINA RESULT:      -7.7      0.680      1.868
REMARK  Name = 2368
REMARK  2 active torsions:
REMARK  status: ('A' for Active; 'I' for Inactive)
REMARK    1  A    between atoms: N_1  and  C_9
REMARK    2  A    between atoms: C_9  and  C_10
REMARK                            x       y       z     vdW  Elec       q    Type
REMARK                         _______ _______ _______ _____ _____    ______ ____
ROOT
ATOM      1  N   UNL     1      35.293 -17.409 -21.739  0.00  0.00    -0.341 N 
ATOM      2  N   UNL     1      34.170 -15.678 -22.839  0.00  0.00    -0.343 N 
ATOM      3  N   UNL     1      34.998 -17.450 -24.116  0.00  0.00    -0.238 NA
ATOM      4  C   UNL     1      34.839 -16.890 -22.949  0.00  0.00    +0.195 C 
ATOM      5  C   UNL     1      34.435 -14.684 -21.823  0.00  0.00    +0.124 C 
ATOM      6  C   UNL     1      34.458 -16.770 -25.284  0.00  0.00    +0.155 C 
ATOM      7  H   UNL     1      35.099 -16.876 -20.934  0.00  0.00    +0.164 HD
ATOM      8  H   UNL     1      33.466 -15.482 -23.500  0.00  0.00    +0.163 HD
ENDROOT
BRANCH   1   9
ATOM      9  C   UNL     1      36.017 -18.643 -21.532  0.00  0.00    +0.127 C 
BRANCH   9  10
ATOM     10  C   UNL     1      35.178 -19.672 -20.821  0.00  0.00    -0.000 C 
ATOM     11  C   UNL     1      33.794 -19.584 -20.877  0.00  0.00    -0.002 C 
ATOM     12  C   UNL     1      35.802 -20.695 -20.120  0.00  0.00    -0.002 C 
ATOM     13  C   UNL     1      33.018 -20.537 -20.218  0.00  0.00    -0.000 C 
ATOM     14  C   UNL     1      35.025 -21.649 -19.462  0.00  0.00    -0.000 C 
ATOM     15  C   UNL     1      33.633 -21.570 -19.512  0.00  0.00    -0.000 C 
ENDBRANCH   9  10
ENDBRANCH   1   9
TORSDOF 2
ENDMDL
MODEL 4
REMARK VINA RESULT:      -7.5      4.630      7.246
REMARK  Name = 2368
REMARK  2 active torsions:
REMARK  status: ('A' for Active; 'I' for Inactive)
REMARK    1  A    between atoms: N_1  and  C_9
REMARK    2  A    between atoms: C_9  and  C_10
REMARK                            x       y       z     vdW  Elec       q    Type
REMARK                         _______ _______ _______ _____ _____    ______ ____
ROOT
ATOM      1  N   UNL     1      33.583 -22.730 -17.839  0.00  0.00    -0.341 N 
ATOM      2  N   UNL     1      32.668 -23.323 -15.770  0.00  0.00    -0.343 N 
ATOM      3  N   UNL     1      34.869 -23.957 -16.232  0.00  0.00    -0.238 NA
ATOM      4  C   UNL     1      33.771 -23.362 -16.613  0.00  0.00    +0.195 C 
ATOM      5  C   UNL     1      31.295 -23.285 -16.219  0.00  0.00    +0.124 C 
ATOM      6  C   UNL     1      34.895 -24.570 -14.913  0.00  0.00    +0.155 C 
ATOM      7  H   UNL     1      32.700 -22.321 -17.989  0.00  0.00    +0.164 HD
ATOM      8  H   UNL     1      32.833 -23.321 -14.799  0.00  0.00    +0.163 HD
ENDROOT
BRANCH   1   9
ATOM      9  C   UNL     1      34.538 -22.605 -18.916  0.00  0.00    +0.127 C 
BRANCH   9  10
ATOM     10  C   UNL     1      34.325 -21.344 -19.711  0.00  0.00    -0.000 C 
ATOM     11  C   UNL     1      33.037 -20.862 -19.897  0.00  0.00    -0.002 C 
ATOM     12  C   UNL     1      35.421 -20.680 -20.246  0.00  0.00    -0.002 C 
ATOM     13  C   UNL     1      32.841 -19.694 -20.634  0.00  0.00    -0.000 C 
ATOM     14  C   UNL     1      35.224 -19.512 -20.981  0.00  0.00    -0.000 C 
ATOM     15  C   UNL     1      33.934 -19.018 -21.175  0.00  0.00    -0.000 C 
ENDBRANCH   9  10
ENDBRANCH   1   9
TORSDOF 2
ENDMDL
MODEL 5
REMARK VINA RESULT:      -7.2      4.708      7.368
REMARK  Name = 2368
REMARK  2 active torsions:
REMARK  status: ('A' for Active; 'I' for Inactive)
REMARK    1  A    between atoms: N_1  and  C_9
REMARK    2  A    between atoms: C_9  and  C_10
REMARK                            x       y       z     vdW  Elec       q    Type
REMARK                         _______ _______ _______ _____ _____    ______ ____
ROOT
ATOM      1  N   UNL     1      34.564 -22.793 -17.543  0.00  0.00    -0.341 N 
ATOM      2  N   UNL     1      35.622 -23.394 -15.546  0.00  0.00    -0.343 N 
ATOM      3  N   UNL     1      33.287 -23.432 -15.620  0.00  0.00    -0.238 NA
ATOM      4  C   UNL     1      34.423 -23.212 -16.223  0.00  0.00    +0.195 C 
ATOM      5  C   UNL     1      36.834 -22.653 -15.812  0.00  0.00    +0.124 C 
ATOM      6  C   UNL     1      33.320 -23.868 -14.232  0.00  0.00    +0.155 C 
ATOM      7  H   UNL     1      35.486 -22.669 -17.866  0.00  0.00    +0.164 HD
ATOM      8  H   UNL     1      35.648 -24.075 -14.836  0.00  0.00    +0.163 HD
ENDROOT
BRANCH   1   9
ATOM      9  C   UNL     1      33.510 -22.521 -18.494  0.00  0.00    +0.127 C 
BRANCH   9  10
ATOM     10  C   UNL     1      33.892 -21.428 -19.458  0.00  0.00    -0.000 C 
ATOM     11  C   UNL     1      35.229 -21.232 -19.773  0.00  0.00    -0.002 C 
ATOM     12  C   UNL     1      32.901 -20.633 -20.017  0.00  0.00    -0.002 C 
ATOM     13  C   UNL     1      35.582 -20.220 -20.666  0.00  0.00    -0.000 C 
ATOM     14  C   UNL     1      33.254 -19.622 -20.910  0.00  0.00    -0.000 C 
ATOM     15  C   UNL     1      34.595 -19.415 -21.234  0.00  0.00    -0.000 C 
ENDBRANCH   9  10
ENDBRANCH   1   9
TORSDOF 2
ENDMDL
MODEL 6
REMARK VINA RESULT:      -7.2      1.477      2.570
REMARK  Name = 2368
REMARK  2 active torsions:
REMARK  status: ('A' for Active; 'I' for Inactive)
REMARK    1  A    between atoms: N_1  and  C_9
REMARK    2  A    between atoms: C_9  and  C_10
REMARK                            x       y       z     vdW  Elec       q    Type
REMARK                         _______ _______ _______ _____ _____    ______ ____
ROOT
ATOM      1  N   UNL     1      34.318 -16.303 -21.916  0.00  0.00    -0.341 N 
ATOM      2  N   UNL     1      32.745 -14.609 -22.267  0.00  0.00    -0.343 N 
ATOM      3  N   UNL     1      33.983 -15.370 -24.097  0.00  0.00    -0.238 NA
ATOM      4  C   UNL     1      33.710 -15.438 -22.822  0.00  0.00    +0.195 C 
ATOM      5  C   UNL     1      32.761 -14.130 -20.904  0.00  0.00    +0.124 C 
ATOM      6  C   UNL     1      33.251 -14.406 -24.904  0.00  0.00    +0.155 C 
ATOM      7  H   UNL     1      34.009 -16.244 -20.982  0.00  0.00    +0.164 HD
ATOM      8  H   UNL     1      31.997 -14.326 -22.843  0.00  0.00    +0.163 HD
ENDROOT
BRANCH   1   9
ATOM      9  C   UNL     1      35.350 -17.276 -22.190  0.00  0.00    +0.127 C 
BRANCH   9  10
ATOM     10  C   UNL     1      35.135 -18.554 -21.421  0.00  0.00    -0.000 C 
ATOM     11  C   UNL     1      33.843 -19.010 -21.203  0.00  0.00    -0.002 C 
ATOM     12  C   UNL     1      36.232 -19.255 -20.941  0.00  0.00    -0.002 C 
ATOM     13  C   UNL     1      33.644 -20.193 -20.491  0.00  0.00    -0.000 C 
ATOM     14  C   UNL     1      36.033 -20.438 -20.230  0.00  0.00    -0.000 C 
ATOM     15  C   UNL     1      34.739 -20.907 -20.005  0.00  0.00    -0.000 C 
ENDBRANCH   9  10
ENDBRANCH   1   9
TORSDOF 2
ENDMDL
MODEL 7
REMARK VINA RESULT:      -7.0      5.500      9.280
REMARK  Name = 2368
REMARK  2 active torsions:
REMARK  status: ('A' for Active; 'I' for Inactive)
REMARK    1  A    between atoms: N_1  and  C_9
REMARK    2  A    between atoms: C_9  and  C_10
REMARK                            x       y       z     vdW  Elec       q    Type
REMARK                         _______ _______ _______ _____ _____    ______ ____
ROOT
ATOM      1  N   UNL     1      33.846 -12.269 -24.083  0.00  0.00    -0.341 N 
ATOM      2  N   UNL     1      33.150 -14.458 -23.643  0.00  0.00    -0.343 N 
ATOM      3  N   UNL     1      33.317 -13.773 -25.871  0.00  0.00    -0.238 NA
ATOM      4  C   UNL     1      33.437 -13.495 -24.602  0.00  0.00    +0.195 C 
ATOM      5  C   UNL     1      32.647 -14.171 -22.318  0.00  0.00    +0.124 C 
ATOM      6  C   UNL     1      32.876 -15.109 -26.241  0.00  0.00    +0.155 C 
ATOM      7  H   UNL     1      33.892 -12.203 -23.101  0.00  0.00    +0.164 HD
ATOM      8  H   UNL     1      33.298 -15.401 -23.883  0.00  0.00    +0.163 HD
ENDROOT
BRANCH   1   9
ATOM      9  C   UNL     1      34.211 -11.082 -24.822  0.00  0.00    +0.127 C 
BRANCH   9  10
ATOM     10  C   UNL     1      33.998  -9.830 -24.013  0.00  0.00    -0.000 C 
ATOM     11  C   UNL     1      34.896  -8.778 -24.132  0.00  0.00    -0.002 C 
ATOM     12  C   UNL     1      32.905  -9.745 -23.162  0.00  0.00    -0.002 C 
ATOM     13  C   UNL     1      34.697  -7.619 -23.382  0.00  0.00    -0.000 C 
ATOM     14  C   UNL     1      32.706  -8.585 -22.413  0.00  0.00    -0.000 C 
ATOM     15  C   UNL     1      33.603  -7.521 -22.524  0.00  0.00    -0.000 C 
ENDBRANCH   9  10
ENDBRANCH   1   9
TORSDOF 2
ENDMDL
MODEL 8
REMARK VINA RESULT:      -6.9      6.365      8.986
REMARK  Name = 2368
REMARK  2 active torsions:
REMARK  status: ('A' for Active; 'I' for Inactive)
REMARK    1  A    between atoms: N_1  and  C_9
REMARK    2  A    between atoms: C_9  and  C_10
REMARK                            x       y       z     vdW  Elec       q    Type
REMARK                         _______ _______ _______ _____ _____    ______ ____
ROOT
ATOM      1  N   UNL     1      37.034 -23.908 -15.508  0.00  0.00    -0.341 N 
ATOM      2  N   UNL     1      37.744 -25.993 -14.724  0.00  0.00    -0.343 N 
ATOM      3  N   UNL     1      39.351 -24.333 -15.069  0.00  0.00    -0.238 NA
ATOM      4  C   UNL     1      38.101 -24.707 -15.106  0.00  0.00    +0.195 C 
ATOM      5  C   UNL     1      36.617 -26.724 -15.259  0.00  0.00    +0.124 C 
ATOM      6  C   UNL     1      40.343 -25.298 -14.621  0.00  0.00    +0.155 C 
ATOM      7  H   UNL     1      36.142 -24.324 -15.483  0.00  0.00    +0.164 HD
ATOM      8  H   UNL     1      38.296 -26.439 -14.042  0.00  0.00    +0.163 HD
ENDROOT
BRANCH   1   9
ATOM      9  C   UNL     1      37.088 -22.535 -15.957  0.00  0.00    +0.127 C 
BRANCH   9  10
ATOM     10  C   UNL     1      36.191 -22.298 -17.144  0.00  0.00    -0.000 C 
ATOM     11  C   UNL     1      34.896 -22.795 -17.132  0.00  0.00    -0.002 C 
ATOM     12  C   UNL     1      36.674 -21.584 -18.232  0.00  0.00    -0.002 C 
ATOM     13  C   UNL     1      34.066 -22.575 -18.231  0.00  0.00    -0.000 C 
ATOM     14  C   UNL     1      35.843 -21.363 -19.331  0.00  0.00    -0.000 C 
ATOM     15  C   UNL     1      34.539 -21.859 -19.330  0.00  0.00    -0.000 C 
ENDBRANCH   9  10
ENDBRANCH   1   9
TORSDOF 2
ENDMDL
MODEL 9
REMARK VINA RESULT:      -6.8      4.595      6.388
REMARK  Name = 2368
REMARK  2 active torsions:
REMARK  status: ('A' for Active; 'I' for Inactive)
REMARK    1  A    between atoms: N_1  and  C_9
REMARK    2  A    between atoms: C_9  and  C_10
REMARK                            x       y       z     vdW  Elec       q    Type
REMARK                         _______ _______ _______ _____ _____    ______ ____
ROOT
ATOM      1  N   UNL     1      33.981 -12.321 -24.488  0.00  0.00    -0.341 N 
ATOM      2  N   UNL     1      34.858 -10.155 -24.412  0.00  0.00    -0.343 N 
ATOM      3  N   UNL     1      32.858 -10.582 -23.284  0.00  0.00    -0.238 NA
ATOM      4  C   UNL     1      33.840 -11.016 -24.024  0.00  0.00    +0.195 C 
ATOM      5  C   UNL     1      35.610 -10.275 -25.641  0.00  0.00    +0.124 C 
ATOM      6  C   UNL     1      32.865  -9.182 -22.885  0.00  0.00    +0.155 C 
ATOM      7  H   UNL     1      34.777 -12.506 -25.038  0.00  0.00    +0.164 HD
ATOM      8  H   UNL     1      35.084  -9.410 -23.808  0.00  0.00    +0.163 HD
ENDROOT
BRANCH   1   9
ATOM      9  C   UNL     1      33.092 -13.435 -24.253  0.00  0.00    +0.127 C 
BRANCH   9  10
ATOM     10  C   UNL     1      33.371 -14.108 -22.934  0.00  0.00    -0.000 C 
ATOM     11  C   UNL     1      34.484 -14.927 -22.807  0.00  0.00    -0.002 C 
ATOM     12  C   UNL     1      32.512 -13.898 -21.865  0.00  0.00    -0.002 C 
ATOM     13  C   UNL     1      34.743 -15.549 -21.586  0.00  0.00    -0.000 C 
ATOM     14  C   UNL     1      32.771 -14.519 -20.644  0.00  0.00    -0.000 C 
ATOM     15  C   UNL     1      33.887 -15.345 -20.504  0.00  0.00    -0.000 C 
ENDBRANCH   9  10
ENDBRANCH   1   9
TORSDOF 2
ENDMDL
