MODEL 1
REMARK VINA RESULT:      -6.4      0.000      0.000
REMARK  Name = 447358
REMARK  9 active torsions:
REMARK  status: ('A' for Active; 'I' for Inactive)
REMARK    1  A    between atoms: P_1  and  O_3
REMARK    2  A    between atoms: P_1  and  O_5
REMARK    3  A    between atoms: P_1  and  O_12
REMARK    4  A    between atoms: O_5  and  C_6
REMARK    5  A    between atoms: C_6  and  C_7
REMARK    6  A    between atoms: C_7  and  N_8
REMARK    7  A    between atoms: O_12  and  P_13
REMARK    8  A    between atoms: P_13  and  O_15
REMARK    9  A    between atoms: P_13  and  O_17
REMARK                            x       y       z     vdW  Elec       q    Type
REMARK                         _______ _______ _______ _____ _____    ______ ____
ROOT
ATOM      1  P   UNL     1      37.260 -26.231 -14.964  0.00  0.00    +0.484 P 
ATOM      2  O   UNL     1      36.566 -27.161 -15.915  0.00  0.00    -0.227 OA
ENDROOT
BRANCH   1   3
ATOM      3  O   UNL     1      37.585 -24.770 -15.579  0.00  0.00    -0.302 OA
ATOM      4  H   UNL     1      38.386 -24.415 -15.163  0.00  0.00    +0.222 HD
ENDBRANCH   1   3
BRANCH   1   5
ATOM      5  O   UNL     1      36.444 -25.923 -13.600  0.00  0.00    -0.275 OA
BRANCH   5   6
ATOM      6  C   UNL     1      36.252 -24.584 -13.177  0.00  0.00    +0.131 C 
BRANCH   6   7
ATOM      7  C   UNL     1      34.773 -24.366 -12.901  0.00  0.00    -0.044 C 
BRANCH   7   8
ATOM      8  N   UNL     1      33.982 -24.639 -14.091  0.00  0.00    +0.386 N 
ATOM      9  C   UNL     1      34.229 -23.628 -15.121  0.00  0.00    -0.101 C 
ATOM     10  C   UNL     1      32.555 -24.691 -13.764  0.00  0.00    -0.101 C 
ATOM     11  H   UNL     1      34.264 -25.550 -14.454  0.00  0.00    -0.080 HD
ENDBRANCH   7   8
ENDBRANCH   6   7
ENDBRANCH   5   6
ENDBRANCH   1   5
BRANCH   1  12
ATOM     12  O   UNL     1      38.705 -26.752 -14.463  0.00  0.00    -0.186 OA
BRANCH  12  13
ATOM     13  P   UNL     1      40.162 -26.053 -14.517  0.00  0.00    +0.481 P 
ATOM     14  O   UNL     1      41.257 -26.835 -13.854  0.00  0.00    -0.227 OA
BRANCH  13  15
ATOM     15  O   UNL     1      39.888 -24.586 -13.893  0.00  0.00    -0.302 OA
ATOM     16  H   UNL     1      39.955 -23.919 -14.594  0.00  0.00    +0.222 HD
ENDBRANCH  13  15
BRANCH  13  17
ATOM     17  O   UNL     1      40.376 -25.759 -16.091  0.00  0.00    -0.302 OA
ATOM     18  H   UNL     1      41.316 -25.855 -16.314  0.00  0.00    +0.222 HD
ENDBRANCH  13  17
ENDBRANCH  12  13
ENDBRANCH   1  12
TORSDOF 9
ENDMDL
MODEL 2
REMARK VINA RESULT:      -6.4      0.162      1.182
REMARK  Name = 447358
REMARK  9 active torsions:
REMARK  status: ('A' for Active; 'I' for Inactive)
REMARK    1  A    between atoms: P_1  and  O_3
REMARK    2  A    between atoms: P_1  and  O_5
REMARK    3  A    between atoms: P_1  and  O_12
REMARK    4  A    between atoms: O_5  and  C_6
REMARK    5  A    between atoms: C_6  and  C_7
REMARK    6  A    between atoms: C_7  and  N_8
REMARK    7  A    between atoms: O_12  and  P_13
REMARK    8  A    between atoms: P_13  and  O_15
REMARK    9  A    between atoms: P_13  and  O_17
REMARK                            x       y       z     vdW  Elec       q    Type
REMARK                         _______ _______ _______ _____ _____    ______ ____
ROOT
ATOM      1  P   UNL     1      37.252 -26.198 -14.900  0.00  0.00    +0.484 P 
ATOM      2  O   UNL     1      36.470 -27.171 -15.733  0.00  0.00    -0.227 OA
ENDROOT
BRANCH   1   3
ATOM      3  O   UNL     1      37.497 -24.763 -15.607  0.00  0.00    -0.302 OA
ATOM      4  H   UNL     1      38.428 -24.508 -15.505  0.00  0.00    +0.222 HD
ENDBRANCH   1   3
BRANCH   1   5
ATOM      5  O   UNL     1      36.582 -25.836 -13.472  0.00  0.00    -0.275 OA
BRANCH   5   6
ATOM      6  C   UNL     1      36.250 -24.493 -13.166  0.00  0.00    +0.131 C 
BRANCH   6   7
ATOM      7  C   UNL     1      34.761 -24.415 -12.865  0.00  0.00    -0.044 C 
BRANCH   7   8
ATOM      8  N   UNL     1      33.981 -24.607 -14.078  0.00  0.00    +0.386 N 
ATOM      9  C   UNL     1      34.226 -23.522 -15.030  0.00  0.00    -0.101 C 
ATOM     10  C   UNL     1      32.552 -24.694 -13.766  0.00  0.00    -0.101 C 
ATOM     11  H   UNL     1      34.274 -25.487 -14.504  0.00  0.00    -0.080 HD
ENDBRANCH   7   8
ENDBRANCH   6   7
ENDBRANCH   5   6
ENDBRANCH   1   5
BRANCH   1  12
ATOM     12  O   UNL     1      38.747 -26.691 -14.535  0.00  0.00    -0.186 OA
BRANCH  12  13
ATOM     13  P   UNL     1      40.163 -25.911 -14.582  0.00  0.00    +0.481 P 
ATOM     14  O   UNL     1      40.189 -24.615 -13.828  0.00  0.00    -0.227 OA
BRANCH  13  15
ATOM     15  O   UNL     1      40.463 -25.793 -16.167  0.00  0.00    -0.302 OA
ATOM     16  H   UNL     1      39.639 -25.591 -16.637  0.00  0.00    +0.222 HD
ENDBRANCH  13  15
BRANCH  13  17
ATOM     17  O   UNL     1      41.219 -27.026 -14.080  0.00  0.00    -0.302 OA
ATOM     18  H   UNL     1      41.332 -26.956 -13.119  0.00  0.00    +0.222 HD
ENDBRANCH  13  17
ENDBRANCH  12  13
ENDBRANCH   1  12
TORSDOF 9
ENDMDL
MODEL 3
REMARK VINA RESULT:      -6.2      1.532      2.418
REMARK  Name = 447358
REMARK  9 active torsions:
REMARK  status: ('A' for Active; 'I' for Inactive)
REMARK    1  A    between atoms: P_1  and  O_3
REMARK    2  A    between atoms: P_1  and  O_5
REMARK    3  A    between atoms: P_1  and  O_12
REMARK    4  A    between atoms: O_5  and  C_6
REMARK    5  A    between atoms: C_6  and  C_7
REMARK    6  A    between atoms: C_7  and  N_8
REMARK    7  A    between atoms: O_12  and  P_13
REMARK    8  A    between atoms: P_13  and  O_15
REMARK    9  A    between atoms: P_13  and  O_17
REMARK                            x       y       z     vdW  Elec       q    Type
REMARK                         _______ _______ _______ _____ _____    ______ ____
ROOT
ATOM      1  P   UNL     1      37.597 -25.166 -12.556  0.00  0.00    +0.484 P 
ATOM      2  O   UNL     1      37.605 -24.530 -11.196  0.00  0.00    -0.227 OA
ENDROOT
BRANCH   1   3
ATOM      3  O   UNL     1      36.855 -26.602 -12.615  0.00  0.00    -0.302 OA
ATOM      4  H   UNL     1      36.820 -26.984 -11.724  0.00  0.00    +0.222 HD
ENDBRANCH   1   3
BRANCH   1   5
ATOM      5  O   UNL     1      36.877 -24.290 -13.710  0.00  0.00    -0.275 OA
BRANCH   5   6
ATOM      6  C   UNL     1      35.603 -24.673 -14.198  0.00  0.00    +0.131 C 
BRANCH   6   7
ATOM      7  C   UNL     1      34.534 -24.073 -13.298  0.00  0.00    -0.044 C 
BRANCH   7   8
ATOM      8  N   UNL     1      33.619 -23.244 -14.068  0.00  0.00    +0.386 N 
ATOM      9  C   UNL     1      32.229 -23.615 -13.795  0.00  0.00    -0.101 C 
ATOM     10  C   UNL     1      33.901 -23.356 -15.501  0.00  0.00    -0.101 C 
ATOM     11  H   UNL     1      33.759 -22.274 -13.785  0.00  0.00    -0.080 HD
ENDBRANCH   7   8
ENDBRANCH   6   7
ENDBRANCH   5   6
ENDBRANCH   1   5
BRANCH   1  12
ATOM     12  O   UNL     1      39.068 -25.484 -13.146  0.00  0.00    -0.186 OA
BRANCH  12  13
ATOM     13  P   UNL     1      39.566 -25.767 -14.657  0.00  0.00    +0.481 P 
ATOM     14  O   UNL     1      40.885 -26.474 -14.760  0.00  0.00    -0.227 OA
BRANCH  13  15
ATOM     15  O   UNL     1      39.513 -24.303 -15.341  0.00  0.00    -0.302 OA
ATOM     16  H   UNL     1      38.966 -24.340 -16.142  0.00  0.00    +0.222 HD
ENDBRANCH  13  15
BRANCH  13  17
ATOM     17  O   UNL     1      38.314 -26.541 -15.323  0.00  0.00    -0.302 OA
ATOM     18  H   UNL     1      38.203 -27.406 -14.898  0.00  0.00    +0.222 HD
ENDBRANCH  13  17
ENDBRANCH  12  13
ENDBRANCH   1  12
TORSDOF 9
ENDMDL
MODEL 4
REMARK VINA RESULT:      -5.9      1.869      2.754
REMARK  Name = 447358
REMARK  9 active torsions:
REMARK  status: ('A' for Active; 'I' for Inactive)
REMARK    1  A    between atoms: P_1  and  O_3
REMARK    2  A    between atoms: P_1  and  O_5
REMARK    3  A    between atoms: P_1  and  O_12
REMARK    4  A    between atoms: O_5  and  C_6
REMARK    5  A    between atoms: C_6  and  C_7
REMARK    6  A    between atoms: C_7  and  N_8
REMARK    7  A    between atoms: O_12  and  P_13
REMARK    8  A    between atoms: P_13  and  O_15
REMARK    9  A    between atoms: P_13  and  O_17
REMARK                            x       y       z     vdW  Elec       q    Type
REMARK                         _______ _______ _______ _____ _____    ______ ____
ROOT
ATOM      1  P   UNL     1      37.523 -25.087 -12.396  0.00  0.00    +0.484 P 
ATOM      2  O   UNL     1      37.433 -24.201 -11.188  0.00  0.00    -0.227 OA
ENDROOT
BRANCH   1   3
ATOM      3  O   UNL     1      36.964 -26.587 -12.164  0.00  0.00    -0.302 OA
ATOM      4  H   UNL     1      36.280 -26.782 -12.824  0.00  0.00    +0.222 HD
ENDBRANCH   1   3
BRANCH   1   5
ATOM      5  O   UNL     1      36.716 -24.550 -13.692  0.00  0.00    -0.275 OA
BRANCH   5   6
ATOM      6  C   UNL     1      35.376 -24.109 -13.558  0.00  0.00    +0.131 C 
BRANCH   6   7
ATOM      7  C   UNL     1      35.160 -22.917 -14.478  0.00  0.00    -0.044 C 
BRANCH   7   8
ATOM      8  N   UNL     1      35.454 -23.272 -15.857  0.00  0.00    +0.386 N 
ATOM      9  C   UNL     1      36.467 -22.376 -16.419  0.00  0.00    -0.101 C 
ATOM     10  C   UNL     1      34.237 -23.234 -16.672  0.00  0.00    -0.101 C 
ATOM     11  H   UNL     1      35.820 -24.224 -15.867  0.00  0.00    -0.080 HD
ENDBRANCH   7   8
ENDBRANCH   6   7
ENDBRANCH   5   6
ENDBRANCH   1   5
BRANCH   1  12
ATOM     12  O   UNL     1      39.030 -25.331 -12.928  0.00  0.00    -0.186 OA
BRANCH  12  13
ATOM     13  P   UNL     1      39.580 -25.826 -14.364  0.00  0.00    +0.481 P 
ATOM     14  O   UNL     1      40.994 -26.328 -14.354  0.00  0.00    -0.227 OA
BRANCH  13  15
ATOM     15  O   UNL     1      39.309 -24.551 -15.320  0.00  0.00    -0.302 OA
ATOM     16  H   UNL     1      40.062 -24.430 -15.920  0.00  0.00    +0.222 HD
ENDBRANCH  13  15
BRANCH  13  17
ATOM     17  O   UNL     1      38.468 -26.898 -14.840  0.00  0.00    -0.302 OA
ATOM     18  H   UNL     1      38.731 -27.787 -14.553  0.00  0.00    +0.222 HD
ENDBRANCH  13  17
ENDBRANCH  12  13
ENDBRANCH   1  12
TORSDOF 9
ENDMDL
MODEL 5
REMARK VINA RESULT:      -5.8      4.090      5.460
REMARK  Name = 447358
REMARK  9 active torsions:
REMARK  status: ('A' for Active; 'I' for Inactive)
REMARK    1  A    between atoms: P_1  and  O_3
REMARK    2  A    between atoms: P_1  and  O_5
REMARK    3  A    between atoms: P_1  and  O_12
REMARK    4  A    between atoms: O_5  and  C_6
REMARK    5  A    between atoms: C_6  and  C_7
REMARK    6  A    between atoms: C_7  and  N_8
REMARK    7  A    between atoms: O_12  and  P_13
REMARK    8  A    between atoms: P_13  and  O_15
REMARK    9  A    between atoms: P_13  and  O_17
REMARK                            x       y       z     vdW  Elec       q    Type
REMARK                         _______ _______ _______ _____ _____    ______ ____
ROOT
ATOM      1  P   UNL     1      35.677 -24.390 -11.472  0.00  0.00    +0.484 P 
ATOM      2  O   UNL     1      35.528 -24.501  -9.982  0.00  0.00    -0.227 OA
ENDROOT
BRANCH   1   3
ATOM      3  O   UNL     1      36.488 -23.080 -11.964  0.00  0.00    -0.302 OA
ATOM      4  H   UNL     1      37.385 -23.098 -11.596  0.00  0.00    +0.222 HD
ENDBRANCH   1   3
BRANCH   1   5
ATOM      5  O   UNL     1      36.449 -25.630 -12.170  0.00  0.00    -0.275 OA
BRANCH   5   6
ATOM      6  C   UNL     1      37.758 -25.451 -12.681  0.00  0.00    +0.131 C 
BRANCH   6   7
ATOM      7  C   UNL     1      37.913 -26.297 -13.934  0.00  0.00    -0.044 C 
BRANCH   7   8
ATOM      8  N   UNL     1      38.533 -25.527 -15.002  0.00  0.00    +0.386 N 
ATOM      9  C   UNL     1      39.991 -25.527 -14.862  0.00  0.00    -0.101 C 
ATOM     10  C   UNL     1      38.025 -24.153 -15.010  0.00  0.00    -0.101 C 
ATOM     11  H   UNL     1      38.290 -25.968 -15.889  0.00  0.00    -0.080 HD
ENDBRANCH   7   8
ENDBRANCH   6   7
ENDBRANCH   5   6
ENDBRANCH   1   5
BRANCH   1  12
ATOM     12  O   UNL     1      34.276 -24.282 -12.271  0.00  0.00    -0.186 OA
BRANCH  12  13
ATOM     13  P   UNL     1      33.966 -24.089 -13.846  0.00  0.00    +0.481 P 
ATOM     14  O   UNL     1      32.511 -23.960 -14.186  0.00  0.00    -0.227 OA
BRANCH  13  15
ATOM     15  O   UNL     1      34.723 -25.346 -14.524  0.00  0.00    -0.302 OA
ATOM     16  H   UNL     1      34.360 -25.502 -15.410  0.00  0.00    +0.222 HD
ENDBRANCH  13  15
BRANCH  13  17
ATOM     17  O   UNL     1      34.887 -22.827 -14.256  0.00  0.00    -0.302 OA
ATOM     18  H   UNL     1      34.485 -22.010 -13.921  0.00  0.00    +0.222 HD
ENDBRANCH  13  17
ENDBRANCH  12  13
ENDBRANCH   1  12
TORSDOF 9
ENDMDL
MODEL 6
REMARK VINA RESULT:      -5.6      2.748      3.591
REMARK  Name = 447358
REMARK  9 active torsions:
REMARK  status: ('A' for Active; 'I' for Inactive)
REMARK    1  A    between atoms: P_1  and  O_3
REMARK    2  A    between atoms: P_1  and  O_5
REMARK    3  A    between atoms: P_1  and  O_12
REMARK    4  A    between atoms: O_5  and  C_6
REMARK    5  A    between atoms: C_6  and  C_7
REMARK    6  A    between atoms: C_7  and  N_8
REMARK    7  A    between atoms: O_12  and  P_13
REMARK    8  A    between atoms: P_13  and  O_15
REMARK    9  A    between atoms: P_13  and  O_17
REMARK                            x       y       z     vdW  Elec       q    Type
REMARK                         _______ _______ _______ _____ _____    ______ ____
ROOT
ATOM      1  P   UNL     1      36.055 -25.361 -14.991  0.00  0.00    +0.484 P 
ATOM      2  O   UNL     1      36.154 -26.663 -15.730  0.00  0.00    -0.227 OA
ENDROOT
BRANCH   1   3
ATOM      3  O   UNL     1      36.887 -24.148 -15.666  0.00  0.00    -0.302 OA
ATOM      4  H   UNL     1      36.432 -23.853 -16.471  0.00  0.00    +0.222 HD
ENDBRANCH   1   3
BRANCH   1   5
ATOM      5  O   UNL     1      34.552 -24.782 -14.834  0.00  0.00    -0.275 OA
BRANCH   5   6
ATOM      6  C   UNL     1      34.124 -23.695 -15.636  0.00  0.00    +0.131 C 
BRANCH   6   7
ATOM      7  C   UNL     1      32.604 -23.660 -15.642  0.00  0.00    -0.044 C 
BRANCH   7   8
ATOM      8  N   UNL     1      32.074 -24.177 -14.390  0.00  0.00    +0.386 N 
ATOM      9  C   UNL     1      30.902 -25.022 -14.633  0.00  0.00    -0.101 C 
ATOM     10  C   UNL     1      31.727 -23.081 -13.482  0.00  0.00    -0.101 C 
ATOM     11  H   UNL     1      32.799 -24.745 -13.951  0.00  0.00    -0.080 HD
ENDBRANCH   7   8
ENDBRANCH   6   7
ENDBRANCH   5   6
ENDBRANCH   1   5
BRANCH   1  12
ATOM     12  O   UNL     1      36.631 -25.410 -13.482  0.00  0.00    -0.186 OA
BRANCH  12  13
ATOM     13  P   UNL     1      36.282 -24.514 -12.183  0.00  0.00    +0.481 P 
ATOM     14  O   UNL     1      37.294 -24.590 -11.079  0.00  0.00    -0.227 OA
BRANCH  13  15
ATOM     15  O   UNL     1      34.793 -25.005 -11.789  0.00  0.00    -0.302 OA
ATOM     16  H   UNL     1      34.174 -24.264 -11.878  0.00  0.00    +0.222 HD
ENDBRANCH  13  15
BRANCH  13  17
ATOM     17  O   UNL     1      36.042 -23.040 -12.801  0.00  0.00    -0.302 OA
ATOM     18  H   UNL     1      35.146 -22.738 -12.581  0.00  0.00    +0.222 HD
ENDBRANCH  13  17
ENDBRANCH  12  13
ENDBRANCH   1  12
TORSDOF 9
ENDMDL
MODEL 7
REMARK VINA RESULT:      -5.5      2.087      3.450
REMARK  Name = 447358
REMARK  9 active torsions:
REMARK  status: ('A' for Active; 'I' for Inactive)
REMARK    1  A    between atoms: P_1  and  O_3
REMARK    2  A    between atoms: P_1  and  O_5
REMARK    3  A    between atoms: P_1  and  O_12
REMARK    4  A    between atoms: O_5  and  C_6
REMARK    5  A    between atoms: C_6  and  C_7
REMARK    6  A    between atoms: C_7  and  N_8
REMARK    7  A    between atoms: O_12  and  P_13
REMARK    8  A    between atoms: P_13  and  O_15
REMARK    9  A    between atoms: P_13  and  O_17
REMARK                            x       y       z     vdW  Elec       q    Type
REMARK                         _______ _______ _______ _____ _____    ______ ____
ROOT
ATOM      1  P   UNL     1      35.670 -24.505 -12.866  0.00  0.00    +0.484 P 
ATOM      2  O   UNL     1      36.350 -23.170 -12.784  0.00  0.00    -0.227 OA
ENDROOT
BRANCH   1   3
ATOM      3  O   UNL     1      36.148 -25.566 -11.742  0.00  0.00    -0.302 OA
ATOM      4  H   UNL     1      36.855 -25.172 -11.207  0.00  0.00    +0.222 HD
ENDBRANCH   1   3
BRANCH   1   5
ATOM      5  O   UNL     1      34.059 -24.457 -12.718  0.00  0.00    -0.275 OA
BRANCH   5   6
ATOM      6  C   UNL     1      33.254 -24.138 -13.840  0.00  0.00    +0.131 C 
BRANCH   6   7
ATOM      7  C   UNL     1      31.969 -24.948 -13.764  0.00  0.00    -0.044 C 
BRANCH   7   8
ATOM      8  N   UNL     1      30.853 -24.193 -14.313  0.00  0.00    +0.386 N 
ATOM      9  C   UNL     1      30.054 -25.030 -15.211  0.00  0.00    -0.101 C 
ATOM     10  C   UNL     1      31.331 -23.003 -15.021  0.00  0.00    -0.101 C 
ATOM     11  H   UNL     1      30.263 -23.893 -13.536  0.00  0.00    -0.080 HD
ENDBRANCH   7   8
ENDBRANCH   6   7
ENDBRANCH   5   6
ENDBRANCH   1   5
BRANCH   1  12
ATOM     12  O   UNL     1      35.927 -25.295 -14.253  0.00  0.00    -0.186 OA
BRANCH  12  13
ATOM     13  P   UNL     1      37.207 -26.131 -14.777  0.00  0.00    +0.481 P 
ATOM     14  O   UNL     1      37.845 -27.011 -13.743  0.00  0.00    -0.227 OA
BRANCH  13  15
ATOM     15  O   UNL     1      38.166 -24.985 -15.393  0.00  0.00    -0.302 OA
ATOM     16  H   UNL     1      38.395 -25.213 -16.308  0.00  0.00    +0.222 HD
ENDBRANCH  13  15
BRANCH  13  17
ATOM     17  O   UNL     1      36.644 -26.896 -16.084  0.00  0.00    -0.302 OA
ATOM     18  H   UNL     1      36.635 -27.852 -15.921  0.00  0.00    +0.222 HD
ENDBRANCH  13  17
ENDBRANCH  12  13
ENDBRANCH   1  12
TORSDOF 9
ENDMDL
MODEL 8
REMARK VINA RESULT:      -5.5     11.757     13.121
REMARK  Name = 447358
REMARK  9 active torsions:
REMARK  status: ('A' for Active; 'I' for Inactive)
REMARK    1  A    between atoms: P_1  and  O_3
REMARK    2  A    between atoms: P_1  and  O_5
REMARK    3  A    between atoms: P_1  and  O_12
REMARK    4  A    between atoms: O_5  and  C_6
REMARK    5  A    between atoms: C_6  and  C_7
REMARK    6  A    between atoms: C_7  and  N_8
REMARK    7  A    between atoms: O_12  and  P_13
REMARK    8  A    between atoms: P_13  and  O_15
REMARK    9  A    between atoms: P_13  and  O_17
REMARK                            x       y       z     vdW  Elec       q    Type
REMARK                         _______ _______ _______ _____ _____    ______ ____
ROOT
ATOM      1  P   UNL     1      34.575 -15.968 -21.097  0.00  0.00    +0.484 P 
ATOM      2  O   UNL     1      34.919 -14.731 -20.321  0.00  0.00    -0.227 OA
ENDROOT
BRANCH   1   3
ATOM      3  O   UNL     1      33.015 -16.390 -21.021  0.00  0.00    -0.302 OA
ATOM      4  H   UNL     1      32.573 -15.870 -20.330  0.00  0.00    +0.222 HD
ENDBRANCH   1   3
BRANCH   1   5
ATOM      5  O   UNL     1      34.894 -15.885 -22.682  0.00  0.00    -0.275 OA
BRANCH   5   6
ATOM      6  C   UNL     1      33.921 -15.371 -23.574  0.00  0.00    +0.131 C 
BRANCH   6   7
ATOM      7  C   UNL     1      33.946 -13.852 -23.500  0.00  0.00    -0.044 C 
BRANCH   7   8
ATOM      8  N   UNL     1      33.202 -13.271 -24.608  0.00  0.00    +0.386 N 
ATOM      9  C   UNL     1      33.065 -14.235 -25.702  0.00  0.00    -0.101 C 
ATOM     10  C   UNL     1      33.856 -12.051 -25.087  0.00  0.00    -0.101 C 
ATOM     11  H   UNL     1      32.271 -13.028 -24.269  0.00  0.00    -0.080 HD
ENDBRANCH   7   8
ENDBRANCH   6   7
ENDBRANCH   5   6
ENDBRANCH   1   5
BRANCH   1  12
ATOM     12  O   UNL     1      35.343 -17.299 -20.597  0.00  0.00    -0.186 OA
BRANCH  12  13
ATOM     13  P   UNL     1      35.663 -18.689 -21.358  0.00  0.00    +0.481 P 
ATOM     14  O   UNL     1      36.121 -19.802 -20.463  0.00  0.00    -0.227 OA
BRANCH  13  15
ATOM     15  O   UNL     1      36.718 -18.245 -22.501  0.00  0.00    -0.302 OA
ATOM     16  H   UNL     1      37.044 -17.352 -22.311  0.00  0.00    +0.222 HD
ENDBRANCH  13  15
BRANCH  13  17
ATOM     17  O   UNL     1      34.308 -18.980 -22.188  0.00  0.00    -0.302 OA
ATOM     18  H   UNL     1      34.421 -18.688 -23.106  0.00  0.00    +0.222 HD
ENDBRANCH  13  17
ENDBRANCH  12  13
ENDBRANCH   1  12
TORSDOF 9
ENDMDL
MODEL 9
REMARK VINA RESULT:      -5.4     11.541     12.910
REMARK  Name = 447358
REMARK  9 active torsions:
REMARK  status: ('A' for Active; 'I' for Inactive)
REMARK    1  A    between atoms: P_1  and  O_3
REMARK    2  A    between atoms: P_1  and  O_5
REMARK    3  A    between atoms: P_1  and  O_12
REMARK    4  A    between atoms: O_5  and  C_6
REMARK    5  A    between atoms: C_6  and  C_7
REMARK    6  A    between atoms: C_7  and  N_8
REMARK    7  A    between atoms: O_12  and  P_13
REMARK    8  A    between atoms: P_13  and  O_15
REMARK    9  A    between atoms: P_13  and  O_17
REMARK                            x       y       z     vdW  Elec       q    Type
REMARK                         _______ _______ _______ _____ _____    ______ ____
ROOT
ATOM      1  P   UNL     1      34.368 -16.070 -21.176  0.00  0.00    +0.484 P 
ATOM      2  O   UNL     1      34.783 -14.704 -20.714  0.00  0.00    -0.227 OA
ENDROOT
BRANCH   1   3
ATOM      3  O   UNL     1      32.896 -16.523 -20.679  0.00  0.00    -0.302 OA
ATOM      4  H   UNL     1      32.978 -17.264 -20.059  0.00  0.00    +0.222 HD
ENDBRANCH   1   3
BRANCH   1   5
ATOM      5  O   UNL     1      34.328 -16.260 -22.782  0.00  0.00    -0.275 OA
BRANCH   5   6
ATOM      6  C   UNL     1      34.687 -15.184 -23.631  0.00  0.00    +0.131 C 
BRANCH   6   7
ATOM      7  C   UNL     1      33.443 -14.363 -23.932  0.00  0.00    -0.044 C 
BRANCH   7   8
ATOM      8  N   UNL     1      33.482 -13.092 -23.225  0.00  0.00    +0.386 N 
ATOM      9  C   UNL     1      32.254 -12.889 -22.453  0.00  0.00    -0.101 C 
ATOM     10  C   UNL     1      33.679 -11.984 -24.163  0.00  0.00    -0.101 C 
ATOM     11  H   UNL     1      34.272 -13.115 -22.580  0.00  0.00    -0.080 HD
ENDBRANCH   7   8
ENDBRANCH   6   7
ENDBRANCH   5   6
ENDBRANCH   1   5
BRANCH   1  12
ATOM     12  O   UNL     1      35.320 -17.265 -20.648  0.00  0.00    -0.186 OA
BRANCH  12  13
ATOM     13  P   UNL     1      35.702 -18.689 -21.312  0.00  0.00    +0.481 P 
ATOM     14  O   UNL     1      36.390 -19.647 -20.386  0.00  0.00    -0.227 OA
BRANCH  13  15
ATOM     15  O   UNL     1      36.550 -18.266 -22.622  0.00  0.00    -0.302 OA
ATOM     16  H   UNL     1      36.813 -19.064 -23.108  0.00  0.00    +0.222 HD
ENDBRANCH  13  15
BRANCH  13  17
ATOM     17  O   UNL     1      34.297 -19.205 -21.921  0.00  0.00    -0.302 OA
ATOM     18  H   UNL     1      34.442 -20.023 -22.423  0.00  0.00    +0.222 HD
ENDBRANCH  13  17
ENDBRANCH  12  13
ENDBRANCH   1  12
TORSDOF 9
ENDMDL
