MODEL 1
REMARK VINA RESULT:      -9.0      0.000      0.000
REMARK  Name = 5995
REMARK  3 active torsions:
REMARK  status: ('A' for Active; 'I' for Inactive)
REMARK    1  A    between atoms: C_9  and  O_21
REMARK    2  A    between atoms: O_21  and  C_23
REMARK    3  A    between atoms: C_23  and  C_24
REMARK                            x       y       z     vdW  Elec       q    Type
REMARK                         _______ _______ _______ _____ _____    ______ ____
ROOT
ATOM      1  O   UNL     1      34.422 -10.313 -25.872  0.00  0.00    -0.291 OA
ATOM      2  C   UNL     1      34.732 -17.445 -23.154  0.00  0.00    +0.003 C 
ATOM      3  C   UNL     1      34.523 -17.630 -21.639  0.00  0.00    +0.037 C 
ATOM      4  C   UNL     1      33.899 -16.295 -23.729  0.00  0.00    +0.001 C 
ATOM      5  C   UNL     1      34.310 -14.970 -23.012  0.00  0.00    +0.003 C 
ATOM      6  C   UNL     1      33.537 -13.710 -23.564  0.00  0.00    +0.016 C 
ATOM      7  C   UNL     1      34.997 -16.353 -20.934  0.00  0.00    +0.003 C 
ATOM      8  C   UNL     1      34.261 -15.110 -21.465  0.00  0.00    +0.000 C 
ATOM      9  C   UNL     1      35.419 -18.863 -21.411  0.00  0.00    +0.169 C 
ATOM     10  C   UNL     1      34.543 -18.852 -23.714  0.00  0.00    +0.004 C 
ATOM     11  C   UNL     1      34.103 -16.159 -25.243  0.00  0.00    +0.004 C 
ATOM     12  C   UNL     1      35.121 -19.770 -22.621  0.00  0.00    +0.044 C 
ATOM     13  C   UNL     1      33.612 -13.695 -25.096  0.00  0.00    -0.042 C 
ATOM     14  C   UNL     1      33.063 -17.941 -21.220  0.00  0.00    +0.004 C 
ATOM     15  C   UNL     1      33.299 -14.992 -25.803  0.00  0.00    +0.022 C 
ATOM     16  C   UNL     1      34.211 -12.432 -22.986  0.00  0.00    +0.012 C 
ATOM     17  C   UNL     1      32.047 -13.720 -23.154  0.00  0.00    +0.004 C 
ATOM     18  C   UNL     1      33.821 -11.154 -23.713  0.00  0.00    +0.069 C 
ATOM     19  C   UNL     1      33.911 -12.605 -25.823  0.00  0.00    +0.029 C 
ATOM     20  C   UNL     1      34.106 -11.283 -25.186  0.00  0.00    +0.173 C 
ENDROOT
BRANCH   9  21
ATOM     21  O   UNL     1      35.156 -19.520 -20.187  0.00  0.00    -0.452 OA
BRANCH  21  23
ATOM     22  O   UNL     1      37.047 -20.840 -20.122  0.00  0.00    -0.250 OA
ATOM     23  C   UNL     1      35.843 -20.688 -19.967  0.00  0.00    +0.317 C 
BRANCH  23  24
ATOM     24  C   UNL     1      34.883 -21.759 -19.503  0.00  0.00    +0.110 C 
ATOM     25  C   UNL     1      33.436 -21.301 -19.580  0.00  0.00    +0.012 C 
ENDBRANCH  23  24
ENDBRANCH  21  23
ENDBRANCH   9  21
TORSDOF 3
ENDMDL
MODEL 2
REMARK VINA RESULT:      -8.7      5.461      9.394
REMARK  Name = 5995
REMARK  3 active torsions:
REMARK  status: ('A' for Active; 'I' for Inactive)
REMARK    1  A    between atoms: C_9  and  O_21
REMARK    2  A    between atoms: O_21  and  C_23
REMARK    3  A    between atoms: C_23  and  C_24
REMARK                            x       y       z     vdW  Elec       q    Type
REMARK                         _______ _______ _______ _____ _____    ______ ____
ROOT
ATOM      1  O   UNL     1      33.527 -18.799 -21.835  0.00  0.00    -0.291 OA
ATOM      2  C   UNL     1      36.228 -22.532 -15.744  0.00  0.00    +0.003 C 
ATOM      3  C   UNL     1      35.308 -23.586 -15.099  0.00  0.00    +0.037 C 
ATOM      4  C   UNL     1      36.059 -22.450 -17.264  0.00  0.00    +0.001 C 
ATOM      5  C   UNL     1      34.578 -22.071 -17.585  0.00  0.00    +0.003 C 
ATOM      6  C   UNL     1      34.308 -21.918 -19.132  0.00  0.00    +0.016 C 
ATOM      7  C   UNL     1      33.854 -23.168 -15.355  0.00  0.00    +0.003 C 
ATOM      8  C   UNL     1      33.570 -23.005 -16.859  0.00  0.00    +0.000 C 
ATOM      9  C   UNL     1      35.767 -23.458 -13.634  0.00  0.00    +0.169 C 
ATOM     10  C   UNL     1      37.602 -22.858 -15.165  0.00  0.00    +0.004 C 
ATOM     11  C   UNL     1      37.012 -21.418 -17.878  0.00  0.00    +0.004 C 
ATOM     12  C   UNL     1      37.300 -23.336 -13.732  0.00  0.00    +0.044 C 
ATOM     13  C   UNL     1      35.382 -21.016 -19.752  0.00  0.00    -0.042 C 
ATOM     14  C   UNL     1      35.527 -25.034 -15.608  0.00  0.00    +0.004 C 
ATOM     15  C   UNL     1      36.816 -21.316 -19.385  0.00  0.00    +0.022 C 
ATOM     16  C   UNL     1      32.902 -21.278 -19.321  0.00  0.00    +0.012 C 
ATOM     17  C   UNL     1      34.341 -23.279 -19.863  0.00  0.00    +0.004 C 
ATOM     18  C   UNL     1      32.662 -20.732 -20.719  0.00  0.00    +0.069 C 
ATOM     19  C   UNL     1      35.118 -20.010 -20.605  0.00  0.00    +0.029 C 
ATOM     20  C   UNL     1      33.743 -19.752 -21.091  0.00  0.00    +0.173 C 
ENDROOT
BRANCH   9  21
ATOM     21  O   UNL     1      35.379 -24.558 -12.834  0.00  0.00    -0.452 OA
BRANCH  21  23
ATOM     22  O   UNL     1      36.458 -24.413 -10.800  0.00  0.00    -0.250 OA
ATOM     23  C   UNL     1      36.281 -24.961 -11.880  0.00  0.00    +0.317 C 
BRANCH  23  24
ATOM     24  C   UNL     1      37.020 -26.184 -12.368  0.00  0.00    +0.110 C 
ATOM     25  C   UNL     1      38.460 -25.872 -12.736  0.00  0.00    +0.012 C 
ENDBRANCH  23  24
ENDBRANCH  21  23
ENDBRANCH   9  21
TORSDOF 3
ENDMDL
MODEL 3
REMARK VINA RESULT:      -8.1      5.307      9.281
REMARK  Name = 5995
REMARK  3 active torsions:
REMARK  status: ('A' for Active; 'I' for Inactive)
REMARK    1  A    between atoms: C_9  and  O_21
REMARK    2  A    between atoms: O_21  and  C_23
REMARK    3  A    between atoms: C_23  and  C_24
REMARK                            x       y       z     vdW  Elec       q    Type
REMARK                         _______ _______ _______ _____ _____    ______ ____
ROOT
ATOM      1  O   UNL     1      35.410 -18.461 -21.753  0.00  0.00    -0.291 OA
ATOM      2  C   UNL     1      34.849 -22.881 -15.549  0.00  0.00    +0.003 C 
ATOM      3  C   UNL     1      33.578 -23.741 -15.410  0.00  0.00    +0.037 C 
ATOM      4  C   UNL     1      35.293 -22.714 -17.005  0.00  0.00    +0.001 C 
ATOM      5  C   UNL     1      34.144 -22.023 -17.805  0.00  0.00    +0.003 C 
ATOM      6  C   UNL     1      34.518 -21.764 -19.315  0.00  0.00    +0.016 C 
ATOM      7  C   UNL     1      32.435 -23.019 -16.135  0.00  0.00    +0.003 C 
ATOM      8  C   UNL     1      32.783 -22.749 -17.609  0.00  0.00    +0.000 C 
ATOM      9  C   UNL     1      33.456 -23.761 -13.874  0.00  0.00    +0.169 C 
ATOM     10  C   UNL     1      35.813 -23.507 -14.545  0.00  0.00    +0.004 C 
ATOM     11  C   UNL     1      36.579 -21.885 -17.107  0.00  0.00    +0.004 C 
ATOM     12  C   UNL     1      34.905 -23.960 -13.387  0.00  0.00    +0.044 C 
ATOM     13  C   UNL     1      35.892 -21.087 -19.393  0.00  0.00    -0.042 C 
ATOM     14  C   UNL     1      33.710 -25.184 -15.959  0.00  0.00    +0.004 C 
ATOM     15  C   UNL     1      36.996 -21.693 -18.560  0.00  0.00    +0.022 C 
ATOM     16  C   UNL     1      33.433 -20.838 -19.937  0.00  0.00    +0.012 C 
ATOM     17  C   UNL     1      34.582 -23.077 -20.129  0.00  0.00    +0.004 C 
ATOM     18  C   UNL     1      33.850 -20.207 -21.256  0.00  0.00    +0.069 C 
ATOM     19  C   UNL     1      36.162 -20.020 -20.165  0.00  0.00    +0.029 C 
ATOM     20  C   UNL     1      35.149 -19.463 -21.092  0.00  0.00    +0.173 C 
ENDROOT
BRANCH   9  21
ATOM     21  O   UNL     1      32.600 -24.782 -13.401  0.00  0.00    -0.452 OA
BRANCH  21  23
ATOM     22  O   UNL     1      30.833 -23.575 -12.539  0.00  0.00    -0.250 OA
ATOM     23  C   UNL     1      31.273 -24.449 -13.272  0.00  0.00    +0.317 C 
BRANCH  23  24
ATOM     24  C   UNL     1      30.442 -25.329 -14.176  0.00  0.00    +0.110 C 
ATOM     25  C   UNL     1      29.367 -24.543 -14.906  0.00  0.00    +0.012 C 
ENDBRANCH  23  24
ENDBRANCH  21  23
ENDBRANCH   9  21
TORSDOF 3
ENDMDL
MODEL 4
REMARK VINA RESULT:      -7.9      4.624     11.259
REMARK  Name = 5995
REMARK  3 active torsions:
REMARK  status: ('A' for Active; 'I' for Inactive)
REMARK    1  A    between atoms: C_9  and  O_21
REMARK    2  A    between atoms: O_21  and  C_23
REMARK    3  A    between atoms: C_23  and  C_24
REMARK                            x       y       z     vdW  Elec       q    Type
REMARK                         _______ _______ _______ _____ _____    ______ ____
ROOT
ATOM      1  O   UNL     1      36.380 -23.971 -10.558  0.00  0.00    -0.291 OA
ATOM      2  C   UNL     1      33.998 -22.083 -17.566  0.00  0.00    +0.003 C 
ATOM      3  C   UNL     1      35.072 -21.948 -18.661  0.00  0.00    +0.037 C 
ATOM      4  C   UNL     1      34.332 -23.173 -16.542  0.00  0.00    +0.001 C 
ATOM      5  C   UNL     1      35.690 -22.820 -15.856  0.00  0.00    +0.003 C 
ATOM      6  C   UNL     1      36.105 -23.863 -14.749  0.00  0.00    +0.016 C 
ATOM      7  C   UNL     1      36.386 -21.529 -17.989  0.00  0.00    +0.003 C 
ATOM      8  C   UNL     1      36.806 -22.530 -16.898  0.00  0.00    +0.000 C 
ATOM      9  C   UNL     1      34.414 -20.856 -19.525  0.00  0.00    +0.169 C 
ATOM     10  C   UNL     1      32.695 -22.177 -18.355  0.00  0.00    +0.004 C 
ATOM     11  C   UNL     1      33.227 -23.306 -15.486  0.00  0.00    +0.004 C 
ATOM     12  C   UNL     1      32.927 -21.261 -19.570  0.00  0.00    +0.044 C 
ATOM     13  C   UNL     1      34.920 -24.107 -13.806  0.00  0.00    -0.042 C 
ATOM     14  C   UNL     1      35.306 -23.231 -19.500  0.00  0.00    +0.004 C 
ATOM     15  C   UNL     1      33.580 -24.367 -14.452  0.00  0.00    +0.022 C 
ATOM     16  C   UNL     1      37.307 -23.278 -13.952  0.00  0.00    +0.012 C 
ATOM     17  C   UNL     1      36.522 -25.221 -15.359  0.00  0.00    +0.004 C 
ATOM     18  C   UNL     1      37.571 -23.989 -12.634  0.00  0.00    +0.069 C 
ATOM     19  C   UNL     1      35.018 -24.124 -12.465  0.00  0.00    +0.029 C 
ATOM     20  C   UNL     1      36.327 -23.996 -11.786  0.00  0.00    +0.173 C 
ENDROOT
BRANCH   9  21
ATOM     21  O   UNL     1      34.971 -20.765 -20.822  0.00  0.00    -0.452 OA
BRANCH  21  23
ATOM     22  O   UNL     1      36.066 -18.738 -20.689  0.00  0.00    -0.250 OA
ATOM     23  C   UNL     1      35.295 -19.502 -21.255  0.00  0.00    +0.317 C 
BRANCH  23  24
ATOM     24  C   UNL     1      34.553 -19.202 -22.536  0.00  0.00    +0.110 C 
ATOM     25  C   UNL     1      35.409 -18.428 -23.523  0.00  0.00    +0.012 C 
ENDBRANCH  23  24
ENDBRANCH  21  23
ENDBRANCH   9  21
TORSDOF 3
ENDMDL
MODEL 5
REMARK VINA RESULT:      -7.8      3.567      6.771
REMARK  Name = 5995
REMARK  3 active torsions:
REMARK  status: ('A' for Active; 'I' for Inactive)
REMARK    1  A    between atoms: C_9  and  O_21
REMARK    2  A    between atoms: O_21  and  C_23
REMARK    3  A    between atoms: C_23  and  C_24
REMARK                            x       y       z     vdW  Elec       q    Type
REMARK                         _______ _______ _______ _____ _____    ______ ____
ROOT
ATOM      1  O   UNL     1      30.835  -4.378 -23.598  0.00  0.00    -0.291 OA
ATOM      2  C   UNL     1      32.251 -11.820 -22.620  0.00  0.00    +0.003 C 
ATOM      3  C   UNL     1      33.307 -12.462 -23.540  0.00  0.00    +0.037 C 
ATOM      4  C   UNL     1      32.578 -10.365 -22.271  0.00  0.00    +0.001 C 
ATOM      5  C   UNL     1      32.649  -9.534 -23.591  0.00  0.00    +0.003 C 
ATOM      6  C   UNL     1      32.939  -8.005 -23.337  0.00  0.00    +0.016 C 
ATOM      7  C   UNL     1      33.319 -11.687 -24.863  0.00  0.00    +0.003 C 
ATOM      8  C   UNL     1      33.593 -10.189 -24.638  0.00  0.00    +0.000 C 
ATOM      9  C   UNL     1      32.727 -13.886 -23.632  0.00  0.00    +0.169 C 
ATOM     10  C   UNL     1      32.093 -12.838 -21.494  0.00  0.00    +0.004 C 
ATOM     11  C   UNL     1      31.527  -9.767 -21.327  0.00  0.00    +0.004 C 
ATOM     12  C   UNL     1      32.273 -14.199 -22.193  0.00  0.00    +0.044 C 
ATOM     13  C   UNL     1      31.984  -7.474 -22.261  0.00  0.00    -0.042 C 
ATOM     14  C   UNL     1      34.741 -12.501 -22.950  0.00  0.00    +0.004 C 
ATOM     15  C   UNL     1      31.839  -8.309 -21.011  0.00  0.00    +0.022 C 
ATOM     16  C   UNL     1      32.715  -7.237 -24.672  0.00  0.00    +0.012 C 
ATOM     17  C   UNL     1      34.388  -7.763 -22.857  0.00  0.00    +0.004 C 
ATOM     18  C   UNL     1      32.593  -5.731 -24.498  0.00  0.00    +0.069 C 
ATOM     19  C   UNL     1      31.304  -6.319 -22.362  0.00  0.00    +0.029 C 
ATOM     20  C   UNL     1      31.503  -5.406 -23.511  0.00  0.00    +0.173 C 
ENDROOT
BRANCH   9  21
ATOM     21  O   UNL     1      33.663 -14.836 -24.103  0.00  0.00    -0.452 OA
BRANCH  21  23
ATOM     22  O   UNL     1      32.730 -14.853 -26.214  0.00  0.00    -0.250 OA
ATOM     23  C   UNL     1      33.407 -15.377 -25.340  0.00  0.00    +0.317 C 
BRANCH  23  24
ATOM     24  C   UNL     1      34.090 -16.719 -25.454  0.00  0.00    +0.110 C 
ATOM     25  C   UNL     1      34.787 -17.117 -24.165  0.00  0.00    +0.012 C 
ENDBRANCH  23  24
ENDBRANCH  21  23
ENDBRANCH   9  21
TORSDOF 3
ENDMDL
MODEL 6
REMARK VINA RESULT:      -7.8      2.270      3.336
REMARK  Name = 5995
REMARK  3 active torsions:
REMARK  status: ('A' for Active; 'I' for Inactive)
REMARK    1  A    between atoms: C_9  and  O_21
REMARK    2  A    between atoms: O_21  and  C_23
REMARK    3  A    between atoms: C_23  and  C_24
REMARK                            x       y       z     vdW  Elec       q    Type
REMARK                         _______ _______ _______ _____ _____    ______ ____
ROOT
ATOM      1  O   UNL     1      32.699  -6.947 -22.187  0.00  0.00    -0.291 OA
ATOM      2  C   UNL     1      34.229 -14.422 -22.529  0.00  0.00    +0.003 C 
ATOM      3  C   UNL     1      33.658 -15.310 -21.406  0.00  0.00    +0.037 C 
ATOM      4  C   UNL     1      33.306 -13.254 -22.887  0.00  0.00    +0.001 C 
ATOM      5  C   UNL     1      33.100 -12.368 -21.618  0.00  0.00    +0.003 C 
ATOM      6  C   UNL     1      32.194 -11.107 -21.892  0.00  0.00    +0.016 C 
ATOM      7  C   UNL     1      33.528 -14.451 -20.142  0.00  0.00    +0.003 C 
ATOM      8  C   UNL     1      32.653 -13.209 -20.390  0.00  0.00    +0.000 C 
ATOM      9  C   UNL     1      34.762 -16.382 -21.347  0.00  0.00    +0.169 C 
ATOM     10  C   UNL     1      34.616 -15.425 -23.613  0.00  0.00    +0.004 C 
ATOM     11  C   UNL     1      33.886 -12.412 -24.029  0.00  0.00    +0.004 C 
ATOM     12  C   UNL     1      35.093 -16.660 -22.826  0.00  0.00    +0.044 C 
ATOM     13  C   UNL     1      32.695 -10.378 -23.145  0.00  0.00    -0.042 C 
ATOM     14  C   UNL     1      32.290 -15.962 -21.731  0.00  0.00    +0.004 C 
ATOM     15  C   UNL     1      32.980 -11.232 -24.358  0.00  0.00    +0.022 C 
ATOM     16  C   UNL     1      32.282 -10.163 -20.657  0.00  0.00    +0.012 C 
ATOM     17  C   UNL     1      30.715 -11.495 -22.120  0.00  0.00    +0.004 C 
ATOM     18  C   UNL     1      31.770  -8.757 -20.925  0.00  0.00    +0.069 C 
ATOM     19  C   UNL     1      32.868  -9.048 -23.222  0.00  0.00    +0.029 C 
ATOM     20  C   UNL     1      32.489  -8.155 -22.104  0.00  0.00    +0.173 C 
ENDROOT
BRANCH   9  21
ATOM     21  O   UNL     1      34.358 -17.556 -20.671  0.00  0.00    -0.452 OA
BRANCH  21  23
ATOM     22  O   UNL     1      36.314 -18.780 -20.684  0.00  0.00    -0.250 OA
ATOM     23  C   UNL     1      35.114 -18.679 -20.902  0.00  0.00    +0.317 C 
BRANCH  23  24
ATOM     24  C   UNL     1      34.237 -19.771 -21.469  0.00  0.00    +0.110 C 
ATOM     25  C   UNL     1      33.038 -20.058 -20.581  0.00  0.00    +0.012 C 
ENDBRANCH  23  24
ENDBRANCH  21  23
ENDBRANCH   9  21
TORSDOF 3
ENDMDL
MODEL 7
REMARK VINA RESULT:      -7.6      9.207     13.608
REMARK  Name = 5995
REMARK  3 active torsions:
REMARK  status: ('A' for Active; 'I' for Inactive)
REMARK    1  A    between atoms: C_9  and  O_21
REMARK    2  A    between atoms: O_21  and  C_23
REMARK    3  A    between atoms: C_23  and  C_24
REMARK                            x       y       z     vdW  Elec       q    Type
REMARK                         _______ _______ _______ _____ _____    ______ ____
ROOT
ATOM      1  O   UNL     1      32.430  -7.665 -19.523  0.00  0.00    -0.291 OA
ATOM      2  C   UNL     1      32.969  -3.458 -25.875  0.00  0.00    +0.003 C 
ATOM      3  C   UNL     1      33.589  -4.130 -27.115  0.00  0.00    +0.037 C 
ATOM      4  C   UNL     1      32.165  -4.435 -25.013  0.00  0.00    +0.001 C 
ATOM      5  C   UNL     1      33.113  -5.576 -24.528  0.00  0.00    +0.003 C 
ATOM      6  C   UNL     1      32.388  -6.618 -23.591  0.00  0.00    +0.016 C 
ATOM      7  C   UNL     1      34.576  -5.201 -26.631  0.00  0.00    +0.003 C 
ATOM      8  C   UNL     1      33.890  -6.224 -25.708  0.00  0.00    +0.000 C 
ATOM      9  C   UNL     1      34.244  -2.899 -27.768  0.00  0.00    +0.169 C 
ATOM     10  C   UNL     1      32.275  -2.226 -26.449  0.00  0.00    +0.004 C 
ATOM     11  C   UNL     1      31.533  -3.727 -23.808  0.00  0.00    +0.004 C 
ATOM     12  C   UNL     1      33.191  -1.786 -27.606  0.00  0.00    +0.044 C 
ATOM     13  C   UNL     1      31.620  -5.872 -22.493  0.00  0.00    -0.042 C 
ATOM     14  C   UNL     1      32.563  -4.773 -28.083  0.00  0.00    +0.004 C 
ATOM     15  C   UNL     1      30.762  -4.710 -22.935  0.00  0.00    +0.022 C 
ATOM     16  C   UNL     1      33.470  -7.537 -22.953  0.00  0.00    +0.012 C 
ATOM     17  C   UNL     1      31.382  -7.496 -24.371  0.00  0.00    +0.004 C 
ATOM     18  C   UNL     1      32.968  -8.333 -21.758  0.00  0.00    +0.069 C 
ATOM     19  C   UNL     1      31.654  -6.207 -21.192  0.00  0.00    +0.029 C 
ATOM     20  C   UNL     1      32.381  -7.409 -20.724  0.00  0.00    +0.173 C 
ENDROOT
BRANCH   9  21
ATOM     21  O   UNL     1      34.583  -3.106 -29.125  0.00  0.00    -0.452 OA
BRANCH  21  23
ATOM     22  O   UNL     1      36.817  -2.532 -29.176  0.00  0.00    -0.250 OA
ATOM     23  C   UNL     1      35.912  -3.327 -29.391  0.00  0.00    +0.317 C 
BRANCH  23  24
ATOM     24  C   UNL     1      36.085  -4.702 -29.991  0.00  0.00    +0.110 C 
ATOM     25  C   UNL     1      37.200  -5.483 -29.317  0.00  0.00    +0.012 C 
ENDBRANCH  23  24
ENDBRANCH  21  23
ENDBRANCH   9  21
TORSDOF 3
ENDMDL
MODEL 8
REMARK VINA RESULT:      -7.3      3.102      8.536
REMARK  Name = 5995
REMARK  3 active torsions:
REMARK  status: ('A' for Active; 'I' for Inactive)
REMARK    1  A    between atoms: C_9  and  O_21
REMARK    2  A    between atoms: O_21  and  C_23
REMARK    3  A    between atoms: C_23  and  C_24
REMARK                            x       y       z     vdW  Elec       q    Type
REMARK                         _______ _______ _______ _____ _____    ______ ____
ROOT
ATOM      1  O   UNL     1      36.127 -18.042 -22.587  0.00  0.00    -0.291 OA
ATOM      2  C   UNL     1      32.334 -11.654 -20.811  0.00  0.00    +0.003 C 
ATOM      3  C   UNL     1      32.122 -10.625 -21.937  0.00  0.00    +0.037 C 
ATOM      4  C   UNL     1      32.305 -13.099 -21.317  0.00  0.00    +0.001 C 
ATOM      5  C   UNL     1      33.443 -13.285 -22.371  0.00  0.00    +0.003 C 
ATOM      6  C   UNL     1      33.527 -14.759 -22.927  0.00  0.00    +0.016 C 
ATOM      7  C   UNL     1      33.283 -10.763 -22.930  0.00  0.00    +0.003 C 
ATOM      8  C   UNL     1      33.389 -12.197 -23.479  0.00  0.00    +0.000 C 
ATOM      9  C   UNL     1      32.139  -9.331 -21.102  0.00  0.00    +0.169 C 
ATOM     10  C   UNL     1      31.335 -11.221 -19.741  0.00  0.00    +0.004 C 
ATOM     11  C   UNL     1      32.483 -14.099 -20.168  0.00  0.00    +0.004 C 
ATOM     12  C   UNL     1      31.316  -9.685 -19.848  0.00  0.00    +0.044 C 
ATOM     13  C   UNL     1      33.530 -15.748 -21.755  0.00  0.00    -0.042 C 
ATOM     14  C   UNL     1      30.776 -10.761 -22.693  0.00  0.00    +0.004 C 
ATOM     15  C   UNL     1      32.488 -15.533 -20.682  0.00  0.00    +0.022 C 
ATOM     16  C   UNL     1      34.845 -14.899 -23.743  0.00  0.00    +0.012 C 
ATOM     17  C   UNL     1      32.331 -15.102 -23.844  0.00  0.00    +0.004 C 
ATOM     18  C   UNL     1      35.243 -16.340 -24.019  0.00  0.00    +0.069 C 
ATOM     19  C   UNL     1      34.377 -16.787 -21.649  0.00  0.00    +0.029 C 
ATOM     20  C   UNL     1      35.335 -17.113 -22.731  0.00  0.00    +0.173 C 
ENDROOT
BRANCH   9  21
ATOM     21  O   UNL     1      31.596  -8.221 -21.789  0.00  0.00    -0.452 OA
BRANCH  21  23
ATOM     22  O   UNL     1      32.577  -6.286 -21.005  0.00  0.00    -0.250 OA
ATOM     23  C   UNL     1      32.404  -7.115 -21.888  0.00  0.00    +0.317 C 
BRANCH  23  24
ATOM     24  C   UNL     1      33.045  -7.079 -23.255  0.00  0.00    +0.110 C 
ATOM     25  C   UNL     1      34.510  -7.476 -23.209  0.00  0.00    +0.012 C 
ENDBRANCH  23  24
ENDBRANCH  21  23
ENDBRANCH   9  21
TORSDOF 3
ENDMDL
MODEL 9
REMARK VINA RESULT:      -7.3      9.918     12.653
REMARK  Name = 5995
REMARK  3 active torsions:
REMARK  status: ('A' for Active; 'I' for Inactive)
REMARK    1  A    between atoms: C_9  and  O_21
REMARK    2  A    between atoms: O_21  and  C_23
REMARK    3  A    between atoms: C_23  and  C_24
REMARK                            x       y       z     vdW  Elec       q    Type
REMARK                         _______ _______ _______ _____ _____    ______ ____
ROOT
ATOM      1  O   UNL     1      39.191 -23.605 -12.757  0.00  0.00    -0.291 OA
ATOM      2  C   UNL     1      31.795 -23.160 -14.611  0.00  0.00    +0.003 C 
ATOM      3  C   UNL     1      31.431 -23.327 -16.099  0.00  0.00    +0.037 C 
ATOM      4  C   UNL     1      32.994 -24.017 -14.197  0.00  0.00    +0.001 C 
ATOM      5  C   UNL     1      34.231 -23.600 -15.053  0.00  0.00    +0.003 C 
ATOM      6  C   UNL     1      35.537 -24.398 -14.673  0.00  0.00    +0.016 C 
ATOM      7  C   UNL     1      32.622 -22.845 -16.936  0.00  0.00    +0.003 C 
ATOM      8  C   UNL     1      33.911 -23.606 -16.574  0.00  0.00    +0.000 C 
ATOM      9  C   UNL     1      30.191 -22.414 -16.158  0.00  0.00    +0.169 C 
ATOM     10  C   UNL     1      30.461 -23.351 -13.894  0.00  0.00    +0.004 C 
ATOM     11  C   UNL     1      33.309 -23.855 -12.704  0.00  0.00    +0.004 C 
ATOM     12  C   UNL     1      29.428 -22.736 -14.857  0.00  0.00    +0.044 C 
ATOM     13  C   UNL     1      35.732 -24.364 -13.152  0.00  0.00    -0.042 C 
ATOM     14  C   UNL     1      31.056 -24.772 -16.515  0.00  0.00    +0.004 C 
ATOM     15  C   UNL     1      34.523 -24.684 -12.305  0.00  0.00    +0.022 C 
ATOM     16  C   UNL     1      36.747 -23.720 -15.379  0.00  0.00    +0.012 C 
ATOM     17  C   UNL     1      35.462 -25.877 -15.116  0.00  0.00    +0.004 C 
ATOM     18  C   UNL     1      38.096 -24.141 -14.818  0.00  0.00    +0.069 C 
ATOM     19  C   UNL     1      36.904 -24.094 -12.550  0.00  0.00    +0.029 C 
ATOM     20  C   UNL     1      38.145 -23.894 -13.333  0.00  0.00    +0.173 C 
ENDROOT
BRANCH   9  21
ATOM     21  O   UNL     1      29.392 -22.639 -17.303  0.00  0.00    -0.452 OA
BRANCH  21  23
ATOM     22  O   UNL     1      27.779 -24.287 -17.226  0.00  0.00    -0.250 OA
ATOM     23  C   UNL     1      28.128 -23.124 -17.073  0.00  0.00    +0.317 C 
BRANCH  23  24
ATOM     24  C   UNL     1      27.233 -22.000 -16.604  0.00  0.00    +0.110 C 
ATOM     25  C   UNL     1      26.334 -21.485 -17.714  0.00  0.00    +0.012 C 
ENDBRANCH  23  24
ENDBRANCH  21  23
ENDBRANCH   9  21
TORSDOF 3
ENDMDL
