MODEL 1
REMARK VINA RESULT:      -9.0      0.000      0.000
REMARK  Name = 5288190
REMARK  8 active torsions:
REMARK  status: ('A' for Active; 'I' for Inactive)
REMARK    1  A    between atoms: N_2  and  CA_15
REMARK    2  A    between atoms: C_3  and  CA_5
REMARK    3  A    between atoms: CA_5  and  N_7
REMARK    4  A    between atoms: CA_5  and  CB_11
REMARK    5  A    between atoms: CB_11  and  CG_12
REMARK    6  A    between atoms: CA_15  and  C_17
REMARK    7  A    between atoms: CA_15  and  CB_18
REMARK    8  A    between atoms: CB_18  and  CG_19
REMARK                            x       y       z     vdW  Elec       q    Type
REMARK                         _______ _______ _______ _____ _____    ______ ____
ROOT
ATOM      1  O   LEU A   1      34.874 -15.297 -20.213  0.00  0.00    -0.273 OA
ATOM      2  N   PHE A   2      34.291 -16.482 -22.123  0.00  0.00    -0.298 N 
ATOM      3  C   LEU A   1      34.356 -15.347 -21.326  0.00  0.00    +0.241 C 
ATOM      4  H   PHE A   2      33.851 -16.412 -23.002  0.00  0.00    +0.150 HD
ENDROOT
BRANCH   3   5
ATOM      5  CA  LEU A   1      33.651 -14.156 -21.968  0.00  0.00    +0.149 C 
BRANCH   5   7
ATOM      6  O   UNK A   0      33.871 -12.635 -24.433  0.00  0.00    -0.275 OA
ATOM      7  N   LEU A   1      33.245 -14.564 -23.288  0.00  0.00    -0.298 N 
ATOM      8  C   UNK A   0      33.390 -13.767 -24.412  0.00  0.00    +0.223 C 
ATOM      9  C   UNK A   0      32.908 -14.446 -25.666  0.00  0.00    +0.095 C 
ATOM     10  H   LEU A   1      32.844 -15.457 -23.397  0.00  0.00    +0.150 HD
ENDBRANCH   5   7
BRANCH   5  11
ATOM     11  CB  LEU A   1      32.463 -13.715 -21.105  0.00  0.00    +0.029 C 
BRANCH  11  12
ATOM     12  CG  LEU A   1      32.248 -12.188 -21.031  0.00  0.00    +0.002 C 
ATOM     13  CD1 LEU A   1      31.703 -11.811 -19.650  0.00  0.00    +0.000 C 
ATOM     14  CD2 LEU A   1      31.299 -11.679 -22.116  0.00  0.00    +0.000 C 
ENDBRANCH  11  12
ENDBRANCH   5  11
ENDBRANCH   3   5
BRANCH   2  15
ATOM     15  CA  PHE A   2      34.836 -17.761 -21.728  0.00  0.00    +0.141 C 
BRANCH  15  17
ATOM     16  O   PHE A   2      35.493 -18.704 -23.855  0.00  0.00    -0.286 OA
ATOM     17  C   PHE A   2      35.821 -18.144 -22.811  0.00  0.00    +0.227 C 
ENDBRANCH  15  17
BRANCH  15  18
ATOM     18  CB  PHE A   2      33.755 -18.827 -21.551  0.00  0.00    +0.054 C 
BRANCH  18  19
ATOM     19  CG  PHE A   2      34.193 -19.959 -20.654  0.00  0.00    -0.020 C 
ATOM     20  CD1 PHE A   2      33.242 -20.781 -20.052  0.00  0.00    -0.004 C 
ATOM     21  CD2 PHE A   2      35.552 -20.183 -20.427  0.00  0.00    -0.004 C 
ATOM     22  CE1 PHE A   2      33.647 -21.828 -19.223  0.00  0.00    -0.000 C 
ATOM     23  CE2 PHE A   2      35.957 -21.230 -19.598  0.00  0.00    -0.000 C 
ATOM     24  CZ  PHE A   2      35.005 -22.051 -18.997  0.00  0.00    -0.000 C 
ENDBRANCH  18  19
ENDBRANCH  15  18
ENDBRANCH   2  15
TORSDOF 8
ENDMDL
MODEL 2
REMARK VINA RESULT:      -8.9      0.271      1.064
REMARK  Name = 5288190
REMARK  8 active torsions:
REMARK  status: ('A' for Active; 'I' for Inactive)
REMARK    1  A    between atoms: N_2  and  CA_15
REMARK    2  A    between atoms: C_3  and  CA_5
REMARK    3  A    between atoms: CA_5  and  N_7
REMARK    4  A    between atoms: CA_5  and  CB_11
REMARK    5  A    between atoms: CB_11  and  CG_12
REMARK    6  A    between atoms: CA_15  and  C_17
REMARK    7  A    between atoms: CA_15  and  CB_18
REMARK    8  A    between atoms: CB_18  and  CG_19
REMARK                            x       y       z     vdW  Elec       q    Type
REMARK                         _______ _______ _______ _____ _____    ______ ____
ROOT
ATOM      1  O   LEU A   1      34.841 -15.546 -20.350  0.00  0.00    -0.273 OA
ATOM      2  N   PHE A   2      34.299 -16.578 -22.358  0.00  0.00    -0.298 N 
ATOM      3  C   LEU A   1      34.352 -15.507 -21.477  0.00  0.00    +0.241 C 
ATOM      4  H   PHE A   2      33.883 -16.438 -23.240  0.00  0.00    +0.150 HD
ENDROOT
BRANCH   3   5
ATOM      5  CA  LEU A   1      33.676 -14.263 -22.046  0.00  0.00    +0.149 C 
BRANCH   5   7
ATOM      6  O   UNK A   0      33.902 -12.620 -24.430  0.00  0.00    -0.275 OA
ATOM      7  N   LEU A   1      33.240 -14.590 -23.379  0.00  0.00    -0.298 N 
ATOM      8  C   UNK A   0      33.390 -13.738 -24.461  0.00  0.00    +0.223 C 
ATOM      9  C   UNK A   0      32.872 -14.336 -25.741  0.00  0.00    +0.095 C 
ATOM     10  H   LEU A   1      32.813 -15.464 -23.528  0.00  0.00    +0.150 HD
ENDBRANCH   5   7
BRANCH   5  11
ATOM     11  CB  LEU A   1      32.514 -13.832 -21.143  0.00  0.00    +0.029 C 
BRANCH  11  12
ATOM     12  CG  LEU A   1      32.268 -12.310 -21.086  0.00  0.00    +0.002 C 
ATOM     13  CD1 LEU A   1      31.749 -11.923 -19.697  0.00  0.00    +0.000 C 
ATOM     14  CD2 LEU A   1      31.282 -11.838 -22.155  0.00  0.00    +0.000 C 
ENDBRANCH  11  12
ENDBRANCH   5  11
ENDBRANCH   3   5
BRANCH   2  15
ATOM     15  CA  PHE A   2      34.822 -17.888 -22.046  0.00  0.00    +0.141 C 
BRANCH  15  17
ATOM     16  O   PHE A   2      34.961 -19.139 -24.111  0.00  0.00    -0.286 OA
ATOM     17  C   PHE A   2      35.497 -18.377 -23.310  0.00  0.00    +0.227 C 
ENDBRANCH  15  17
BRANCH  15  18
ATOM     18  CB  PHE A   2      33.733 -18.857 -21.582  0.00  0.00    +0.054 C 
BRANCH  18  19
ATOM     19  CG  PHE A   2      34.266 -19.950 -20.689  0.00  0.00    -0.020 C 
ATOM     20  CD1 PHE A   2      35.641 -20.089 -20.499  0.00  0.00    -0.004 C 
ATOM     21  CD2 PHE A   2      33.383 -20.824 -20.054  0.00  0.00    -0.004 C 
ATOM     22  CE1 PHE A   2      36.133 -21.100 -19.674  0.00  0.00    -0.000 C 
ATOM     23  CE2 PHE A   2      33.876 -21.835 -19.228  0.00  0.00    -0.000 C 
ATOM     24  CZ  PHE A   2      35.250 -21.972 -19.038  0.00  0.00    -0.000 C 
ENDBRANCH  18  19
ENDBRANCH  15  18
ENDBRANCH   2  15
TORSDOF 8
ENDMDL
MODEL 3
REMARK VINA RESULT:      -8.7      4.580      9.034
REMARK  Name = 5288190
REMARK  8 active torsions:
REMARK  status: ('A' for Active; 'I' for Inactive)
REMARK    1  A    between atoms: N_2  and  CA_15
REMARK    2  A    between atoms: C_3  and  CA_5
REMARK    3  A    between atoms: CA_5  and  N_7
REMARK    4  A    between atoms: CA_5  and  CB_11
REMARK    5  A    between atoms: CB_11  and  CG_12
REMARK    6  A    between atoms: CA_15  and  C_17
REMARK    7  A    between atoms: CA_15  and  CB_18
REMARK    8  A    between atoms: CB_18  and  CG_19
REMARK                            x       y       z     vdW  Elec       q    Type
REMARK                         _______ _______ _______ _____ _____    ______ ____
ROOT
ATOM      1  O   LEU A   1      33.925 -23.914 -19.616  0.00  0.00    -0.273 OA
ATOM      2  N   PHE A   2      34.185 -21.731 -18.868  0.00  0.00    -0.298 N 
ATOM      3  C   LEU A   1      33.908 -23.082 -18.712  0.00  0.00    +0.241 C 
ATOM      4  H   PHE A   2      34.143 -21.150 -18.074  0.00  0.00    +0.150 HD
ENDROOT
BRANCH   3   5
ATOM      5  CA  LEU A   1      33.519 -23.425 -17.277  0.00  0.00    +0.149 C 
BRANCH   5   7
ATOM      6  O   UNK A   0      35.349 -24.980 -15.644  0.00  0.00    -0.275 OA
ATOM      7  N   LEU A   1      34.567 -22.929 -16.423  0.00  0.00    -0.298 N 
ATOM      8  C   UNK A   0      35.396 -23.752 -15.677  0.00  0.00    +0.223 C 
ATOM      9  C   UNK A   0      36.421 -22.977 -14.893  0.00  0.00    +0.095 C 
ATOM     10  H   LEU A   1      34.702 -21.956 -16.368  0.00  0.00    +0.150 HD
ENDBRANCH   5   7
BRANCH   5  11
ATOM     11  CB  LEU A   1      32.155 -22.813 -16.937  0.00  0.00    +0.029 C 
BRANCH  11  12
ATOM     12  CG  LEU A   1      31.406 -23.502 -15.778  0.00  0.00    +0.002 C 
ATOM     13  CD1 LEU A   1      29.904 -23.533 -16.078  0.00  0.00    +0.000 C 
ATOM     14  CD2 LEU A   1      31.649 -22.812 -14.435  0.00  0.00    +0.000 C 
ENDBRANCH  11  12
ENDBRANCH   5  11
ENDBRANCH   3   5
BRANCH   2  15
ATOM     15  CA  PHE A   2      34.531 -21.134 -20.138  0.00  0.00    +0.141 C 
BRANCH  15  17
ATOM     16  O   PHE A   2      36.557 -20.600 -18.932  0.00  0.00    -0.286 OA
ATOM     17  C   PHE A   2      35.972 -20.692 -20.009  0.00  0.00    +0.227 C 
ENDBRANCH  15  17
BRANCH  15  18
ATOM     18  CB  PHE A   2      33.616 -19.965 -20.503  0.00  0.00    +0.054 C 
BRANCH  18  19
ATOM     19  CG  PHE A   2      34.239 -19.026 -21.507  0.00  0.00    -0.020 C 
ATOM     20  CD1 PHE A   2      34.479 -17.696 -21.164  0.00  0.00    -0.004 C 
ATOM     21  CD2 PHE A   2      34.575 -19.490 -22.779  0.00  0.00    -0.004 C 
ATOM     22  CE1 PHE A   2      35.056 -16.829 -22.093  0.00  0.00    -0.000 C 
ATOM     23  CE2 PHE A   2      35.152 -18.623 -23.707  0.00  0.00    -0.000 C 
ATOM     24  CZ  PHE A   2      35.392 -17.293 -23.364  0.00  0.00    -0.000 C 
ENDBRANCH  18  19
ENDBRANCH  15  18
ENDBRANCH   2  15
TORSDOF 8
ENDMDL
MODEL 4
REMARK VINA RESULT:      -8.7      6.700     11.017
REMARK  Name = 5288190
REMARK  8 active torsions:
REMARK  status: ('A' for Active; 'I' for Inactive)
REMARK    1  A    between atoms: N_2  and  CA_15
REMARK    2  A    between atoms: C_3  and  CA_5
REMARK    3  A    between atoms: CA_5  and  N_7
REMARK    4  A    between atoms: CA_5  and  CB_11
REMARK    5  A    between atoms: CB_11  and  CG_12
REMARK    6  A    between atoms: CA_15  and  C_17
REMARK    7  A    between atoms: CA_15  and  CB_18
REMARK    8  A    between atoms: CB_18  and  CG_19
REMARK                            x       y       z     vdW  Elec       q    Type
REMARK                         _______ _______ _______ _____ _____    ______ ____
ROOT
ATOM      1  O   LEU A   1      36.217 -22.829 -16.344  0.00  0.00    -0.273 OA
ATOM      2  N   PHE A   2      34.101 -23.667 -15.882  0.00  0.00    -0.298 N 
ATOM      3  C   LEU A   1      35.471 -23.552 -15.688  0.00  0.00    +0.241 C 
ATOM      4  H   PHE A   2      33.596 -24.278 -15.297  0.00  0.00    +0.150 HD
ENDROOT
BRANCH   3   5
ATOM      5  CA  LEU A   1      35.973 -24.480 -14.586  0.00  0.00    +0.149 C 
BRANCH   5   7
ATOM      6  O   UNK A   0      37.746 -26.742 -15.004  0.00  0.00    -0.275 OA
ATOM      7  N   LEU A   1      37.412 -24.466 -14.643  0.00  0.00    -0.298 N 
ATOM      8  C   UNK A   0      38.179 -25.602 -14.848  0.00  0.00    +0.223 C 
ATOM      9  C   UNK A   0      39.653 -25.302 -14.890  0.00  0.00    +0.095 C 
ATOM     10  H   LEU A   1      37.875 -23.604 -14.531  0.00  0.00    +0.150 HD
ENDBRANCH   5   7
BRANCH   5  11
ATOM     11  CB  LEU A   1      35.442 -24.021 -13.223  0.00  0.00    +0.029 C 
BRANCH  11  12
ATOM     12  CG  LEU A   1      36.433 -24.187 -12.052  0.00  0.00    +0.002 C 
ATOM     13  CD1 LEU A   1      35.678 -24.634 -10.796  0.00  0.00    +0.000 C 
ATOM     14  CD2 LEU A   1      37.208 -22.902 -11.757  0.00  0.00    +0.000 C 
ENDBRANCH  11  12
ENDBRANCH   5  11
ENDBRANCH   3   5
BRANCH   2  15
ATOM     15  CA  PHE A   2      33.380 -22.936 -16.898  0.00  0.00    +0.141 C 
BRANCH  15  17
ATOM     16  O   PHE A   2      31.005 -22.528 -17.091  0.00  0.00    -0.286 OA
ATOM     17  C   PHE A   2      31.915 -23.233 -16.662  0.00  0.00    +0.227 C 
ENDBRANCH  15  17
BRANCH  15  18
ATOM     18  CB  PHE A   2      33.810 -23.325 -18.313  0.00  0.00    +0.054 C 
BRANCH  18  19
ATOM     19  CG  PHE A   2      34.142 -22.129 -19.172  0.00  0.00    -0.020 C 
ATOM     20  CD1 PHE A   2      33.120 -21.311 -19.654  0.00  0.00    -0.004 C 
ATOM     21  CD2 PHE A   2      35.471 -21.843 -19.485  0.00  0.00    -0.004 C 
ATOM     22  CE1 PHE A   2      33.428 -20.206 -20.448  0.00  0.00    -0.000 C 
ATOM     23  CE2 PHE A   2      35.778 -20.737 -20.278  0.00  0.00    -0.000 C 
ATOM     24  CZ  PHE A   2      34.756 -19.919 -20.760  0.00  0.00    -0.000 C 
ENDBRANCH  18  19
ENDBRANCH  15  18
ENDBRANCH   2  15
TORSDOF 8
ENDMDL
MODEL 5
REMARK VINA RESULT:      -8.5      1.878      2.742
REMARK  Name = 5288190
REMARK  8 active torsions:
REMARK  status: ('A' for Active; 'I' for Inactive)
REMARK    1  A    between atoms: N_2  and  CA_15
REMARK    2  A    between atoms: C_3  and  CA_5
REMARK    3  A    between atoms: CA_5  and  N_7
REMARK    4  A    between atoms: CA_5  and  CB_11
REMARK    5  A    between atoms: CB_11  and  CG_12
REMARK    6  A    between atoms: CA_15  and  C_17
REMARK    7  A    between atoms: CA_15  and  CB_18
REMARK    8  A    between atoms: CB_18  and  CG_19
REMARK                            x       y       z     vdW  Elec       q    Type
REMARK                         _______ _______ _______ _____ _____    ______ ____
ROOT
ATOM      1  O   LEU A   1      32.305 -14.604 -22.352  0.00  0.00    -0.273 OA
ATOM      2  N   PHE A   2      34.371 -15.621 -22.649  0.00  0.00    -0.298 N 
ATOM      3  C   LEU A   1      33.415 -14.641 -22.877  0.00  0.00    +0.241 C 
ATOM      4  H   PHE A   2      35.232 -15.554 -23.123  0.00  0.00    +0.150 HD
ENDROOT
BRANCH   3   5
ATOM      5  CA  LEU A   1      33.877 -13.621 -23.914  0.00  0.00    +0.149 C 
BRANCH   5   7
ATOM      6  O   UNK A   0      34.152 -15.744 -25.878  0.00  0.00    -0.275 OA
ATOM      7  N   LEU A   1      33.081 -13.829 -25.097  0.00  0.00    -0.298 N 
ATOM      8  C   UNK A   0      33.287 -14.877 -25.981  0.00  0.00    +0.223 C 
ATOM      9  C   UNK A   0      32.299 -14.874 -27.116  0.00  0.00    +0.095 C 
ATOM     10  H   LEU A   1      32.353 -13.194 -25.286  0.00  0.00    +0.150 HD
ENDBRANCH   5   7
BRANCH   5  11
ATOM     11  CB  LEU A   1      33.734 -12.199 -23.361  0.00  0.00    +0.029 C 
BRANCH  11  12
ATOM     12  CG  LEU A   1      33.502 -11.109 -24.428  0.00  0.00    +0.002 C 
ATOM     13  CD1 LEU A   1      34.824 -10.787 -25.132  0.00  0.00    +0.000 C 
ATOM     14  CD2 LEU A   1      32.909  -9.830 -23.835  0.00  0.00    +0.000 C 
ENDBRANCH  11  12
ENDBRANCH   5  11
ENDBRANCH   3   5
BRANCH   2  15
ATOM     15  CA  PHE A   2      34.167 -16.733 -21.749  0.00  0.00    +0.141 C 
BRANCH  15  17
ATOM     16  O   PHE A   2      35.064 -15.126 -20.181  0.00  0.00    -0.286 OA
ATOM     17  C   PHE A   2      34.610 -16.250 -20.385  0.00  0.00    +0.227 C 
ENDBRANCH  15  17
BRANCH  15  18
ATOM     18  CB  PHE A   2      34.939 -17.981 -22.179  0.00  0.00    +0.054 C 
BRANCH  18  19
ATOM     19  CG  PHE A   2      34.682 -19.165 -21.279  0.00  0.00    -0.020 C 
ATOM     20  CD1 PHE A   2      33.373 -19.548 -20.986  0.00  0.00    -0.004 C 
ATOM     21  CD2 PHE A   2      35.754 -19.877 -20.740  0.00  0.00    -0.004 C 
ATOM     22  CE1 PHE A   2      33.136 -20.642 -20.154  0.00  0.00    -0.000 C 
ATOM     23  CE2 PHE A   2      35.516 -20.973 -19.909  0.00  0.00    -0.000 C 
ATOM     24  CZ  PHE A   2      34.207 -21.354 -19.616  0.00  0.00    -0.000 C 
ENDBRANCH  18  19
ENDBRANCH  15  18
ENDBRANCH   2  15
TORSDOF 8
ENDMDL
MODEL 6
REMARK VINA RESULT:      -8.5      4.248      6.255
REMARK  Name = 5288190
REMARK  8 active torsions:
REMARK  status: ('A' for Active; 'I' for Inactive)
REMARK    1  A    between atoms: N_2  and  CA_15
REMARK    2  A    between atoms: C_3  and  CA_5
REMARK    3  A    between atoms: CA_5  and  N_7
REMARK    4  A    between atoms: CA_5  and  CB_11
REMARK    5  A    between atoms: CB_11  and  CG_12
REMARK    6  A    between atoms: CA_15  and  C_17
REMARK    7  A    between atoms: CA_15  and  CB_18
REMARK    8  A    between atoms: CB_18  and  CG_19
REMARK                            x       y       z     vdW  Elec       q    Type
REMARK                         _______ _______ _______ _____ _____    ______ ____
ROOT
ATOM      1  O   LEU A   1      34.950  -9.777 -23.890  0.00  0.00    -0.273 OA
ATOM      2  N   PHE A   2      33.104 -11.170 -24.102  0.00  0.00    -0.298 N 
ATOM      3  C   LEU A   1      33.747  -9.990 -23.755  0.00  0.00    +0.241 C 
ATOM      4  H   PHE A   2      32.133 -11.236 -23.951  0.00  0.00    +0.150 HD
ENDROOT
BRANCH   3   5
ATOM      5  CA  LEU A   1      32.792  -8.983 -23.122  0.00  0.00    +0.149 C 
BRANCH   5   7
ATOM      6  O   UNK A   0      30.696 -10.792 -22.245  0.00  0.00    -0.275 OA
ATOM      7  N   LEU A   1      32.529  -9.433 -21.780  0.00  0.00    -0.298 N 
ATOM      8  C   UNK A   0      31.500 -10.303 -21.454  0.00  0.00    +0.223 C 
ATOM      9  C   UNK A   0      31.466 -10.629 -19.986  0.00  0.00    +0.095 C 
ATOM     10  H   LEU A   1      33.111  -9.106 -21.056  0.00  0.00    +0.150 HD
ENDBRANCH   5   7
BRANCH   5  11
ATOM     11  CB  LEU A   1      33.405  -7.578 -23.154  0.00  0.00    +0.029 C 
BRANCH  11  12
ATOM     12  CG  LEU A   1      32.390  -6.432 -23.346  0.00  0.00    +0.002 C 
ATOM     13  CD1 LEU A   1      31.946  -5.900 -21.980  0.00  0.00    +0.000 C 
ATOM     14  CD2 LEU A   1      31.165  -6.867 -24.152  0.00  0.00    +0.000 C 
ENDBRANCH  11  12
ENDBRANCH   5  11
ENDBRANCH   3   5
BRANCH   2  15
ATOM     15  CA  PHE A   2      33.788 -12.307 -24.673  0.00  0.00    +0.141 C 
BRANCH  15  17
ATOM     16  O   PHE A   2      33.537 -12.829 -27.021  0.00  0.00    -0.286 OA
ATOM     17  C   PHE A   2      33.889 -12.028 -26.157  0.00  0.00    +0.227 C 
ENDBRANCH  15  17
BRANCH  15  18
ATOM     18  CB  PHE A   2      33.062 -13.625 -24.399  0.00  0.00    +0.054 C 
BRANCH  18  19
ATOM     19  CG  PHE A   2      33.334 -14.165 -23.016  0.00  0.00    -0.020 C 
ATOM     20  CD1 PHE A   2      32.438 -13.910 -21.979  0.00  0.00    -0.004 C 
ATOM     21  CD2 PHE A   2      34.483 -14.919 -22.776  0.00  0.00    -0.004 C 
ATOM     22  CE1 PHE A   2      32.690 -14.409 -20.701  0.00  0.00    -0.000 C 
ATOM     23  CE2 PHE A   2      34.734 -15.418 -21.497  0.00  0.00    -0.000 C 
ATOM     24  CZ  PHE A   2      33.838 -15.163 -20.461  0.00  0.00    -0.000 C 
ENDBRANCH  18  19
ENDBRANCH  15  18
ENDBRANCH   2  15
TORSDOF 8
ENDMDL
MODEL 7
REMARK VINA RESULT:      -8.5      1.096      2.878
REMARK  Name = 5288190
REMARK  8 active torsions:
REMARK  status: ('A' for Active; 'I' for Inactive)
REMARK    1  A    between atoms: N_2  and  CA_15
REMARK    2  A    between atoms: C_3  and  CA_5
REMARK    3  A    between atoms: CA_5  and  N_7
REMARK    4  A    between atoms: CA_5  and  CB_11
REMARK    5  A    between atoms: CB_11  and  CG_12
REMARK    6  A    between atoms: CA_15  and  C_17
REMARK    7  A    between atoms: CA_15  and  CB_18
REMARK    8  A    between atoms: CB_18  and  CG_19
REMARK                            x       y       z     vdW  Elec       q    Type
REMARK                         _______ _______ _______ _____ _____    ______ ____
ROOT
ATOM      1  O   LEU A   1      34.687 -15.552 -20.216  0.00  0.00    -0.273 OA
ATOM      2  N   PHE A   2      34.078 -16.807 -22.073  0.00  0.00    -0.298 N 
ATOM      3  C   LEU A   1      34.103 -15.660 -21.292  0.00  0.00    +0.241 C 
ATOM      4  H   PHE A   2      33.578 -16.785 -22.921  0.00  0.00    +0.150 HD
ENDROOT
BRANCH   3   5
ATOM      5  CA  LEU A   1      33.264 -14.538 -21.896  0.00  0.00    +0.149 C 
BRANCH   5   7
ATOM      6  O   UNK A   0      31.417 -12.298 -21.995  0.00  0.00    -0.275 OA
ATOM      7  N   LEU A   1      32.908 -13.648 -20.821  0.00  0.00    -0.298 N 
ATOM      8  C   UNK A   0      32.012 -12.601 -20.962  0.00  0.00    +0.223 C 
ATOM      9  C   UNK A   0      31.803 -11.846 -19.677  0.00  0.00    +0.095 C 
ATOM     10  H   LEU A   1      33.323 -13.793 -19.940  0.00  0.00    +0.150 HD
ENDBRANCH   5   7
BRANCH   5  11
ATOM     11  CB  LEU A   1      34.048 -13.826 -23.004  0.00  0.00    +0.029 C 
BRANCH  11  12
ATOM     12  CG  LEU A   1      33.270 -13.624 -24.321  0.00  0.00    +0.002 C 
ATOM     13  CD1 LEU A   1      33.374 -14.887 -25.181  0.00  0.00    +0.000 C 
ATOM     14  CD2 LEU A   1      33.773 -12.417 -25.116  0.00  0.00    +0.000 C 
ENDBRANCH  11  12
ENDBRANCH   5  11
ENDBRANCH   3   5
BRANCH   2  15
ATOM     15  CA  PHE A   2      34.750 -18.032 -21.703  0.00  0.00    +0.141 C 
BRANCH  15  17
ATOM     16  O   PHE A   2      35.550 -17.960 -23.984  0.00  0.00    -0.286 OA
ATOM     17  C   PHE A   2      35.725 -18.324 -22.823  0.00  0.00    +0.227 C 
ENDBRANCH  15  17
BRANCH  15  18
ATOM     18  CB  PHE A   2      33.776 -19.192 -21.492  0.00  0.00    +0.054 C 
BRANCH  18  19
ATOM     19  CG  PHE A   2      34.296 -20.221 -20.518  0.00  0.00    -0.020 C 
ATOM     20  CD1 PHE A   2      35.668 -20.363 -20.320  0.00  0.00    -0.004 C 
ATOM     21  CD2 PHE A   2      33.401 -21.031 -19.817  0.00  0.00    -0.004 C 
ATOM     22  CE1 PHE A   2      36.148 -21.315 -19.420  0.00  0.00    -0.000 C 
ATOM     23  CE2 PHE A   2      33.882 -21.982 -18.916  0.00  0.00    -0.000 C 
ATOM     24  CZ  PHE A   2      35.255 -22.124 -18.718  0.00  0.00    -0.000 C 
ENDBRANCH  18  19
ENDBRANCH  15  18
ENDBRANCH   2  15
TORSDOF 8
ENDMDL
MODEL 8
REMARK VINA RESULT:      -8.4      6.577     11.210
REMARK  Name = 5288190
REMARK  8 active torsions:
REMARK  status: ('A' for Active; 'I' for Inactive)
REMARK    1  A    between atoms: N_2  and  CA_15
REMARK    2  A    between atoms: C_3  and  CA_5
REMARK    3  A    between atoms: CA_5  and  N_7
REMARK    4  A    between atoms: CA_5  and  CB_11
REMARK    5  A    between atoms: CB_11  and  CG_12
REMARK    6  A    between atoms: CA_15  and  C_17
REMARK    7  A    between atoms: CA_15  and  CB_18
REMARK    8  A    between atoms: CB_18  and  CG_19
REMARK                            x       y       z     vdW  Elec       q    Type
REMARK                         _______ _______ _______ _____ _____    ______ ____
ROOT
ATOM      1  O   LEU A   1      36.718 -21.534 -16.294  0.00  0.00    -0.273 OA
ATOM      2  N   PHE A   2      35.213 -23.184 -15.656  0.00  0.00    -0.298 N 
ATOM      3  C   LEU A   1      36.425 -22.509 -15.605  0.00  0.00    +0.241 C 
ATOM      4  H   PHE A   2      35.083 -23.956 -15.059  0.00  0.00    +0.150 HD
ENDROOT
BRANCH   3   5
ATOM      5  CA  LEU A   1      37.399 -23.153 -14.623  0.00  0.00    +0.149 C 
BRANCH   5   7
ATOM      6  O   UNK A   0      37.920 -22.568 -11.826  0.00  0.00    -0.275 OA
ATOM      7  N   LEU A   1      36.630 -23.578 -13.482  0.00  0.00    -0.298 N 
ATOM      8  C   UNK A   0      36.958 -23.249 -12.176  0.00  0.00    +0.223 C 
ATOM      9  C   UNK A   0      35.974 -23.800 -11.180  0.00  0.00    +0.095 C 
ATOM     10  H   LEU A   1      35.831 -24.131 -13.638  0.00  0.00    +0.150 HD
ENDBRANCH   5   7
BRANCH   5  11
ATOM     11  CB  LEU A   1      38.136 -24.318 -15.294  0.00  0.00    +0.029 C 
BRANCH  11  12
ATOM     12  CG  LEU A   1      38.548 -25.459 -14.340  0.00  0.00    +0.002 C 
ATOM     13  CD1 LEU A   1      40.040 -25.760 -14.510  0.00  0.00    +0.000 C 
ATOM     14  CD2 LEU A   1      37.735 -26.733 -14.571  0.00  0.00    +0.000 C 
ENDBRANCH  11  12
ENDBRANCH   5  11
ENDBRANCH   3   5
BRANCH   2  15
ATOM     15  CA  PHE A   2      34.134 -22.811 -16.542  0.00  0.00    +0.141 C 
BRANCH  15  17
ATOM     16  O   PHE A   2      31.751 -23.148 -16.319  0.00  0.00    -0.286 OA
ATOM     17  C   PHE A   2      32.889 -23.454 -15.971  0.00  0.00    +0.227 C 
ENDBRANCH  15  17
BRANCH  15  18
ATOM     18  CB  PHE A   2      34.383 -23.254 -17.984  0.00  0.00    +0.054 C 
BRANCH  18  19
ATOM     19  CG  PHE A   2      34.390 -22.099 -18.956  0.00  0.00    -0.020 C 
ATOM     20  CD1 PHE A   2      35.598 -21.625 -19.467  0.00  0.00    -0.004 C 
ATOM     21  CD2 PHE A   2      33.188 -21.506 -19.343  0.00  0.00    -0.004 C 
ATOM     22  CE1 PHE A   2      35.605 -20.557 -20.365  0.00  0.00    -0.000 C 
ATOM     23  CE2 PHE A   2      33.195 -20.439 -20.242  0.00  0.00    -0.000 C 
ATOM     24  CZ  PHE A   2      34.403 -19.965 -20.752  0.00  0.00    -0.000 C 
ENDBRANCH  18  19
ENDBRANCH  15  18
ENDBRANCH   2  15
TORSDOF 8
ENDMDL
MODEL 9
REMARK VINA RESULT:      -8.4      4.086      6.075
REMARK  Name = 5288190
REMARK  8 active torsions:
REMARK  status: ('A' for Active; 'I' for Inactive)
REMARK    1  A    between atoms: N_2  and  CA_15
REMARK    2  A    between atoms: C_3  and  CA_5
REMARK    3  A    between atoms: CA_5  and  N_7
REMARK    4  A    between atoms: CA_5  and  CB_11
REMARK    5  A    between atoms: CB_11  and  CG_12
REMARK    6  A    between atoms: CA_15  and  C_17
REMARK    7  A    between atoms: CA_15  and  CB_18
REMARK    8  A    between atoms: CB_18  and  CG_19
REMARK                            x       y       z     vdW  Elec       q    Type
REMARK                         _______ _______ _______ _____ _____    ______ ____
ROOT
ATOM      1  O   LEU A   1      34.673  -9.755 -23.790  0.00  0.00    -0.273 OA
ATOM      2  N   PHE A   2      33.049 -11.415 -23.772  0.00  0.00    -0.298 N 
ATOM      3  C   LEU A   1      33.555 -10.157 -23.475  0.00  0.00    +0.241 C 
ATOM      4  H   PHE A   2      32.137 -11.635 -23.471  0.00  0.00    +0.150 HD
ENDROOT
BRANCH   3   5
ATOM      5  CA  LEU A   1      32.576  -9.326 -22.650  0.00  0.00    +0.149 C 
BRANCH   5   7
ATOM      6  O   UNK A   0      32.600  -6.433 -22.387  0.00  0.00    -0.275 OA
ATOM      7  N   LEU A   1      31.984  -8.361 -23.540  0.00  0.00    -0.298 N 
ATOM      8  C   UNK A   0      32.046  -6.992 -23.332  0.00  0.00    +0.223 C 
ATOM      9  C   UNK A   0      31.367  -6.213 -24.426  0.00  0.00    +0.095 C 
ATOM     10  H   LEU A   1      31.510  -8.692 -24.337  0.00  0.00    +0.150 HD
ENDBRANCH   5   7
BRANCH   5  11
ATOM     11  CB  LEU A   1      31.529 -10.234 -21.996  0.00  0.00    +0.029 C 
BRANCH  11  12
ATOM     12  CG  LEU A   1      31.368 -10.047 -20.473  0.00  0.00    +0.002 C 
ATOM     13  CD1 LEU A   1      32.310  -8.941 -19.987  0.00  0.00    +0.000 C 
ATOM     14  CD2 LEU A   1      31.643 -11.335 -19.696  0.00  0.00    +0.000 C 
ENDBRANCH  11  12
ENDBRANCH   5  11
ENDBRANCH   3   5
BRANCH   2  15
ATOM     15  CA  PHE A   2      33.792 -12.417 -24.500  0.00  0.00    +0.141 C 
BRANCH  15  17
ATOM     16  O   PHE A   2      33.477 -12.707 -26.879  0.00  0.00    -0.286 OA
ATOM     17  C   PHE A   2      33.786 -11.970 -25.945  0.00  0.00    +0.227 C 
ENDBRANCH  15  17
BRANCH  15  18
ATOM     18  CB  PHE A   2      33.196 -13.816 -24.343  0.00  0.00    +0.054 C 
BRANCH  18  19
ATOM     19  CG  PHE A   2      33.420 -14.396 -22.968  0.00  0.00    -0.020 C 
ATOM     20  CD1 PHE A   2      34.565 -15.146 -22.704  0.00  0.00    -0.004 C 
ATOM     21  CD2 PHE A   2      32.479 -14.182 -21.960  0.00  0.00    -0.004 C 
ATOM     22  CE1 PHE A   2      34.771 -15.682 -21.433  0.00  0.00    -0.000 C 
ATOM     23  CE2 PHE A   2      32.686 -14.718 -20.688  0.00  0.00    -0.000 C 
ATOM     24  CZ  PHE A   2      33.832 -15.467 -20.426  0.00  0.00    -0.000 C 
ENDBRANCH  18  19
ENDBRANCH  15  18
ENDBRANCH   2  15
TORSDOF 8
ENDMDL
