MODEL 1
REMARK VINA RESULT:      -3.6      0.000      0.000
REMARK  Name = 84682
REMARK  2 active torsions:
REMARK  status: ('A' for Active; 'I' for Inactive)
REMARK    1  A    between atoms: C_1  and  O_3
REMARK    2  A    between atoms: C_1  and  C_5
REMARK                            x       y       z     vdW  Elec       q    Type
REMARK                         _______ _______ _______ _____ _____    ______ ____
ROOT
ATOM      1  C   UNL     1      33.547 -20.996 -19.653  0.00  0.00    +0.111 C 
ATOM      2  C   UNL     1      32.828 -20.009 -20.564  0.00  0.00    +0.032 C 
ENDROOT
BRANCH   1   3
ATOM      3  O   UNL     1      32.960 -22.283 -19.817  0.00  0.00    -0.384 OA
ATOM      4  H   UNL     1      32.072 -22.287 -19.426  0.00  0.00    +0.210 HD
ENDBRANCH   1   3
BRANCH   1   5
ATOM      5  C   UNL     1      35.038 -21.077 -19.990  0.00  0.00    +0.029 C 
ATOM      6  C   UNL     1      35.846 -21.725 -18.874  0.00  0.00    +0.003 C 
ENDBRANCH   1   5
TORSDOF 2
ENDMDL
MODEL 2
REMARK VINA RESULT:      -3.6      2.683      3.208
REMARK  Name = 84682
REMARK  2 active torsions:
REMARK  status: ('A' for Active; 'I' for Inactive)
REMARK    1  A    between atoms: C_1  and  O_3
REMARK    2  A    between atoms: C_1  and  C_5
REMARK                            x       y       z     vdW  Elec       q    Type
REMARK                         _______ _______ _______ _____ _____    ______ ____
ROOT
ATOM      1  C   UNL     1      34.815 -19.575 -21.401  0.00  0.00    +0.111 C 
ATOM      2  C   UNL     1      34.803 -19.222 -22.883  0.00  0.00    +0.032 C 
ENDROOT
BRANCH   1   3
ATOM      3  O   UNL     1      35.492 -18.544 -20.689  0.00  0.00    -0.384 OA
ATOM      4  H   UNL     1      36.360 -18.867 -20.399  0.00  0.00    +0.210 HD
ENDBRANCH   1   3
BRANCH   1   5
ATOM      5  C   UNL     1      33.392 -19.713 -20.853  0.00  0.00    +0.029 C 
ATOM      6  C   UNL     1      33.263 -20.867 -19.869  0.00  0.00    +0.003 C 
ENDBRANCH   1   5
TORSDOF 2
ENDMDL
MODEL 3
REMARK VINA RESULT:      -3.6      0.993      2.350
REMARK  Name = 84682
REMARK  2 active torsions:
REMARK  status: ('A' for Active; 'I' for Inactive)
REMARK    1  A    between atoms: C_1  and  O_3
REMARK    2  A    between atoms: C_1  and  C_5
REMARK                            x       y       z     vdW  Elec       q    Type
REMARK                         _______ _______ _______ _____ _____    ______ ____
ROOT
ATOM      1  C   UNL     1      33.528 -21.700 -19.739  0.00  0.00    +0.111 C 
ATOM      2  C   UNL     1      34.969 -21.609 -19.257  0.00  0.00    +0.032 C 
ENDROOT
BRANCH   1   3
ATOM      3  O   UNL     1      32.713 -22.161 -18.666  0.00  0.00    -0.384 OA
ATOM      4  H   UNL     1      31.777 -22.051 -18.899  0.00  0.00    +0.210 HD
ENDBRANCH   1   3
BRANCH   1   5
ATOM      5  C   UNL     1      33.013 -20.337 -20.210  0.00  0.00    +0.029 C 
ATOM      6  C   UNL     1      34.083 -19.538 -20.941  0.00  0.00    +0.003 C 
ENDBRANCH   1   5
TORSDOF 2
ENDMDL
MODEL 4
REMARK VINA RESULT:      -3.6      9.823     10.208
REMARK  Name = 84682
REMARK  2 active torsions:
REMARK  status: ('A' for Active; 'I' for Inactive)
REMARK    1  A    between atoms: C_1  and  O_3
REMARK    2  A    between atoms: C_1  and  C_5
REMARK                            x       y       z     vdW  Elec       q    Type
REMARK                         _______ _______ _______ _____ _____    ______ ____
ROOT
ATOM      1  C   UNL     1      41.223 -15.401 -15.415  0.00  0.00    +0.111 C 
ATOM      2  C   UNL     1      41.008 -13.945 -15.027  0.00  0.00    +0.032 C 
ENDROOT
BRANCH   1   3
ATOM      3  O   UNL     1      40.012 -16.118 -15.199  0.00  0.00    -0.384 OA
ATOM      4  H   UNL     1      39.349 -15.525 -14.813  0.00  0.00    +0.210 HD
ENDBRANCH   1   3
BRANCH   1   5
ATOM      5  C   UNL     1      41.626 -15.529 -16.887  0.00  0.00    +0.029 C 
ATOM      6  C   UNL     1      41.239 -14.301 -17.700  0.00  0.00    +0.003 C 
ENDBRANCH   1   5
TORSDOF 2
ENDMDL
MODEL 5
REMARK VINA RESULT:      -3.4      2.394      2.539
REMARK  Name = 84682
REMARK  2 active torsions:
REMARK  status: ('A' for Active; 'I' for Inactive)
REMARK    1  A    between atoms: C_1  and  O_3
REMARK    2  A    between atoms: C_1  and  C_5
REMARK                            x       y       z     vdW  Elec       q    Type
REMARK                         _______ _______ _______ _____ _____    ______ ____
ROOT
ATOM      1  C   UNL     1      35.307 -19.756 -20.956  0.00  0.00    +0.111 C 
ATOM      2  C   UNL     1      33.809 -19.898 -20.723  0.00  0.00    +0.032 C 
ENDROOT
BRANCH   1   3
ATOM      3  O   UNL     1      35.699 -18.427 -20.628  0.00  0.00    -0.384 OA
ATOM      4  H   UNL     1      34.919 -17.915 -20.361  0.00  0.00    +0.210 HD
ENDBRANCH   1   3
BRANCH   1   5
ATOM      5  C   UNL     1      36.099 -20.740 -20.091  0.00  0.00    +0.029 C 
ATOM      6  C   UNL     1      35.191 -21.678 -19.306  0.00  0.00    +0.003 C 
ENDBRANCH   1   5
TORSDOF 2
ENDMDL
MODEL 6
REMARK VINA RESULT:      -3.4      5.571      6.132
REMARK  Name = 84682
REMARK  2 active torsions:
REMARK  status: ('A' for Active; 'I' for Inactive)
REMARK    1  A    between atoms: C_1  and  O_3
REMARK    2  A    between atoms: C_1  and  C_5
REMARK                            x       y       z     vdW  Elec       q    Type
REMARK                         _______ _______ _______ _____ _____    ______ ____
ROOT
ATOM      1  C   UNL     1      34.376 -17.219 -24.617  0.00  0.00    +0.111 C 
ATOM      2  C   UNL     1      35.071 -16.463 -23.493  0.00  0.00    +0.032 C 
ENDROOT
BRANCH   1   3
ATOM      3  O   UNL     1      34.873 -16.746 -25.865  0.00  0.00    -0.384 OA
ATOM      4  H   UNL     1      35.844 -16.749 -25.849  0.00  0.00    +0.210 HD
ENDBRANCH   1   3
BRANCH   1   5
ATOM      5  C   UNL     1      34.631 -18.725 -24.514  0.00  0.00    +0.029 C 
ATOM      6  C   UNL     1      34.824 -19.180 -23.073  0.00  0.00    +0.003 C 
ENDBRANCH   1   5
TORSDOF 2
ENDMDL
MODEL 7
REMARK VINA RESULT:      -3.4      5.359      5.656
REMARK  Name = 84682
REMARK  2 active torsions:
REMARK  status: ('A' for Active; 'I' for Inactive)
REMARK    1  A    between atoms: C_1  and  O_3
REMARK    2  A    between atoms: C_1  and  C_5
REMARK                            x       y       z     vdW  Elec       q    Type
REMARK                         _______ _______ _______ _____ _____    ______ ____
ROOT
ATOM      1  C   UNL     1      34.859 -17.069 -22.838  0.00  0.00    +0.111 C 
ATOM      2  C   UNL     1      34.975 -16.895 -21.330  0.00  0.00    +0.032 C 
ENDROOT
BRANCH   1   3
ATOM      3  O   UNL     1      35.658 -16.079 -23.478  0.00  0.00    -0.384 OA
ATOM      4  H   UNL     1      35.388 -15.993 -24.406  0.00  0.00    +0.210 HD
ENDBRANCH   1   3
BRANCH   1   5
ATOM      5  C   UNL     1      35.335 -18.457 -23.275  0.00  0.00    +0.029 C 
ATOM      6  C   UNL     1      34.586 -18.965 -24.499  0.00  0.00    +0.003 C 
ENDBRANCH   1   5
TORSDOF 2
ENDMDL
MODEL 8
REMARK VINA RESULT:      -3.4      3.310      3.966
REMARK  Name = 84682
REMARK  2 active torsions:
REMARK  status: ('A' for Active; 'I' for Inactive)
REMARK    1  A    between atoms: C_1  and  O_3
REMARK    2  A    between atoms: C_1  and  C_5
REMARK                            x       y       z     vdW  Elec       q    Type
REMARK                         _______ _______ _______ _____ _____    ______ ____
ROOT
ATOM      1  C   UNL     1      34.345 -18.806 -21.491  0.00  0.00    +0.111 C 
ATOM      2  C   UNL     1      33.423 -19.805 -20.807  0.00  0.00    +0.032 C 
ENDROOT
BRANCH   1   3
ATOM      3  O   UNL     1      35.494 -18.604 -20.674  0.00  0.00    -0.384 OA
ATOM      4  H   UNL     1      35.843 -19.464 -20.388  0.00  0.00    +0.210 HD
ENDBRANCH   1   3
BRANCH   1   5
ATOM      5  C   UNL     1      34.791 -19.313 -22.866  0.00  0.00    +0.029 C 
ATOM      6  C   UNL     1      35.189 -18.178 -23.798  0.00  0.00    +0.003 C 
ENDBRANCH   1   5
TORSDOF 2
ENDMDL
MODEL 9
REMARK VINA RESULT:      -3.4      9.930     10.245
REMARK  Name = 84682
REMARK  2 active torsions:
REMARK  status: ('A' for Active; 'I' for Inactive)
REMARK    1  A    between atoms: C_1  and  O_3
REMARK    2  A    between atoms: C_1  and  C_5
REMARK                            x       y       z     vdW  Elec       q    Type
REMARK                         _______ _______ _______ _____ _____    ______ ____
ROOT
ATOM      1  C   UNL     1      41.701 -16.294 -16.718  0.00  0.00    +0.111 C 
ATOM      2  C   UNL     1      42.406 -16.608 -18.031  0.00  0.00    +0.032 C 
ENDROOT
BRANCH   1   3
ATOM      3  O   UNL     1      42.575 -16.610 -15.639  0.00  0.00    -0.384 OA
ATOM      4  H   UNL     1      42.167 -17.290 -15.080  0.00  0.00    +0.210 HD
ENDBRANCH   1   3
BRANCH   1   5
ATOM      5  C   UNL     1      41.316 -14.814 -16.635  0.00  0.00    +0.029 C 
ATOM      6  C   UNL     1      41.161 -14.181 -18.011  0.00  0.00    +0.003 C 
ENDBRANCH   1   5
TORSDOF 2
ENDMDL
