MODEL 1
REMARK VINA RESULT:      -8.3      0.000      0.000
REMARK  Name = 5362422
REMARK  13 active torsions:
REMARK  status: ('A' for Active; 'I' for Inactive)
REMARK    1  A    between atoms: C_1  and  C_4
REMARK    2  A    between atoms: C_1  and  C_19
REMARK    3  A    between atoms: C_1  and  C_23
REMARK    4  A    between atoms: N_3  and  C_6
REMARK    5  A    between atoms: C_6  and  C_9
REMARK    6  A    between atoms: C_6  and  C_12
REMARK    7  A    between atoms: C_12  and  C_13
REMARK    8  A    between atoms: C_19  and  C_20
REMARK    9  A    between atoms: C_23  and  C_26
REMARK   10  A    between atoms: C_23  and  C_30
REMARK   11  A    between atoms: N_25  and  O_28
REMARK   12  A    between atoms: C_30  and  S_31
REMARK   13  A    between atoms: S_31  and  C_33
REMARK                            x       y       z     vdW  Elec       q    Type
REMARK                         _______ _______ _______ _____ _____    ______ ____
ROOT
ATOM      1  C   UNL     1      32.643  -7.917 -22.653  0.00  0.00    +0.086 C 
ENDROOT
BRANCH   1   4
ATOM      2  O   UNL     1      30.917  -9.444 -23.359  0.00  0.00    -0.275 OA
ATOM      3  N   UNL     1      32.952 -10.357 -22.753  0.00  0.00    -0.298 N 
ATOM      4  C   UNL     1      32.078  -9.308 -22.972  0.00  0.00    +0.223 C 
ATOM      5  H   UNL     1      33.865 -10.161 -22.442  0.00  0.00    +0.150 HD
BRANCH   3   6
ATOM      6  C   UNL     1      32.566 -11.731 -22.966  0.00  0.00    +0.153 C 
BRANCH   6   9
ATOM      7  O   UNL     1      31.235 -11.691 -20.941  0.00  0.00    -0.273 OA
ATOM      8  N   UNL     1      32.633 -13.505 -21.329  0.00  0.00    -0.301 N 
ATOM      9  C   UNL     1      32.070 -12.273 -21.631  0.00  0.00    +0.241 C 
ATOM     10  C   UNL     1      32.297 -14.262 -20.143  0.00  0.00    +0.111 C 
ATOM     11  H   UNL     1      33.295 -13.883 -21.952  0.00  0.00    +0.150 HD
ENDBRANCH   6   9
BRANCH   6  12
ATOM     12  C   UNL     1      33.728 -12.585 -23.489  0.00  0.00    +0.055 C 
BRANCH  12  13
ATOM     13  C   UNL     1      33.473 -13.134 -24.872  0.00  0.00    -0.020 C 
ATOM     14  C   UNL     1      33.105 -14.470 -25.035  0.00  0.00    -0.004 C 
ATOM     15  C   UNL     1      33.604 -12.305 -25.986  0.00  0.00    -0.004 C 
ATOM     16  C   UNL     1      32.870 -14.977 -26.313  0.00  0.00    -0.000 C 
ATOM     17  C   UNL     1      33.368 -12.813 -27.263  0.00  0.00    -0.000 C 
ATOM     18  C   UNL     1      33.001 -14.148 -27.427  0.00  0.00    -0.000 C 
ENDBRANCH  12  13
ENDBRANCH   6  12
ENDBRANCH   3   6
ENDBRANCH   1   4
BRANCH   1  19
ATOM     19  C   UNL     1      34.184  -7.954 -22.549  0.00  0.00    +0.010 C 
BRANCH  19  20
ATOM     20  C   UNL     1      34.952  -7.711 -23.864  0.00  0.00    +0.000 C 
ATOM     21  C   UNL     1      35.099  -9.034 -24.623  0.00  0.00    +0.000 C 
ATOM     22  C   UNL     1      34.268  -6.682 -24.765  0.00  0.00    +0.000 C 
ENDBRANCH  19  20
ENDBRANCH   1  19
BRANCH   1  23
ATOM     23  C   UNL     1      31.859  -7.289 -21.458  0.00  0.00    +0.098 C 
BRANCH  23  26
ATOM     24  O   UNL     1      33.148  -7.305 -19.392  0.00  0.00    -0.273 OA
ATOM     25  N   UNL     1      31.866  -9.151 -19.909  0.00  0.00    -0.197 N 
ATOM     26  C   UNL     1      32.372  -7.894 -20.142  0.00  0.00    +0.245 C 
ATOM     27  H   UNL     1      31.246  -9.589 -20.536  0.00  0.00    +0.182 HD
BRANCH  25  28
ATOM     28  O   UNL     1      32.287  -9.771 -18.725  0.00  0.00    -0.295 OA
ATOM     29  H   UNL     1      32.263  -9.130 -17.998  0.00  0.00    +0.241 HD
ENDBRANCH  25  28
ENDBRANCH  23  26
BRANCH  23  30
ATOM     30  C   UNL     1      31.866  -5.750 -21.426  0.00  0.00    +0.072 C 
BRANCH  30  31
ATOM     31  S   UNL     1      30.339  -5.042 -22.131  0.00  0.00    -0.107 S 
BRANCH  31  33
ATOM     32  S   UNL     1      31.506  -2.636 -23.578  0.00  0.00    -0.080 S 
ATOM     33  C   UNL     1      31.009  -4.275 -23.572  0.00  0.00    +0.055 C 
ATOM     34  C   UNL     1      31.196  -4.876 -24.797  0.00  0.00    +0.013 C 
ATOM     35  C   UNL     1      31.756  -3.981 -25.753  0.00  0.00    +0.008 C 
ATOM     36  C   UNL     1      31.975  -2.728 -25.223  0.00  0.00    +0.036 C 
ENDBRANCH  31  33
ENDBRANCH  30  31
ENDBRANCH  23  30
ENDBRANCH   1  23
TORSDOF 13
ENDMDL
MODEL 2
REMARK VINA RESULT:      -8.2     11.720     16.137
REMARK  Name = 5362422
REMARK  13 active torsions:
REMARK  status: ('A' for Active; 'I' for Inactive)
REMARK    1  A    between atoms: C_1  and  C_4
REMARK    2  A    between atoms: C_1  and  C_19
REMARK    3  A    between atoms: C_1  and  C_23
REMARK    4  A    between atoms: N_3  and  C_6
REMARK    5  A    between atoms: C_6  and  C_9
REMARK    6  A    between atoms: C_6  and  C_12
REMARK    7  A    between atoms: C_12  and  C_13
REMARK    8  A    between atoms: C_19  and  C_20
REMARK    9  A    between atoms: C_23  and  C_26
REMARK   10  A    between atoms: C_23  and  C_30
REMARK   11  A    between atoms: N_25  and  O_28
REMARK   12  A    between atoms: C_30  and  S_31
REMARK   13  A    between atoms: S_31  and  C_33
REMARK                            x       y       z     vdW  Elec       q    Type
REMARK                         _______ _______ _______ _____ _____    ______ ____
ROOT
ATOM      1  C   UNL     1      32.414 -23.403 -16.792  0.00  0.00    +0.086 C 
ENDROOT
BRANCH   1   4
ATOM      2  O   UNL     1      33.736 -24.037 -18.705  0.00  0.00    -0.275 OA
ATOM      3  N   UNL     1      33.045 -21.835 -18.581  0.00  0.00    -0.298 N 
ATOM      4  C   UNL     1      33.123 -23.138 -18.127  0.00  0.00    +0.223 C 
ATOM      5  H   UNL     1      32.534 -21.177 -18.057  0.00  0.00    +0.150 HD
BRANCH   3   6
ATOM      6  C   UNL     1      33.689 -21.409 -19.801  0.00  0.00    +0.153 C 
BRANCH   6   9
ATOM      7  O   UNL     1      35.949 -21.902 -20.524  0.00  0.00    -0.273 OA
ATOM      8  N   UNL     1      35.582 -21.337 -18.302  0.00  0.00    -0.301 N 
ATOM      9  C   UNL     1      35.189 -21.598 -19.607  0.00  0.00    +0.241 C 
ATOM     10  C   UNL     1      36.957 -21.395 -17.860  0.00  0.00    +0.111 C 
ATOM     11  H   UNL     1      34.889 -21.102 -17.643  0.00  0.00    +0.150 HD
ENDBRANCH   6   9
BRANCH   6  12
ATOM     12  C   UNL     1      33.376 -19.948 -20.142  0.00  0.00    +0.055 C 
BRANCH  12  13
ATOM     13  C   UNL     1      34.251 -19.406 -21.246  0.00  0.00    -0.020 C 
ATOM     14  C   UNL     1      34.014 -19.777 -22.570  0.00  0.00    -0.004 C 
ATOM     15  C   UNL     1      35.296 -18.532 -20.943  0.00  0.00    -0.004 C 
ATOM     16  C   UNL     1      34.823 -19.276 -23.590  0.00  0.00    -0.000 C 
ATOM     17  C   UNL     1      36.103 -18.032 -21.963  0.00  0.00    -0.000 C 
ATOM     18  C   UNL     1      35.868 -18.403 -23.287  0.00  0.00    -0.000 C 
ENDBRANCH  12  13
ENDBRANCH   6  12
ENDBRANCH   3   6
ENDBRANCH   1   4
BRANCH   1  19
ATOM     19  C   UNL     1      31.039 -22.700 -16.745  0.00  0.00    +0.010 C 
BRANCH  19  20
ATOM     20  C   UNL     1      29.986 -23.348 -15.823  0.00  0.00    +0.000 C 
ATOM     21  C   UNL     1      28.661 -22.585 -15.942  0.00  0.00    +0.000 C 
ATOM     22  C   UNL     1      29.751 -24.826 -16.142  0.00  0.00    +0.000 C 
ENDBRANCH  19  20
ENDBRANCH   1  19
BRANCH   1  23
ATOM     23  C   UNL     1      33.396 -23.134 -15.608  0.00  0.00    +0.098 C 
BRANCH  23  26
ATOM     24  O   UNL     1      32.223 -22.794 -13.503  0.00  0.00    -0.273 OA
ATOM     25  N   UNL     1      32.796 -24.942 -14.113  0.00  0.00    -0.197 N 
ATOM     26  C   UNL     1      32.739 -23.580 -14.293  0.00  0.00    +0.245 C 
ATOM     27  H   UNL     1      33.219 -25.539 -14.772  0.00  0.00    +0.182 HD
BRANCH  25  28
ATOM     28  O   UNL     1      32.215 -25.429 -12.934  0.00  0.00    -0.295 OA
ATOM     29  H   UNL     1      31.475 -24.857 -12.678  0.00  0.00    +0.241 HD
ENDBRANCH  25  28
ENDBRANCH  23  26
BRANCH  23  30
ATOM     30  C   UNL     1      34.797 -23.744 -15.789  0.00  0.00    +0.072 C 
BRANCH  30  31
ATOM     31  S   UNL     1      36.072 -22.825 -14.859  0.00  0.00    -0.107 S 
BRANCH  31  33
ATOM     32  S   UNL     1      36.171 -24.870 -12.611  0.00  0.00    -0.080 S 
ATOM     33  C   UNL     1      36.848 -24.168 -14.019  0.00  0.00    +0.055 C 
ATOM     34  C   UNL     1      38.032 -24.773 -14.381  0.00  0.00    +0.013 C 
ATOM     35  C   UNL     1      38.387 -25.828 -13.492  0.00  0.00    +0.008 C 
ATOM     36  C   UNL     1      37.462 -25.988 -12.483  0.00  0.00    +0.036 C 
ENDBRANCH  31  33
ENDBRANCH  30  31
ENDBRANCH  23  30
ENDBRANCH   1  23
TORSDOF 13
ENDMDL
MODEL 3
REMARK VINA RESULT:      -8.0      5.073      8.008
REMARK  Name = 5362422
REMARK  13 active torsions:
REMARK  status: ('A' for Active; 'I' for Inactive)
REMARK    1  A    between atoms: C_1  and  C_4
REMARK    2  A    between atoms: C_1  and  C_19
REMARK    3  A    between atoms: C_1  and  C_23
REMARK    4  A    between atoms: N_3  and  C_6
REMARK    5  A    between atoms: C_6  and  C_9
REMARK    6  A    between atoms: C_6  and  C_12
REMARK    7  A    between atoms: C_12  and  C_13
REMARK    8  A    between atoms: C_19  and  C_20
REMARK    9  A    between atoms: C_23  and  C_26
REMARK   10  A    between atoms: C_23  and  C_30
REMARK   11  A    between atoms: N_25  and  O_28
REMARK   12  A    between atoms: C_30  and  S_31
REMARK   13  A    between atoms: S_31  and  C_33
REMARK                            x       y       z     vdW  Elec       q    Type
REMARK                         _______ _______ _______ _____ _____    ______ ____
ROOT
ATOM      1  C   UNL     1      33.749 -14.394 -22.541  0.00  0.00    +0.086 C 
ENDROOT
BRANCH   1   4
ATOM      2  O   UNL     1      35.778 -15.683 -22.705  0.00  0.00    -0.275 OA
ATOM      3  N   UNL     1      33.889 -16.778 -21.946  0.00  0.00    -0.298 N 
ATOM      4  C   UNL     1      34.585 -15.672 -22.398  0.00  0.00    +0.223 C 
ATOM      5  H   UNL     1      32.935 -16.682 -21.722  0.00  0.00    +0.150 HD
BRANCH   3   6
ATOM      6  C   UNL     1      34.518 -18.068 -21.791  0.00  0.00    +0.153 C 
BRANCH   6   9
ATOM      7  O   UNL     1      36.258 -18.601 -23.392  0.00  0.00    -0.273 OA
ATOM      8  N   UNL     1      34.039 -18.719 -24.067  0.00  0.00    -0.301 N 
ATOM      9  C   UNL     1      35.058 -18.472 -23.158  0.00  0.00    +0.241 C 
ATOM     10  C   UNL     1      34.275 -19.165 -25.423  0.00  0.00    +0.111 C 
ATOM     11  H   UNL     1      33.109 -18.584 -23.776  0.00  0.00    +0.150 HD
ENDBRANCH   6   9
BRANCH   6  12
ATOM     12  C   UNL     1      33.543 -19.129 -21.269  0.00  0.00    +0.055 C 
BRANCH  12  13
ATOM     13  C   UNL     1      34.221 -20.179 -20.423  0.00  0.00    -0.020 C 
ATOM     14  C   UNL     1      33.456 -21.122 -19.735  0.00  0.00    -0.004 C 
ATOM     15  C   UNL     1      35.613 -20.207 -20.329  0.00  0.00    -0.004 C 
ATOM     16  C   UNL     1      34.083 -22.092 -18.953  0.00  0.00    -0.000 C 
ATOM     17  C   UNL     1      36.239 -21.177 -19.548  0.00  0.00    -0.000 C 
ATOM     18  C   UNL     1      35.475 -22.120 -18.860  0.00  0.00    -0.000 C 
ENDBRANCH  12  13
ENDBRANCH   6  12
ENDBRANCH   3   6
ENDBRANCH   1   4
BRANCH   1  19
ATOM     19  C   UNL     1      32.291 -14.629 -22.085  0.00  0.00    +0.010 C 
BRANCH  19  20
ATOM     20  C   UNL     1      31.908 -14.020 -20.722  0.00  0.00    +0.000 C 
ATOM     21  C   UNL     1      32.681 -14.733 -19.606  0.00  0.00    +0.000 C 
ATOM     22  C   UNL     1      32.183 -12.517 -20.648  0.00  0.00    +0.000 C 
ENDBRANCH  19  20
ENDBRANCH   1  19
BRANCH   1  23
ATOM     23  C   UNL     1      33.964 -13.776 -23.959  0.00  0.00    +0.098 C 
BRANCH  23  26
ATOM     24  O   UNL     1      33.962 -15.904 -25.142  0.00  0.00    -0.273 OA
ATOM     25  N   UNL     1      32.485 -14.266 -25.813  0.00  0.00    -0.197 N 
ATOM     26  C   UNL     1      33.489 -14.776 -25.024  0.00  0.00    +0.245 C 
ATOM     27  H   UNL     1      32.133 -13.355 -25.686  0.00  0.00    +0.182 HD
BRANCH  25  28
ATOM     28  O   UNL     1      31.995 -15.120 -26.811  0.00  0.00    -0.295 OA
ATOM     29  H   UNL     1      32.508 -14.994 -27.624  0.00  0.00    +0.241 HD
ENDBRANCH  25  28
ENDBRANCH  23  26
BRANCH  23  30
ATOM     30  C   UNL     1      33.336 -12.385 -24.153  0.00  0.00    +0.072 C 
BRANCH  30  31
ATOM     31  S   UNL     1      34.467 -11.234 -25.007  0.00  0.00    -0.107 S 
BRANCH  31  33
ATOM     32  S   UNL     1      32.755  -9.604 -23.094  0.00  0.00    -0.080 S 
ATOM     33  C   UNL     1      34.144  -9.766 -24.083  0.00  0.00    +0.055 C 
ATOM     34  C   UNL     1      34.933  -8.637 -24.055  0.00  0.00    +0.013 C 
ATOM     35  C   UNL     1      34.392  -7.626 -23.211  0.00  0.00    +0.008 C 
ATOM     36  C   UNL     1      33.208  -8.020 -22.625  0.00  0.00    +0.036 C 
ENDBRANCH  31  33
ENDBRANCH  30  31
ENDBRANCH  23  30
ENDBRANCH   1  23
TORSDOF 13
ENDMDL
MODEL 4
REMARK VINA RESULT:      -7.9      3.964      8.348
REMARK  Name = 5362422
REMARK  13 active torsions:
REMARK  status: ('A' for Active; 'I' for Inactive)
REMARK    1  A    between atoms: C_1  and  C_4
REMARK    2  A    between atoms: C_1  and  C_19
REMARK    3  A    between atoms: C_1  and  C_23
REMARK    4  A    between atoms: N_3  and  C_6
REMARK    5  A    between atoms: C_6  and  C_9
REMARK    6  A    between atoms: C_6  and  C_12
REMARK    7  A    between atoms: C_12  and  C_13
REMARK    8  A    between atoms: C_19  and  C_20
REMARK    9  A    between atoms: C_23  and  C_26
REMARK   10  A    between atoms: C_23  and  C_30
REMARK   11  A    between atoms: N_25  and  O_28
REMARK   12  A    between atoms: C_30  and  S_31
REMARK   13  A    between atoms: S_31  and  C_33
REMARK                            x       y       z     vdW  Elec       q    Type
REMARK                         _______ _______ _______ _____ _____    ______ ____
ROOT
ATOM      1  C   UNL     1      32.037 -12.778 -21.685  0.00  0.00    +0.086 C 
ENDROOT
BRANCH   1   4
ATOM      2  O   UNL     1      31.073 -10.911 -22.866  0.00  0.00    -0.275 OA
ATOM      3  N   UNL     1      33.302 -11.376 -23.264  0.00  0.00    -0.298 N 
ATOM      4  C   UNL     1      32.081 -11.587 -22.651  0.00  0.00    +0.223 C 
ATOM      5  H   UNL     1      34.058 -11.964 -23.035  0.00  0.00    +0.150 HD
BRANCH   3   6
ATOM      6  C   UNL     1      33.504 -10.321 -24.228  0.00  0.00    +0.153 C 
BRANCH   6   9
ATOM      7  O   UNL     1      35.351 -10.614 -25.770  0.00  0.00    -0.273 OA
ATOM      8  N   UNL     1      33.450 -11.922 -26.036  0.00  0.00    -0.301 N 
ATOM      9  C   UNL     1      34.215 -10.936 -25.427  0.00  0.00    +0.241 C 
ATOM     10  C   UNL     1      33.908 -12.698 -27.166  0.00  0.00    +0.111 C 
ATOM     11  H   UNL     1      32.549 -12.100 -25.681  0.00  0.00    +0.150 HD
ENDBRANCH   6   9
BRANCH   6  12
ATOM     12  C   UNL     1      34.328  -9.163 -23.656  0.00  0.00    +0.055 C 
BRANCH  12  13
ATOM     13  C   UNL     1      33.470  -8.022 -23.165  0.00  0.00    -0.020 C 
ATOM     14  C   UNL     1      33.125  -7.939 -21.816  0.00  0.00    -0.004 C 
ATOM     15  C   UNL     1      33.024  -7.049 -24.060  0.00  0.00    -0.004 C 
ATOM     16  C   UNL     1      32.332  -6.885 -21.363  0.00  0.00    -0.000 C 
ATOM     17  C   UNL     1      32.232  -5.996 -23.607  0.00  0.00    -0.000 C 
ATOM     18  C   UNL     1      31.885  -5.912 -22.258  0.00  0.00    -0.000 C 
ENDBRANCH  12  13
ENDBRANCH   6  12
ENDBRANCH   3   6
ENDBRANCH   1   4
BRANCH   1  19
ATOM     19  C   UNL     1      31.998 -12.302 -20.216  0.00  0.00    +0.010 C 
BRANCH  19  20
ATOM     20  C   UNL     1      31.590 -10.831 -19.999  0.00  0.00    +0.000 C 
ATOM     21  C   UNL     1      30.150 -10.771 -19.474  0.00  0.00    +0.000 C 
ATOM     22  C   UNL     1      32.516 -10.099 -19.025  0.00  0.00    +0.000 C 
ENDBRANCH  19  20
ENDBRANCH   1  19
BRANCH   1  23
ATOM     23  C   UNL     1      33.140 -13.814 -22.073  0.00  0.00    +0.098 C 
BRANCH  23  26
ATOM     24  O   UNL     1      32.444 -15.359 -20.325  0.00  0.00    -0.273 OA
ATOM     25  N   UNL     1      34.692 -14.915 -20.575  0.00  0.00    -0.197 N 
ATOM     26  C   UNL     1      33.363 -14.779 -20.898  0.00  0.00    +0.245 C 
ATOM     27  H   UNL     1      35.400 -14.431 -21.060  0.00  0.00    +0.182 HD
BRANCH  25  28
ATOM     28  O   UNL     1      34.979 -15.782 -19.511  0.00  0.00    -0.295 OA
ATOM     29  H   UNL     1      35.743 -16.333 -19.740  0.00  0.00    +0.241 HD
ENDBRANCH  25  28
ENDBRANCH  23  26
BRANCH  23  30
ATOM     30  C   UNL     1      32.880 -14.561 -23.392  0.00  0.00    +0.072 C 
BRANCH  30  31
ATOM     31  S   UNL     1      34.414 -14.826 -24.345  0.00  0.00    -0.107 S 
BRANCH  31  33
ATOM     32  S   UNL     1      35.131 -17.389 -22.874  0.00  0.00    -0.080 S 
ATOM     33  C   UNL     1      34.515 -16.586 -24.255  0.00  0.00    +0.055 C 
ATOM     34  C   UNL     1      34.132 -17.470 -25.240  0.00  0.00    +0.013 C 
ATOM     35  C   UNL     1      34.345 -18.825 -24.855  0.00  0.00    +0.008 C 
ATOM     36  C   UNL     1      34.885 -18.925 -23.591  0.00  0.00    +0.036 C 
ENDBRANCH  31  33
ENDBRANCH  30  31
ENDBRANCH  23  30
ENDBRANCH   1  23
TORSDOF 13
ENDMDL
MODEL 5
REMARK VINA RESULT:      -7.9      2.673      5.128
REMARK  Name = 5362422
REMARK  13 active torsions:
REMARK  status: ('A' for Active; 'I' for Inactive)
REMARK    1  A    between atoms: C_1  and  C_4
REMARK    2  A    between atoms: C_1  and  C_19
REMARK    3  A    between atoms: C_1  and  C_23
REMARK    4  A    between atoms: N_3  and  C_6
REMARK    5  A    between atoms: C_6  and  C_9
REMARK    6  A    between atoms: C_6  and  C_12
REMARK    7  A    between atoms: C_12  and  C_13
REMARK    8  A    between atoms: C_19  and  C_20
REMARK    9  A    between atoms: C_23  and  C_26
REMARK   10  A    between atoms: C_23  and  C_30
REMARK   11  A    between atoms: N_25  and  O_28
REMARK   12  A    between atoms: C_30  and  S_31
REMARK   13  A    between atoms: S_31  and  C_33
REMARK                            x       y       z     vdW  Elec       q    Type
REMARK                         _______ _______ _______ _____ _____    ______ ____
ROOT
ATOM      1  C   UNL     1      33.604  -7.403 -24.145  0.00  0.00    +0.086 C 
ENDROOT
BRANCH   1   4
ATOM      2  O   UNL     1      35.390  -8.981 -23.787  0.00  0.00    -0.275 OA
ATOM      3  N   UNL     1      33.293  -9.843 -24.238  0.00  0.00    -0.298 N 
ATOM      4  C   UNL     1      34.192  -8.815 -24.024  0.00  0.00    +0.223 C 
ATOM      5  H   UNL     1      32.351  -9.622 -24.422  0.00  0.00    +0.150 HD
BRANCH   3   6
ATOM      6  C   UNL     1      33.691 -11.229 -24.199  0.00  0.00    +0.153 C 
BRANCH   6   9
ATOM      7  O   UNL     1      35.025 -11.095 -26.219  0.00  0.00    -0.273 OA
ATOM      8  N   UNL     1      33.319 -12.666 -26.104  0.00  0.00    -0.301 N 
ATOM      9  C   UNL     1      34.093 -11.623 -25.616  0.00  0.00    +0.241 C 
ATOM     10  C   UNL     1      33.522 -13.265 -27.405  0.00  0.00    +0.111 C 
ATOM     11  H   UNL     1      32.594 -13.016 -25.537  0.00  0.00    +0.150 HD
ENDBRANCH   6   9
BRANCH   6  12
ATOM     12  C   UNL     1      32.569 -12.141 -23.690  0.00  0.00    +0.055 C 
BRANCH  12  13
ATOM     13  C   UNL     1      33.079 -13.270 -22.828  0.00  0.00    -0.020 C 
ATOM     14  C   UNL     1      34.242 -13.951 -23.188  0.00  0.00    -0.004 C 
ATOM     15  C   UNL     1      32.389 -13.631 -21.671  0.00  0.00    -0.004 C 
ATOM     16  C   UNL     1      34.714 -14.995 -22.390  0.00  0.00    -0.000 C 
ATOM     17  C   UNL     1      32.861 -14.673 -20.874  0.00  0.00    -0.000 C 
ATOM     18  C   UNL     1      34.023 -15.355 -21.233  0.00  0.00    -0.000 C 
ENDBRANCH  12  13
ENDBRANCH   6  12
ENDBRANCH   3   6
ENDBRANCH   1   4
BRANCH   1  19
ATOM     19  C   UNL     1      34.501  -6.499 -25.018  0.00  0.00    +0.010 C 
BRANCH  19  20
ATOM     20  C   UNL     1      33.793  -5.771 -26.179  0.00  0.00    +0.000 C 
ATOM     21  C   UNL     1      32.669  -4.890 -25.622  0.00  0.00    +0.000 C 
ATOM     22  C   UNL     1      34.749  -4.911 -27.008  0.00  0.00    +0.000 C 
ENDBRANCH  19  20
ENDBRANCH   1  19
BRANCH   1  23
ATOM     23  C   UNL     1      33.213  -6.870 -22.729  0.00  0.00    +0.098 C 
BRANCH  23  26
ATOM     24  O   UNL     1      30.853  -7.269 -23.178  0.00  0.00    -0.273 OA
ATOM     25  N   UNL     1      31.462  -5.309 -22.127  0.00  0.00    -0.197 N 
ATOM     26  C   UNL     1      31.715  -6.526 -22.714  0.00  0.00    +0.245 C 
ATOM     27  H   UNL     1      32.182  -4.742 -21.767  0.00  0.00    +0.182 HD
BRANCH  25  28
ATOM     28  O   UNL     1      30.115  -4.923 -22.073  0.00  0.00    -0.295 OA
ATOM     29  H   UNL     1      29.822  -4.900 -21.149  0.00  0.00    +0.241 HD
ENDBRANCH  25  28
ENDBRANCH  23  26
BRANCH  23  30
ATOM     30  C   UNL     1      33.603  -7.799 -21.567  0.00  0.00    +0.072 C 
BRANCH  30  31
ATOM     31  S   UNL     1      32.545  -7.545 -20.100  0.00  0.00    -0.107 S 
BRANCH  31  33
ATOM     32  S   UNL     1      31.259 -10.061 -21.224  0.00  0.00    -0.080 S 
ATOM     33  C   UNL     1      31.912  -9.181 -19.908  0.00  0.00    +0.055 C 
ATOM     34  C   UNL     1      31.871  -9.900 -18.734  0.00  0.00    +0.013 C 
ATOM     35  C   UNL     1      31.297 -11.191 -18.916  0.00  0.00    +0.008 C 
ATOM     36  C   UNL     1      30.919 -11.409 -20.224  0.00  0.00    +0.036 C 
ENDBRANCH  31  33
ENDBRANCH  30  31
ENDBRANCH  23  30
ENDBRANCH   1  23
TORSDOF 13
ENDMDL
MODEL 6
REMARK VINA RESULT:      -7.7      3.233      5.943
REMARK  Name = 5362422
REMARK  13 active torsions:
REMARK  status: ('A' for Active; 'I' for Inactive)
REMARK    1  A    between atoms: C_1  and  C_4
REMARK    2  A    between atoms: C_1  and  C_19
REMARK    3  A    between atoms: C_1  and  C_23
REMARK    4  A    between atoms: N_3  and  C_6
REMARK    5  A    between atoms: C_6  and  C_9
REMARK    6  A    between atoms: C_6  and  C_12
REMARK    7  A    between atoms: C_12  and  C_13
REMARK    8  A    between atoms: C_19  and  C_20
REMARK    9  A    between atoms: C_23  and  C_26
REMARK   10  A    between atoms: C_23  and  C_30
REMARK   11  A    between atoms: N_25  and  O_28
REMARK   12  A    between atoms: C_30  and  S_31
REMARK   13  A    between atoms: S_31  and  C_33
REMARK                            x       y       z     vdW  Elec       q    Type
REMARK                         _______ _______ _______ _____ _____    ______ ____
ROOT
ATOM      1  C   UNL     1      32.948 -13.327 -22.240  0.00  0.00    +0.086 C 
ENDROOT
BRANCH   1   4
ATOM      2  O   UNL     1      34.348 -12.931 -24.161  0.00  0.00    -0.275 OA
ATOM      3  N   UNL     1      33.425 -15.039 -23.944  0.00  0.00    -0.298 N 
ATOM      4  C   UNL     1      33.658 -13.738 -23.537  0.00  0.00    +0.223 C 
ATOM      5  H   UNL     1      32.859 -15.619 -23.385  0.00  0.00    +0.150 HD
BRANCH   3   6
ATOM      6  C   UNL     1      33.986 -15.572 -25.162  0.00  0.00    +0.153 C 
BRANCH   6   9
ATOM      7  O   UNL     1      32.306 -15.767 -26.899  0.00  0.00    -0.273 OA
ATOM      8  N   UNL     1      33.352 -13.719 -26.575  0.00  0.00    -0.301 N 
ATOM      9  C   UNL     1      33.127 -15.063 -26.314  0.00  0.00    +0.241 C 
ATOM     10  C   UNL     1      32.634 -12.975 -27.586  0.00  0.00    +0.111 C 
ATOM     11  H   UNL     1      34.036 -13.248 -26.046  0.00  0.00    +0.150 HD
ENDBRANCH   6   9
BRANCH   6  12
ATOM     12  C   UNL     1      34.021 -17.105 -25.160  0.00  0.00    +0.055 C 
BRANCH  12  13
ATOM     13  C   UNL     1      34.631 -17.673 -23.902  0.00  0.00    -0.020 C 
ATOM     14  C   UNL     1      35.561 -16.926 -23.178  0.00  0.00    -0.004 C 
ATOM     15  C   UNL     1      34.264 -18.945 -23.462  0.00  0.00    -0.004 C 
ATOM     16  C   UNL     1      36.124 -17.451 -22.015  0.00  0.00    -0.000 C 
ATOM     17  C   UNL     1      34.827 -19.470 -22.299  0.00  0.00    -0.000 C 
ATOM     18  C   UNL     1      35.757 -18.724 -21.575  0.00  0.00    -0.000 C 
ENDBRANCH  12  13
ENDBRANCH   6  12
ENDBRANCH   3   6
ENDBRANCH   1   4
BRANCH   1  19
ATOM     19  C   UNL     1      32.149 -14.509 -21.645  0.00  0.00    +0.010 C 
BRANCH  19  20
ATOM     20  C   UNL     1      32.841 -15.278 -20.502  0.00  0.00    +0.000 C 
ATOM     21  C   UNL     1      32.696 -16.786 -20.739  0.00  0.00    +0.000 C 
ATOM     22  C   UNL     1      34.323 -14.926 -20.365  0.00  0.00    +0.000 C 
ENDBRANCH  19  20
ENDBRANCH   1  19
BRANCH   1  23
ATOM     23  C   UNL     1      32.184 -11.983 -22.457  0.00  0.00    +0.098 C 
BRANCH  23  26
ATOM     24  O   UNL     1      30.120 -11.504 -21.257  0.00  0.00    -0.273 OA
ATOM     25  N   UNL     1      32.090 -11.620 -20.064  0.00  0.00    -0.197 N 
ATOM     26  C   UNL     1      31.336 -11.676 -21.213  0.00  0.00    +0.245 C 
ATOM     27  H   UNL     1      33.064 -11.763 -20.071  0.00  0.00    +0.182 HD
BRANCH  25  28
ATOM     28  O   UNL     1      31.387 -11.345 -18.883  0.00  0.00    -0.295 OA
ATOM     29  H   UNL     1      31.591 -12.023 -18.220  0.00  0.00    +0.241 HD
ENDBRANCH  25  28
ENDBRANCH  23  26
BRANCH  23  30
ATOM     30  C   UNL     1      33.078 -10.796 -22.854  0.00  0.00    +0.072 C 
BRANCH  30  31
ATOM     31  S   UNL     1      32.135  -9.475 -23.690  0.00  0.00    -0.107 S 
BRANCH  31  33
ATOM     32  S   UNL     1      31.313  -6.766 -22.581  0.00  0.00    -0.080 S 
ATOM     33  C   UNL     1      32.128  -8.263 -22.409  0.00  0.00    +0.055 C 
ATOM     34  C   UNL     1      32.750  -8.375 -21.185  0.00  0.00    +0.013 C 
ATOM     35  C   UNL     1      32.554  -7.219 -20.376  0.00  0.00    +0.008 C 
ATOM     36  C   UNL     1      31.791  -6.265 -21.014  0.00  0.00    +0.036 C 
ENDBRANCH  31  33
ENDBRANCH  30  31
ENDBRANCH  23  30
ENDBRANCH   1  23
TORSDOF 13
ENDMDL
MODEL 7
REMARK VINA RESULT:      -7.6      4.349      6.917
REMARK  Name = 5362422
REMARK  13 active torsions:
REMARK  status: ('A' for Active; 'I' for Inactive)
REMARK    1  A    between atoms: C_1  and  C_4
REMARK    2  A    between atoms: C_1  and  C_19
REMARK    3  A    between atoms: C_1  and  C_23
REMARK    4  A    between atoms: N_3  and  C_6
REMARK    5  A    between atoms: C_6  and  C_9
REMARK    6  A    between atoms: C_6  and  C_12
REMARK    7  A    between atoms: C_12  and  C_13
REMARK    8  A    between atoms: C_19  and  C_20
REMARK    9  A    between atoms: C_23  and  C_26
REMARK   10  A    between atoms: C_23  and  C_30
REMARK   11  A    between atoms: N_25  and  O_28
REMARK   12  A    between atoms: C_30  and  S_31
REMARK   13  A    between atoms: S_31  and  C_33
REMARK                            x       y       z     vdW  Elec       q    Type
REMARK                         _______ _______ _______ _____ _____    ______ ____
ROOT
ATOM      1  C   UNL     1      33.312 -13.029 -23.008  0.00  0.00    +0.086 C 
ENDROOT
BRANCH   1   4
ATOM      2  O   UNL     1      32.552 -15.193 -22.265  0.00  0.00    -0.275 OA
ATOM      3  N   UNL     1      34.674 -15.073 -23.175  0.00  0.00    -0.298 N 
ATOM      4  C   UNL     1      33.458 -14.540 -22.786  0.00  0.00    +0.223 C 
ATOM      5  H   UNL     1      35.345 -14.480 -23.584  0.00  0.00    +0.150 HD
BRANCH   3   6
ATOM      6  C   UNL     1      34.989 -16.470 -23.000  0.00  0.00    +0.153 C 
BRANCH   6   9
ATOM      7  O   UNL     1      34.847 -16.567 -25.418  0.00  0.00    -0.273 OA
ATOM      8  N   UNL     1      34.493 -18.510 -24.195  0.00  0.00    -0.301 N 
ATOM      9  C   UNL     1      34.758 -17.155 -24.342  0.00  0.00    +0.241 C 
ATOM     10  C   UNL     1      34.284 -19.403 -25.313  0.00  0.00    +0.111 C 
ATOM     11  H   UNL     1      34.443 -18.880 -23.285  0.00  0.00    +0.150 HD
ENDBRANCH   6   9
BRANCH   6  12
ATOM     12  C   UNL     1      34.130 -17.126 -21.913  0.00  0.00    +0.055 C 
BRANCH  12  13
ATOM     13  C   UNL     1      34.779 -18.352 -21.317  0.00  0.00    -0.020 C 
ATOM     14  C   UNL     1      36.169 -18.426 -21.216  0.00  0.00    -0.004 C 
ATOM     15  C   UNL     1      33.989 -19.410 -20.867  0.00  0.00    -0.004 C 
ATOM     16  C   UNL     1      36.768 -19.559 -20.666  0.00  0.00    -0.000 C 
ATOM     17  C   UNL     1      34.589 -20.542 -20.316  0.00  0.00    -0.000 C 
ATOM     18  C   UNL     1      35.978 -20.617 -20.215  0.00  0.00    -0.000 C 
ENDBRANCH  12  13
ENDBRANCH   6  12
ENDBRANCH   3   6
ENDBRANCH   1   4
BRANCH   1  19
ATOM     19  C   UNL     1      31.914 -12.536 -22.573  0.00  0.00    +0.010 C 
BRANCH  19  20
ATOM     20  C   UNL     1      31.861 -11.757 -21.243  0.00  0.00    +0.000 C 
ATOM     21  C   UNL     1      30.474 -11.125 -21.074  0.00  0.00    +0.000 C 
ATOM     22  C   UNL     1      32.170 -12.636 -20.030  0.00  0.00    +0.000 C 
ENDBRANCH  19  20
ENDBRANCH   1  19
BRANCH   1  23
ATOM     23  C   UNL     1      33.785 -12.658 -24.449  0.00  0.00    +0.098 C 
BRANCH  23  26
ATOM     24  O   UNL     1      32.264 -14.404 -25.203  0.00  0.00    -0.273 OA
ATOM     25  N   UNL     1      33.958 -13.730 -26.615  0.00  0.00    -0.197 N 
ATOM     26  C   UNL     1      33.238 -13.695 -25.444  0.00  0.00    +0.245 C 
ATOM     27  H   UNL     1      34.734 -13.144 -26.769  0.00  0.00    +0.182 HD
BRANCH  25  28
ATOM     28  O   UNL     1      33.520 -14.651 -27.576  0.00  0.00    -0.295 OA
ATOM     29  H   UNL     1      34.066 -14.571 -28.373  0.00  0.00    +0.241 HD
ENDBRANCH  25  28
ENDBRANCH  23  26
BRANCH  23  30
ATOM     30  C   UNL     1      33.457 -11.218 -24.879  0.00  0.00    +0.072 C 
BRANCH  30  31
ATOM     31  S   UNL     1      34.536  -9.994 -24.061  0.00  0.00    -0.107 S 
BRANCH  31  33
ATOM     32  S   UNL     1      33.726  -7.433 -22.636  0.00  0.00    -0.080 S 
ATOM     33  C   UNL     1      33.314  -8.847 -23.510  0.00  0.00    +0.055 C 
ATOM     34  C   UNL     1      31.954  -8.956 -23.707  0.00  0.00    +0.013 C 
ATOM     35  C   UNL     1      31.241  -7.863 -23.135  0.00  0.00    +0.008 C 
ATOM     36  C   UNL     1      32.083  -6.961 -22.521  0.00  0.00    +0.036 C 
ENDBRANCH  31  33
ENDBRANCH  30  31
ENDBRANCH  23  30
ENDBRANCH   1  23
TORSDOF 13
ENDMDL
MODEL 8
REMARK VINA RESULT:      -7.5      2.338      4.113
REMARK  Name = 5362422
REMARK  13 active torsions:
REMARK  status: ('A' for Active; 'I' for Inactive)
REMARK    1  A    between atoms: C_1  and  C_4
REMARK    2  A    between atoms: C_1  and  C_19
REMARK    3  A    between atoms: C_1  and  C_23
REMARK    4  A    between atoms: N_3  and  C_6
REMARK    5  A    between atoms: C_6  and  C_9
REMARK    6  A    between atoms: C_6  and  C_12
REMARK    7  A    between atoms: C_12  and  C_13
REMARK    8  A    between atoms: C_19  and  C_20
REMARK    9  A    between atoms: C_23  and  C_26
REMARK   10  A    between atoms: C_23  and  C_30
REMARK   11  A    between atoms: N_25  and  O_28
REMARK   12  A    between atoms: C_30  and  S_31
REMARK   13  A    between atoms: S_31  and  C_33
REMARK                            x       y       z     vdW  Elec       q    Type
REMARK                         _______ _______ _______ _____ _____    ______ ____
ROOT
ATOM      1  C   UNL     1      32.114 -10.013 -22.027  0.00  0.00    +0.086 C 
ENDROOT
BRANCH   1   4
ATOM      2  O   UNL     1      34.236 -10.111 -23.166  0.00  0.00    -0.275 OA
ATOM      3  N   UNL     1      32.813 -11.913 -23.427  0.00  0.00    -0.298 N 
ATOM      4  C   UNL     1      33.171 -10.679 -22.918  0.00  0.00    +0.223 C 
ATOM      5  H   UNL     1      31.941 -12.297 -23.178  0.00  0.00    +0.150 HD
BRANCH   3   6
ATOM      6  C   UNL     1      33.677 -12.657 -24.313  0.00  0.00    +0.153 C 
BRANCH   6   9
ATOM      7  O   UNL     1      33.133 -11.617 -26.433  0.00  0.00    -0.273 OA
ATOM      8  N   UNL     1      35.181 -11.145 -25.446  0.00  0.00    -0.301 N 
ATOM      9  C   UNL     1      33.946 -11.774 -25.525  0.00  0.00    +0.241 C 
ATOM     10  C   UNL     1      35.664 -10.215 -26.442  0.00  0.00    +0.111 C 
ATOM     11  H   UNL     1      35.758 -11.343 -24.673  0.00  0.00    +0.150 HD
ENDBRANCH   6   9
BRANCH   6  12
ATOM     12  C   UNL     1      33.052 -13.987 -24.750  0.00  0.00    +0.055 C 
BRANCH  12  13
ATOM     13  C   UNL     1      33.811 -15.185 -24.233  0.00  0.00    -0.020 C 
ATOM     14  C   UNL     1      34.064 -16.267 -25.077  0.00  0.00    -0.004 C 
ATOM     15  C   UNL     1      34.259 -15.211 -22.912  0.00  0.00    -0.004 C 
ATOM     16  C   UNL     1      34.765 -17.375 -24.599  0.00  0.00    -0.000 C 
ATOM     17  C   UNL     1      34.960 -16.318 -22.436  0.00  0.00    -0.000 C 
ATOM     18  C   UNL     1      35.213 -17.400 -23.278  0.00  0.00    -0.000 C 
ENDBRANCH  12  13
ENDBRANCH   6  12
ENDBRANCH   3   6
ENDBRANCH   1   4
BRANCH   1  19
ATOM     19  C   UNL     1      30.943 -10.979 -21.738  0.00  0.00    +0.010 C 
BRANCH  19  20
ATOM     20  C   UNL     1      30.935 -11.623 -20.337  0.00  0.00    +0.000 C 
ATOM     21  C   UNL     1      31.987 -12.736 -20.278  0.00  0.00    +0.000 C 
ATOM     22  C   UNL     1      31.203 -10.611 -19.221  0.00  0.00    +0.000 C 
ENDBRANCH  19  20
ENDBRANCH   1  19
BRANCH   1  23
ATOM     23  C   UNL     1      31.755  -8.604 -22.595  0.00  0.00    +0.098 C 
BRANCH  23  26
ATOM     24  O   UNL     1      31.519  -6.425 -21.535  0.00  0.00    -0.273 OA
ATOM     25  N   UNL     1      32.918  -7.979 -20.564  0.00  0.00    -0.197 N 
ATOM     26  C   UNL     1      32.036  -7.539 -21.523  0.00  0.00    +0.245 C 
ATOM     27  H   UNL     1      33.311  -8.882 -20.590  0.00  0.00    +0.182 HD
BRANCH  25  28
ATOM     28  O   UNL     1      33.224  -7.064 -19.547  0.00  0.00    -0.295 OA
ATOM     29  H   UNL     1      33.790  -7.493 -18.886  0.00  0.00    +0.241 HD
ENDBRANCH  25  28
ENDBRANCH  23  26
BRANCH  23  30
ATOM     30  C   UNL     1      32.431  -8.263 -23.935  0.00  0.00    +0.072 C 
BRANCH  30  31
ATOM     31  S   UNL     1      33.759  -7.026 -23.740  0.00  0.00    -0.107 S 
BRANCH  31  33
ATOM     32  S   UNL     1      31.799  -4.961 -24.810  0.00  0.00    -0.080 S 
ATOM     33  C   UNL     1      33.252  -5.857 -24.961  0.00  0.00    +0.055 C 
ATOM     34  C   UNL     1      33.931  -5.549 -26.119  0.00  0.00    +0.013 C 
ATOM     35  C   UNL     1      33.253  -4.564 -26.892  0.00  0.00    +0.008 C 
ATOM     36  C   UNL     1      32.078  -4.158 -26.296  0.00  0.00    +0.036 C 
ENDBRANCH  31  33
ENDBRANCH  30  31
ENDBRANCH  23  30
ENDBRANCH   1  23
TORSDOF 13
ENDMDL
MODEL 9
REMARK VINA RESULT:      -7.5      4.320      7.069
REMARK  Name = 5362422
REMARK  13 active torsions:
REMARK  status: ('A' for Active; 'I' for Inactive)
REMARK    1  A    between atoms: C_1  and  C_4
REMARK    2  A    between atoms: C_1  and  C_19
REMARK    3  A    between atoms: C_1  and  C_23
REMARK    4  A    between atoms: N_3  and  C_6
REMARK    5  A    between atoms: C_6  and  C_9
REMARK    6  A    between atoms: C_6  and  C_12
REMARK    7  A    between atoms: C_12  and  C_13
REMARK    8  A    between atoms: C_19  and  C_20
REMARK    9  A    between atoms: C_23  and  C_26
REMARK   10  A    between atoms: C_23  and  C_30
REMARK   11  A    between atoms: N_25  and  O_28
REMARK   12  A    between atoms: C_30  and  S_31
REMARK   13  A    between atoms: S_31  and  C_33
REMARK                            x       y       z     vdW  Elec       q    Type
REMARK                         _______ _______ _______ _____ _____    ______ ____
ROOT
ATOM      1  C   UNL     1      33.101 -13.791 -23.574  0.00  0.00    +0.086 C 
ENDROOT
BRANCH   1   4
ATOM      2  O   UNL     1      34.060 -14.381 -21.443  0.00  0.00    -0.275 OA
ATOM      3  N   UNL     1      33.983 -16.030 -23.061  0.00  0.00    -0.298 N 
ATOM      4  C   UNL     1      33.751 -14.757 -22.575  0.00  0.00    +0.223 C 
ATOM      5  H   UNL     1      33.704 -16.249 -23.979  0.00  0.00    +0.150 HD
BRANCH   3   6
ATOM      6  C   UNL     1      34.622 -17.050 -22.263  0.00  0.00    +0.153 C 
BRANCH   6   9
ATOM      7  O   UNL     1      36.468 -18.303 -23.209  0.00  0.00    -0.273 OA
ATOM      8  N   UNL     1      34.336 -18.621 -24.075  0.00  0.00    -0.301 N 
ATOM      9  C   UNL     1      35.268 -18.037 -23.228  0.00  0.00    +0.241 C 
ATOM     10  C   UNL     1      34.676 -19.629 -25.054  0.00  0.00    +0.111 C 
ATOM     11  H   UNL     1      33.397 -18.334 -24.007  0.00  0.00    +0.150 HD
ENDBRANCH   6   9
BRANCH   6  12
ATOM     12  C   UNL     1      33.630 -17.773 -21.345  0.00  0.00    +0.055 C 
BRANCH  12  13
ATOM     13  C   UNL     1      34.179 -19.068 -20.798  0.00  0.00    -0.020 C 
ATOM     14  C   UNL     1      35.556 -19.232 -20.644  0.00  0.00    -0.004 C 
ATOM     15  C   UNL     1      33.310 -20.100 -20.444  0.00  0.00    -0.004 C 
ATOM     16  C   UNL     1      36.063 -20.428 -20.138  0.00  0.00    -0.000 C 
ATOM     17  C   UNL     1      33.818 -21.296 -19.938  0.00  0.00    -0.000 C 
ATOM     18  C   UNL     1      35.194 -21.461 -19.784  0.00  0.00    -0.000 C 
ENDBRANCH  12  13
ENDBRANCH   6  12
ENDBRANCH   3   6
ENDBRANCH   1   4
BRANCH   1  19
ATOM     19  C   UNL     1      33.759 -13.905 -24.967  0.00  0.00    +0.010 C 
BRANCH  19  20
ATOM     20  C   UNL     1      32.807 -14.234 -26.134  0.00  0.00    +0.000 C 
ATOM     21  C   UNL     1      33.197 -13.403 -27.363  0.00  0.00    +0.000 C 
ATOM     22  C   UNL     1      32.815 -15.718 -26.502  0.00  0.00    +0.000 C 
ENDBRANCH  19  20
ENDBRANCH   1  19
BRANCH   1  23
ATOM     23  C   UNL     1      33.002 -12.365 -22.943  0.00  0.00    +0.098 C 
BRANCH  23  26
ATOM     24  O   UNL     1      32.922 -10.901 -24.887  0.00  0.00    -0.273 OA
ATOM     25  N   UNL     1      34.851 -10.958 -23.626  0.00  0.00    -0.197 N 
ATOM     26  C   UNL     1      33.565 -11.333 -23.933  0.00  0.00    +0.245 C 
ATOM     27  H   UNL     1      35.333 -11.328 -22.851  0.00  0.00    +0.182 HD
BRANCH  25  28
ATOM     28  O   UNL     1      35.436 -10.016 -24.483  0.00  0.00    -0.295 OA
ATOM     29  H   UNL     1      36.325  -9.797 -24.164  0.00  0.00    +0.241 HD
ENDBRANCH  25  28
ENDBRANCH  23  26
BRANCH  23  30
ATOM     30  C   UNL     1      31.597 -11.981 -22.448  0.00  0.00    +0.072 C 
BRANCH  30  31
ATOM     31  S   UNL     1      31.596 -11.510 -20.684  0.00  0.00    -0.107 S 
BRANCH  31  33
ATOM     32  S   UNL     1      31.511  -8.941 -22.308  0.00  0.00    -0.080 S 
ATOM     33  C   UNL     1      31.836  -9.770 -20.845  0.00  0.00    +0.055 C 
ATOM     34  C   UNL     1      32.294  -8.921 -19.861  0.00  0.00    +0.013 C 
ATOM     35  C   UNL     1      32.378  -7.573 -20.312  0.00  0.00    +0.008 C 
ATOM     36  C   UNL     1      31.982  -7.442 -21.626  0.00  0.00    +0.036 C 
ENDBRANCH  31  33
ENDBRANCH  30  31
ENDBRANCH  23  30
ENDBRANCH   1  23
TORSDOF 13
ENDMDL
