MODEL 1
REMARK VINA RESULT:      -9.3      0.000      0.000
REMARK  Name = 60977
REMARK  6 active torsions:
REMARK  status: ('A' for Active; 'I' for Inactive)
REMARK    1  A    between atoms: N_1  and  C_18
REMARK    2  A    between atoms: C_2  and  C_8
REMARK    3  A    between atoms: C_2  and  O_14
REMARK    4  A    between atoms: O_14  and  C_16
REMARK    5  A    between atoms: C_18  and  C_19
REMARK    6  A    between atoms: C_19  and  C_20
REMARK                            x       y       z     vdW  Elec       q    Type
REMARK                         _______ _______ _______ _____ _____    ______ ____
ROOT
ATOM      1  N   UNL     1      35.324 -20.245 -21.060  0.00  0.00    +0.387 N 
ATOM      2  C   UNL     1      35.095 -17.698 -22.579  0.00  0.00    +0.150 C 
ATOM      3  C   UNL     1      36.407 -18.190 -21.924  0.00  0.00    +0.022 C 
ATOM      4  C   UNL     1      34.228 -18.950 -22.848  0.00  0.00    +0.022 C 
ATOM      5  C   UNL     1      36.178 -19.104 -20.714  0.00  0.00    -0.073 C 
ATOM      6  C   UNL     1      34.029 -19.801 -21.593  0.00  0.00    -0.073 C 
ATOM      7  H   UNL     1      35.795 -20.779 -21.790  0.00  0.00    -0.080 HD
ENDROOT
BRANCH   2   8
ATOM      8  C   UNL     1      34.329 -16.596 -21.844  0.00  0.00    +0.013 C 
ATOM      9  C   UNL     1      33.057 -16.854 -21.336  0.00  0.00    -0.001 C 
ATOM     10  C   UNL     1      34.904 -15.337 -21.684  0.00  0.00    -0.001 C 
ATOM     11  C   UNL     1      32.358 -15.850 -20.665  0.00  0.00    -0.000 C 
ATOM     12  C   UNL     1      34.204 -14.332 -21.014  0.00  0.00    -0.000 C 
ATOM     13  C   UNL     1      32.932 -14.589 -20.505  0.00  0.00    -0.000 C 
ENDBRANCH   2   8
BRANCH   2  14
ATOM     14  O   UNL     1      35.456 -17.156 -23.861  0.00  0.00    -0.452 OA
BRANCH  14  16
ATOM     15  O   UNL     1      34.244 -18.328 -25.440  0.00  0.00    -0.250 OA
ATOM     16  C   UNL     1      34.520 -17.295 -24.845  0.00  0.00    +0.318 C 
ATOM     17  C   UNL     1      33.860 -15.975 -25.105  0.00  0.00    +0.121 C 
ENDBRANCH  14  16
ENDBRANCH   2  14
BRANCH   1  18
ATOM     18  C   UNL     1      35.130 -21.113 -19.898  0.00  0.00    -0.073 C 
BRANCH  18  19
ATOM     19  C   UNL     1      36.436 -21.285 -19.121  0.00  0.00    +0.004 C 
BRANCH  19  20
ATOM     20  C   UNL     1      36.202 -21.944 -17.785  0.00  0.00    -0.024 C 
ATOM     21  C   UNL     1      34.967 -22.513 -17.513  0.00  0.00    -0.004 C 
ATOM     22  C   UNL     1      37.225 -21.970 -16.849  0.00  0.00    -0.004 C 
ATOM     23  C   UNL     1      34.750 -23.123 -16.277  0.00  0.00    -0.000 C 
ATOM     24  C   UNL     1      37.008 -22.579 -15.613  0.00  0.00    -0.000 C 
ATOM     25  C   UNL     1      35.772 -23.155 -15.327  0.00  0.00    -0.000 C 
ENDBRANCH  19  20
ENDBRANCH  18  19
ENDBRANCH   1  18
TORSDOF 6
ENDMDL
MODEL 2
REMARK VINA RESULT:      -9.1      7.768     11.388
REMARK  Name = 60977
REMARK  6 active torsions:
REMARK  status: ('A' for Active; 'I' for Inactive)
REMARK    1  A    between atoms: N_1  and  C_18
REMARK    2  A    between atoms: C_2  and  C_8
REMARK    3  A    between atoms: C_2  and  O_14
REMARK    4  A    between atoms: O_14  and  C_16
REMARK    5  A    between atoms: C_18  and  C_19
REMARK    6  A    between atoms: C_19  and  C_20
REMARK                            x       y       z     vdW  Elec       q    Type
REMARK                         _______ _______ _______ _____ _____    ______ ____
ROOT
ATOM      1  N   UNL     1      33.260  -9.879 -23.456  0.00  0.00    +0.387 N 
ATOM      2  C   UNL     1      32.972  -6.926 -23.252  0.00  0.00    +0.150 C 
ATOM      3  C   UNL     1      31.778  -7.908 -23.208  0.00  0.00    +0.022 C 
ATOM      4  C   UNL     1      34.219  -7.711 -22.784  0.00  0.00    +0.022 C 
ATOM      5  C   UNL     1      32.045  -9.223 -23.950  0.00  0.00    -0.073 C 
ATOM      6  C   UNL     1      34.430  -8.999 -23.580  0.00  0.00    -0.073 C 
ATOM      7  H   UNL     1      33.126 -10.082 -22.466  0.00  0.00    -0.080 HD
ENDROOT
BRANCH   2   8
ATOM      8  C   UNL     1      33.204  -6.181 -24.569  0.00  0.00    +0.013 C 
ATOM      9  C   UNL     1      34.425  -6.300 -25.229  0.00  0.00    -0.001 C 
ATOM     10  C   UNL     1      32.193  -5.384 -25.104  0.00  0.00    -0.001 C 
ATOM     11  C   UNL     1      34.637  -5.621 -26.429  0.00  0.00    -0.000 C 
ATOM     12  C   UNL     1      32.406  -4.703 -26.304  0.00  0.00    -0.000 C 
ATOM     13  C   UNL     1      33.627  -4.823 -26.966  0.00  0.00    -0.000 C 
ENDBRANCH   2   8
BRANCH   2  14
ATOM     14  O   UNL     1      32.712  -5.921 -22.256  0.00  0.00    -0.452 OA
BRANCH  14  16
ATOM     15  O   UNL     1      31.830  -7.019 -20.425  0.00  0.00    -0.250 OA
ATOM     16  C   UNL     1      31.736  -6.226 -21.351  0.00  0.00    +0.318 C 
ATOM     17  C   UNL     1      30.499  -5.435 -21.656  0.00  0.00    +0.121 C 
ENDBRANCH  14  16
ENDBRANCH   2  14
BRANCH   1  18
ATOM     18  C   UNL     1      33.488 -11.139 -24.164  0.00  0.00    -0.073 C 
BRANCH  18  19
ATOM     19  C   UNL     1      33.110 -12.334 -23.288  0.00  0.00    +0.004 C 
BRANCH  19  20
ATOM     20  C   UNL     1      33.444 -13.641 -23.962  0.00  0.00    -0.024 C 
ATOM     21  C   UNL     1      34.243 -14.563 -23.303  0.00  0.00    -0.004 C 
ATOM     22  C   UNL     1      32.945 -13.901 -25.230  0.00  0.00    -0.004 C 
ATOM     23  C   UNL     1      34.552 -15.772 -23.927  0.00  0.00    -0.000 C 
ATOM     24  C   UNL     1      33.253 -15.110 -25.853  0.00  0.00    -0.000 C 
ATOM     25  C   UNL     1      34.056 -16.045 -25.202  0.00  0.00    -0.000 C 
ENDBRANCH  19  20
ENDBRANCH  18  19
ENDBRANCH   1  18
TORSDOF 6
ENDMDL
MODEL 3
REMARK VINA RESULT:      -9.1      4.348      9.890
REMARK  Name = 60977
REMARK  6 active torsions:
REMARK  status: ('A' for Active; 'I' for Inactive)
REMARK    1  A    between atoms: N_1  and  C_18
REMARK    2  A    between atoms: C_2  and  C_8
REMARK    3  A    between atoms: C_2  and  O_14
REMARK    4  A    between atoms: O_14  and  C_16
REMARK    5  A    between atoms: C_18  and  C_19
REMARK    6  A    between atoms: C_19  and  C_20
REMARK                            x       y       z     vdW  Elec       q    Type
REMARK                         _______ _______ _______ _____ _____    ______ ____
ROOT
ATOM      1  N   UNL     1      34.808 -22.423 -17.230  0.00  0.00    +0.387 N 
ATOM      2  C   UNL     1      36.041 -23.287 -14.665  0.00  0.00    +0.150 C 
ATOM      3  C   UNL     1      36.577 -22.116 -15.521  0.00  0.00    +0.022 C 
ATOM      4  C   UNL     1      34.541 -23.443 -15.003  0.00  0.00    +0.022 C 
ATOM      5  C   UNL     1      36.249 -22.252 -17.013  0.00  0.00    -0.073 C 
ATOM      6  C   UNL     1      34.293 -23.591 -16.505  0.00  0.00    -0.073 C 
ATOM      7  H   UNL     1      34.336 -21.595 -16.865  0.00  0.00    -0.080 HD
ENDROOT
BRANCH   2   8
ATOM      8  C   UNL     1      36.806 -24.611 -14.752  0.00  0.00    +0.013 C 
ATOM      9  C   UNL     1      38.184 -24.632 -14.547  0.00  0.00    -0.001 C 
ATOM     10  C   UNL     1      36.122 -25.792 -15.036  0.00  0.00    -0.001 C 
ATOM     11  C   UNL     1      38.881 -25.838 -14.626  0.00  0.00    -0.000 C 
ATOM     12  C   UNL     1      36.819 -26.998 -15.117  0.00  0.00    -0.000 C 
ATOM     13  C   UNL     1      38.198 -27.021 -14.911  0.00  0.00    -0.000 C 
ENDBRANCH   2   8
BRANCH   2  14
ATOM     14  O   UNL     1      36.120 -22.861 -13.294  0.00  0.00    -0.452 OA
BRANCH  14  16
ATOM     15  O   UNL     1      34.370 -24.087 -12.417  0.00  0.00    -0.250 OA
ATOM     16  C   UNL     1      35.525 -23.688 -12.384  0.00  0.00    +0.318 C 
ATOM     17  C   UNL     1      36.508 -24.049 -11.311  0.00  0.00    +0.121 C 
ENDBRANCH  14  16
ENDBRANCH   2  14
BRANCH   1  18
ATOM     18  C   UNL     1      34.513 -22.534 -18.659  0.00  0.00    -0.073 C 
BRANCH  18  19
ATOM     19  C   UNL     1      35.626 -21.905 -19.498  0.00  0.00    +0.004 C 
BRANCH  19  20
ATOM     20  C   UNL     1      35.160 -20.644 -20.179  0.00  0.00    -0.024 C 
ATOM     21  C   UNL     1      36.098 -19.733 -20.641  0.00  0.00    -0.004 C 
ATOM     22  C   UNL     1      33.801 -20.414 -20.333  0.00  0.00    -0.004 C 
ATOM     23  C   UNL     1      35.667 -18.565 -21.271  0.00  0.00    -0.000 C 
ATOM     24  C   UNL     1      33.370 -19.246 -20.963  0.00  0.00    -0.000 C 
ATOM     25  C   UNL     1      34.303 -18.322 -21.432  0.00  0.00    -0.000 C 
ENDBRANCH  19  20
ENDBRANCH  18  19
ENDBRANCH   1  18
TORSDOF 6
ENDMDL
MODEL 4
REMARK VINA RESULT:      -8.9      4.962     10.070
REMARK  Name = 60977
REMARK  6 active torsions:
REMARK  status: ('A' for Active; 'I' for Inactive)
REMARK    1  A    between atoms: N_1  and  C_18
REMARK    2  A    between atoms: C_2  and  C_8
REMARK    3  A    between atoms: C_2  and  O_14
REMARK    4  A    between atoms: O_14  and  C_16
REMARK    5  A    between atoms: C_18  and  C_19
REMARK    6  A    between atoms: C_19  and  C_20
REMARK                            x       y       z     vdW  Elec       q    Type
REMARK                         _______ _______ _______ _____ _____    ______ ____
ROOT
ATOM      1  N   UNL     1      35.224 -23.376 -16.396  0.00  0.00    +0.387 N 
ATOM      2  C   UNL     1      37.325 -23.934 -14.365  0.00  0.00    +0.150 C 
ATOM      3  C   UNL     1      36.714 -25.017 -15.285  0.00  0.00    +0.022 C 
ATOM      4  C   UNL     1      37.156 -22.579 -15.090  0.00  0.00    +0.022 C 
ATOM      5  C   UNL     1      35.288 -24.690 -15.746  0.00  0.00    -0.073 C 
ATOM      6  C   UNL     1      35.707 -22.315 -15.503  0.00  0.00    -0.073 C 
ATOM      7  H   UNL     1      35.835 -23.400 -17.212  0.00  0.00    -0.080 HD
ENDROOT
BRANCH   2   8
ATOM      8  C   UNL     1      36.825 -23.896 -12.919  0.00  0.00    +0.013 C 
ATOM      9  C   UNL     1      37.370 -22.982 -12.019  0.00  0.00    -0.001 C 
ATOM     10  C   UNL     1      35.825 -24.775 -12.505  0.00  0.00    -0.001 C 
ATOM     11  C   UNL     1      36.914 -22.946 -10.701  0.00  0.00    -0.000 C 
ATOM     12  C   UNL     1      35.371 -24.741 -11.186  0.00  0.00    -0.000 C 
ATOM     13  C   UNL     1      35.915 -23.826 -10.285  0.00  0.00    -0.000 C 
ENDBRANCH   2   8
BRANCH   2  14
ATOM     14  O   UNL     1      38.736 -24.202 -14.301  0.00  0.00    -0.452 OA
BRANCH  14  16
ATOM     15  O   UNL     1      38.511 -26.377 -13.557  0.00  0.00    -0.250 OA
ATOM     16  C   UNL     1      39.084 -25.519 -14.214  0.00  0.00    +0.318 C 
ATOM     17  C   UNL     1      40.296 -25.779 -15.057  0.00  0.00    +0.121 C 
ENDBRANCH  14  16
ENDBRANCH   2  14
BRANCH   1  18
ATOM     18  C   UNL     1      33.861 -23.090 -16.843  0.00  0.00    -0.073 C 
BRANCH  18  19
ATOM     19  C   UNL     1      33.708 -23.362 -18.340  0.00  0.00    +0.004 C 
BRANCH  19  20
ATOM     20  C   UNL     1      34.051 -22.145 -19.161  0.00  0.00    -0.024 C 
ATOM     21  C   UNL     1      35.378 -21.885 -19.471  0.00  0.00    -0.004 C 
ATOM     22  C   UNL     1      33.035 -21.305 -19.595  0.00  0.00    -0.004 C 
ATOM     23  C   UNL     1      35.696 -20.758 -20.231  0.00  0.00    -0.000 C 
ATOM     24  C   UNL     1      33.354 -20.180 -20.354  0.00  0.00    -0.000 C 
ATOM     25  C   UNL     1      34.683 -19.906 -20.672  0.00  0.00    -0.000 C 
ENDBRANCH  19  20
ENDBRANCH  18  19
ENDBRANCH   1  18
TORSDOF 6
ENDMDL
MODEL 5
REMARK VINA RESULT:      -8.8      1.094      2.037
REMARK  Name = 60977
REMARK  6 active torsions:
REMARK  status: ('A' for Active; 'I' for Inactive)
REMARK    1  A    between atoms: N_1  and  C_18
REMARK    2  A    between atoms: C_2  and  C_8
REMARK    3  A    between atoms: C_2  and  O_14
REMARK    4  A    between atoms: O_14  and  C_16
REMARK    5  A    between atoms: C_18  and  C_19
REMARK    6  A    between atoms: C_19  and  C_20
REMARK                            x       y       z     vdW  Elec       q    Type
REMARK                         _______ _______ _______ _____ _____    ______ ____
ROOT
ATOM      1  N   UNL     1      35.497 -20.276 -20.830  0.00  0.00    +0.387 N 
ATOM      2  C   UNL     1      35.188 -18.043 -22.770  0.00  0.00    +0.150 C 
ATOM      3  C   UNL     1      36.547 -18.477 -22.174  0.00  0.00    +0.022 C 
ATOM      4  C   UNL     1      34.255 -19.274 -22.708  0.00  0.00    +0.022 C 
ATOM      5  C   UNL     1      36.423 -19.139 -20.795  0.00  0.00    -0.073 C 
ATOM      6  C   UNL     1      34.167 -19.869 -21.301  0.00  0.00    -0.073 C 
ATOM      7  H   UNL     1      35.866 -20.960 -21.491  0.00  0.00    -0.080 HD
ENDROOT
BRANCH   2   8
ATOM      8  C   UNL     1      34.545 -16.785 -22.181  0.00  0.00    +0.013 C 
ATOM      9  C   UNL     1      34.843 -15.535 -22.720  0.00  0.00    -0.001 C 
ATOM     10  C   UNL     1      33.665 -16.892 -21.106  0.00  0.00    -0.001 C 
ATOM     11  C   UNL     1      34.257 -14.388 -22.183  0.00  0.00    -0.000 C 
ATOM     12  C   UNL     1      33.080 -15.745 -20.568  0.00  0.00    -0.000 C 
ATOM     13  C   UNL     1      33.376 -14.494 -21.107  0.00  0.00    -0.000 C 
ENDBRANCH   2   8
BRANCH   2  14
ATOM     14  O   UNL     1      35.422 -17.766 -24.162  0.00  0.00    -0.452 OA
BRANCH  14  16
ATOM     15  O   UNL     1      33.592 -17.691 -25.569  0.00  0.00    -0.250 OA
ATOM     16  C   UNL     1      34.510 -18.294 -25.030  0.00  0.00    +0.318 C 
ATOM     17  C   UNL     1      34.794 -19.751 -25.239  0.00  0.00    +0.121 C 
ENDBRANCH  14  16
ENDBRANCH   2  14
BRANCH   1  18
ATOM     18  C   UNL     1      35.405 -20.904 -19.512  0.00  0.00    -0.073 C 
BRANCH  18  19
ATOM     19  C   UNL     1      34.361 -22.022 -19.511  0.00  0.00    +0.004 C 
BRANCH  19  20
ATOM     20  C   UNL     1      34.085 -22.520 -18.115  0.00  0.00    -0.024 C 
ATOM     21  C   UNL     1      35.135 -22.650 -17.218  0.00  0.00    -0.004 C 
ATOM     22  C   UNL     1      32.786 -22.839 -17.749  0.00  0.00    -0.004 C 
ATOM     23  C   UNL     1      34.880 -23.111 -15.926  0.00  0.00    -0.000 C 
ATOM     24  C   UNL     1      32.531 -23.300 -16.458  0.00  0.00    -0.000 C 
ATOM     25  C   UNL     1      33.577 -23.436 -15.546  0.00  0.00    -0.000 C 
ENDBRANCH  19  20
ENDBRANCH  18  19
ENDBRANCH   1  18
TORSDOF 6
ENDMDL
MODEL 6
REMARK VINA RESULT:      -8.8      9.653     13.652
REMARK  Name = 60977
REMARK  6 active torsions:
REMARK  status: ('A' for Active; 'I' for Inactive)
REMARK    1  A    between atoms: N_1  and  C_18
REMARK    2  A    between atoms: C_2  and  C_8
REMARK    3  A    between atoms: C_2  and  O_14
REMARK    4  A    between atoms: O_14  and  C_16
REMARK    5  A    between atoms: C_18  and  C_19
REMARK    6  A    between atoms: C_19  and  C_20
REMARK                            x       y       z     vdW  Elec       q    Type
REMARK                         _______ _______ _______ _____ _____    ______ ____
ROOT
ATOM      1  N   UNL     1      31.472  -6.725 -22.548  0.00  0.00    +0.387 N 
ATOM      2  C   UNL     1      32.517  -9.503 -22.351  0.00  0.00    +0.150 C 
ATOM      3  C   UNL     1      33.006  -8.339 -21.458  0.00  0.00    +0.022 C 
ATOM      4  C   UNL     1      31.087  -9.145 -22.817  0.00  0.00    +0.022 C 
ATOM      5  C   UNL     1      32.854  -6.962 -22.116  0.00  0.00    -0.073 C 
ATOM      6  C   UNL     1      31.017  -7.767 -23.478  0.00  0.00    -0.073 C 
ATOM      7  H   UNL     1      30.875  -6.762 -21.722  0.00  0.00    -0.080 HD
ENDROOT
BRANCH   2   8
ATOM      8  C   UNL     1      33.429  -9.913 -23.510  0.00  0.00    +0.013 C 
ATOM      9  C   UNL     1      33.245 -11.144 -24.138  0.00  0.00    -0.001 C 
ATOM     10  C   UNL     1      34.442  -9.055 -23.935  0.00  0.00    -0.001 C 
ATOM     11  C   UNL     1      34.076 -11.518 -25.194  0.00  0.00    -0.000 C 
ATOM     12  C   UNL     1      35.275  -9.429 -24.991  0.00  0.00    -0.000 C 
ATOM     13  C   UNL     1      35.091 -10.661 -25.620  0.00  0.00    -0.000 C 
ENDBRANCH   2   8
BRANCH   2  14
ATOM     14  O   UNL     1      32.403 -10.654 -21.497  0.00  0.00    -0.452 OA
BRANCH  14  16
ATOM     15  O   UNL     1      30.193 -11.256 -21.197  0.00  0.00    -0.250 OA
ATOM     16  C   UNL     1      31.235 -10.755 -20.797  0.00  0.00    +0.318 C 
ATOM     17  C   UNL     1      31.407 -10.153 -19.435  0.00  0.00    +0.121 C 
ENDBRANCH  14  16
ENDBRANCH   2  14
BRANCH   1  18
ATOM     18  C   UNL     1      31.344  -5.401 -23.157  0.00  0.00    -0.073 C 
BRANCH  18  19
ATOM     19  C   UNL     1      31.035  -5.514 -24.650  0.00  0.00    +0.004 C 
BRANCH  19  20
ATOM     20  C   UNL     1      32.224  -5.128 -25.492  0.00  0.00    -0.024 C 
ATOM     21  C   UNL     1      33.378  -5.894 -25.433  0.00  0.00    -0.004 C 
ATOM     22  C   UNL     1      32.145  -4.012 -26.313  0.00  0.00    -0.004 C 
ATOM     23  C   UNL     1      34.479  -5.537 -26.212  0.00  0.00    -0.000 C 
ATOM     24  C   UNL     1      33.246  -3.655 -27.092  0.00  0.00    -0.000 C 
ATOM     25  C   UNL     1      34.412  -4.417 -27.042  0.00  0.00    -0.000 C 
ENDBRANCH  19  20
ENDBRANCH  18  19
ENDBRANCH   1  18
TORSDOF 6
ENDMDL
MODEL 7
REMARK VINA RESULT:      -8.6      7.540     11.388
REMARK  Name = 60977
REMARK  6 active torsions:
REMARK  status: ('A' for Active; 'I' for Inactive)
REMARK    1  A    between atoms: N_1  and  C_18
REMARK    2  A    between atoms: C_2  and  C_8
REMARK    3  A    between atoms: C_2  and  O_14
REMARK    4  A    between atoms: O_14  and  C_16
REMARK    5  A    between atoms: C_18  and  C_19
REMARK    6  A    between atoms: C_19  and  C_20
REMARK                            x       y       z     vdW  Elec       q    Type
REMARK                         _______ _______ _______ _____ _____    ______ ____
ROOT
ATOM      1  N   UNL     1      33.862  -9.801 -23.662  0.00  0.00    +0.387 N 
ATOM      2  C   UNL     1      32.417  -7.393 -22.681  0.00  0.00    +0.150 C 
ATOM      3  C   UNL     1      31.734  -8.758 -22.932  0.00  0.00    +0.022 C 
ATOM      4  C   UNL     1      33.912  -7.679 -22.408  0.00  0.00    +0.022 C 
ATOM      5  C   UNL     1      32.446  -9.607 -23.993  0.00  0.00    -0.073 C 
ATOM      6  C   UNL     1      34.557  -8.515 -23.515  0.00  0.00    -0.073 C 
ATOM      7  H   UNL     1      33.910 -10.286 -22.766  0.00  0.00    -0.080 HD
ENDROOT
BRANCH   2   8
ATOM      8  C   UNL     1      32.208  -6.311 -23.744  0.00  0.00    +0.013 C 
ATOM      9  C   UNL     1      33.169  -6.115 -24.734  0.00  0.00    -0.001 C 
ATOM     10  C   UNL     1      31.058  -5.525 -23.718  0.00  0.00    -0.001 C 
ATOM     11  C   UNL     1      32.979  -5.129 -25.703  0.00  0.00    -0.000 C 
ATOM     12  C   UNL     1      30.868  -4.537 -24.686  0.00  0.00    -0.000 C 
ATOM     13  C   UNL     1      31.828  -4.341 -25.678  0.00  0.00    -0.000 C 
ENDBRANCH   2   8
BRANCH   2  14
ATOM     14  O   UNL     1      31.861  -6.876 -21.460  0.00  0.00    -0.452 OA
BRANCH  14  16
ATOM     15  O   UNL     1      33.153  -6.730 -19.550  0.00  0.00    -0.250 OA
ATOM     16  C   UNL     1      32.421  -7.351 -20.308  0.00  0.00    +0.318 C 
ATOM     17  C   UNL     1      32.006  -8.776 -20.095  0.00  0.00    +0.121 C 
ENDBRANCH  14  16
ENDBRANCH   2  14
BRANCH   1  18
ATOM     18  C   UNL     1      34.519 -10.627 -24.675  0.00  0.00    -0.073 C 
BRANCH  18  19
ATOM     19  C   UNL     1      33.497 -11.463 -25.445  0.00  0.00    +0.004 C 
BRANCH  19  20
ATOM     20  C   UNL     1      33.585 -12.923 -25.076  0.00  0.00    -0.024 C 
ATOM     21  C   UNL     1      33.963 -13.279 -23.791  0.00  0.00    -0.004 C 
ATOM     22  C   UNL     1      33.287 -13.886 -26.029  0.00  0.00    -0.004 C 
ATOM     23  C   UNL     1      34.046 -14.629 -23.449  0.00  0.00    -0.000 C 
ATOM     24  C   UNL     1      33.369 -15.236 -25.688  0.00  0.00    -0.000 C 
ATOM     25  C   UNL     1      33.748 -15.608 -24.399  0.00  0.00    -0.000 C 
ENDBRANCH  19  20
ENDBRANCH  18  19
ENDBRANCH   1  18
TORSDOF 6
ENDMDL
MODEL 8
REMARK VINA RESULT:      -8.6      8.603     12.005
REMARK  Name = 60977
REMARK  6 active torsions:
REMARK  status: ('A' for Active; 'I' for Inactive)
REMARK    1  A    between atoms: N_1  and  C_18
REMARK    2  A    between atoms: C_2  and  C_8
REMARK    3  A    between atoms: C_2  and  O_14
REMARK    4  A    between atoms: O_14  and  C_16
REMARK    5  A    between atoms: C_18  and  C_19
REMARK    6  A    between atoms: C_19  and  C_20
REMARK                            x       y       z     vdW  Elec       q    Type
REMARK                         _______ _______ _______ _____ _____    ______ ____
ROOT
ATOM      1  N   UNL     1      31.716  -8.543 -22.177  0.00  0.00    +0.387 N 
ATOM      2  C   UNL     1      31.547  -6.057 -23.800  0.00  0.00    +0.150 C 
ATOM      3  C   UNL     1      30.638  -7.288 -24.024  0.00  0.00    +0.022 C 
ATOM      4  C   UNL     1      32.014  -6.101 -22.327  0.00  0.00    +0.022 C 
ATOM      5  C   UNL     1      31.281  -8.607 -23.577  0.00  0.00    -0.073 C 
ATOM      6  C   UNL     1      32.659  -7.439 -21.960  0.00  0.00    -0.073 C 
ATOM      7  H   UNL     1      30.892  -8.368 -21.602  0.00  0.00    -0.080 HD
ENDROOT
BRANCH   2   8
ATOM      8  C   UNL     1      32.707  -5.868 -24.781  0.00  0.00    +0.013 C 
ATOM      9  C   UNL     1      33.902  -6.558 -24.585  0.00  0.00    -0.001 C 
ATOM     10  C   UNL     1      32.566  -5.007 -25.868  0.00  0.00    -0.001 C 
ATOM     11  C   UNL     1      34.959  -6.387 -25.479  0.00  0.00    -0.000 C 
ATOM     12  C   UNL     1      33.624  -4.835 -26.762  0.00  0.00    -0.000 C 
ATOM     13  C   UNL     1      34.820  -5.525 -26.567  0.00  0.00    -0.000 C 
ENDBRANCH   2   8
BRANCH   2  14
ATOM     14  O   UNL     1      30.706  -4.898 -23.938  0.00  0.00    -0.452 OA
BRANCH  14  16
ATOM     15  O   UNL     1      30.072  -4.299 -21.799  0.00  0.00    -0.250 OA
ATOM     16  C   UNL     1      30.655  -4.074 -22.850  0.00  0.00    +0.318 C 
ATOM     17  C   UNL     1      31.431  -2.821 -23.128  0.00  0.00    +0.121 C 
ENDBRANCH  14  16
ENDBRANCH   2  14
BRANCH   1  18
ATOM     18  C   UNL     1      32.310  -9.815 -21.765  0.00  0.00    -0.073 C 
BRANCH  18  19
ATOM     19  C   UNL     1      31.261 -10.927 -21.743  0.00  0.00    +0.004 C 
BRANCH  19  20
ATOM     20  C   UNL     1      31.902 -12.292 -21.745  0.00  0.00    -0.024 C 
ATOM     21  C   UNL     1      32.290 -12.860 -22.949  0.00  0.00    -0.004 C 
ATOM     22  C   UNL     1      32.092 -12.958 -20.543  0.00  0.00    -0.004 C 
ATOM     23  C   UNL     1      32.882 -14.124 -22.951  0.00  0.00    -0.000 C 
ATOM     24  C   UNL     1      32.684 -14.221 -20.546  0.00  0.00    -0.000 C 
ATOM     25  C   UNL     1      33.080 -14.803 -21.749  0.00  0.00    -0.000 C 
ENDBRANCH  19  20
ENDBRANCH  18  19
ENDBRANCH   1  18
TORSDOF 6
ENDMDL
MODEL 9
REMARK VINA RESULT:      -8.6      3.668      6.235
REMARK  Name = 60977
REMARK  6 active torsions:
REMARK  status: ('A' for Active; 'I' for Inactive)
REMARK    1  A    between atoms: N_1  and  C_18
REMARK    2  A    between atoms: C_2  and  C_8
REMARK    3  A    between atoms: C_2  and  O_14
REMARK    4  A    between atoms: O_14  and  C_16
REMARK    5  A    between atoms: C_18  and  C_19
REMARK    6  A    between atoms: C_19  and  C_20
REMARK                            x       y       z     vdW  Elec       q    Type
REMARK                         _______ _______ _______ _____ _____    ______ ____
ROOT
ATOM      1  N   UNL     1      34.056 -15.860 -24.289  0.00  0.00    +0.387 N 
ATOM      2  C   UNL     1      33.049 -13.116 -23.740  0.00  0.00    +0.150 C 
ATOM      3  C   UNL     1      32.321 -14.128 -24.656  0.00  0.00    +0.022 C 
ATOM      4  C   UNL     1      33.909 -13.938 -22.753  0.00  0.00    +0.022 C 
ATOM      5  C   UNL     1      33.264 -15.152 -25.300  0.00  0.00    -0.073 C 
ATOM      6  C   UNL     1      34.835 -14.924 -23.469  0.00  0.00    -0.073 C 
ATOM      7  H   UNL     1      33.409 -16.352 -23.673  0.00  0.00    -0.080 HD
ENDROOT
BRANCH   2   8
ATOM      8  C   UNL     1      33.843 -12.006 -24.433  0.00  0.00    +0.013 C 
ATOM      9  C   UNL     1      34.230 -12.155 -25.763  0.00  0.00    -0.001 C 
ATOM     10  C   UNL     1      34.179 -10.849 -23.731  0.00  0.00    -0.001 C 
ATOM     11  C   UNL     1      34.954 -11.144 -26.395  0.00  0.00    -0.000 C 
ATOM     12  C   UNL     1      34.904  -9.838 -24.363  0.00  0.00    -0.000 C 
ATOM     13  C   UNL     1      35.291  -9.986 -25.695  0.00  0.00    -0.000 C 
ENDBRANCH   2   8
BRANCH   2  14
ATOM     14  O   UNL     1      32.031 -12.462 -22.962  0.00  0.00    -0.452 OA
BRANCH  14  16
ATOM     15  O   UNL     1      32.091 -13.997 -21.237  0.00  0.00    -0.250 OA
ATOM     16  C   UNL     1      31.938 -12.859 -21.659  0.00  0.00    +0.318 C 
ATOM     17  C   UNL     1      31.612 -11.680 -20.793  0.00  0.00    +0.121 C 
ENDBRANCH  14  16
ENDBRANCH   2  14
BRANCH   1  18
ATOM     18  C   UNL     1      34.935 -16.843 -24.921  0.00  0.00    -0.073 C 
BRANCH  18  19
ATOM     19  C   UNL     1      34.492 -18.268 -24.588  0.00  0.00    +0.004 C 
BRANCH  19  20
ATOM     20  C   UNL     1      34.956 -18.686 -23.216  0.00  0.00    -0.024 C 
ATOM     21  C   UNL     1      34.101 -19.408 -22.398  0.00  0.00    -0.004 C 
ATOM     22  C   UNL     1      36.232 -18.342 -22.794  0.00  0.00    -0.004 C 
ATOM     23  C   UNL     1      34.530 -19.794 -21.127  0.00  0.00    -0.000 C 
ATOM     24  C   UNL     1      36.662 -18.728 -21.524  0.00  0.00    -0.000 C 
ATOM     25  C   UNL     1      35.811 -19.454 -20.691  0.00  0.00    -0.000 C 
ENDBRANCH  19  20
ENDBRANCH  18  19
ENDBRANCH   1  18
TORSDOF 6
ENDMDL
