MODEL 1
REMARK VINA RESULT:      -7.7      0.000      0.000
REMARK  Name = 454194
REMARK  3 active torsions:
REMARK  status: ('A' for Active; 'I' for Inactive)
REMARK    1  A    between atoms: N_2  and  C_13
REMARK    2  A    between atoms: C_15  and  C_16
REMARK    3  A    between atoms: C_16  and  O_17
REMARK                            x       y       z     vdW  Elec       q    Type
REMARK                         _______ _______ _______ _____ _____    ______ ____
ROOT
ATOM      1  O   UNL     1      36.865 -19.799 -20.270  0.00  0.00    -0.193 OA
ATOM      2  N   UNL     1      34.831 -18.972 -20.974  0.00  0.00    -0.178 N 
ATOM      3  N   UNL     1      35.026 -21.034 -19.775  0.00  0.00    -0.306 NA
ATOM      4  N   UNL     1      33.139 -22.296 -19.274  0.00  0.00    -0.332 N 
ATOM      5  C   UNL     1      33.466 -19.134 -21.040  0.00  0.00    +0.083 C 
ATOM      6  C   UNL     1      35.642 -19.928 -20.336  0.00  0.00    +0.276 C 
ATOM      7  C   UNL     1      32.856 -20.192 -20.507  0.00  0.00    +0.065 C 
ATOM      8  C   UNL     1      33.730 -21.189 -19.836  0.00  0.00    +0.193 C 
ATOM      9  H   UNL     1      33.692 -22.974 -18.822  0.00  0.00    +0.145 HD
ATOM     10  H   UNL     1      32.163 -22.410 -19.321  0.00  0.00    +0.145 HD
ENDROOT
BRANCH   2  13
ATOM     11  O   UNL     1      35.369 -17.928 -22.997  0.00  0.00    -0.308 OA
ATOM     12  O   UNL     1      34.947 -15.696 -22.395  0.00  0.00    -0.324 OA
ATOM     13  C   UNL     1      35.395 -17.803 -21.575  0.00  0.00    +0.239 C 
ATOM     14  C   UNL     1      34.590 -16.556 -21.315  0.00  0.00    +0.197 C 
ATOM     15  C   UNL     1      35.278 -16.580 -23.474  0.00  0.00    +0.267 C 
BRANCH  15  16
ATOM     16  C   UNL     1      34.214 -16.500 -24.553  0.00  0.00    +0.199 C 
BRANCH  16  17
ATOM     17  O   UNL     1      34.816 -16.756 -25.812  0.00  0.00    -0.377 OA
ATOM     18  H   UNL     1      34.161 -17.151 -26.409  0.00  0.00    +0.211 HD
ENDBRANCH  16  17
ENDBRANCH  15  16
ENDBRANCH   2  13
TORSDOF 3
ENDMDL
MODEL 2
REMARK VINA RESULT:      -7.2      2.537      3.479
REMARK  Name = 454194
REMARK  3 active torsions:
REMARK  status: ('A' for Active; 'I' for Inactive)
REMARK    1  A    between atoms: N_2  and  C_13
REMARK    2  A    between atoms: C_15  and  C_16
REMARK    3  A    between atoms: C_16  and  O_17
REMARK                            x       y       z     vdW  Elec       q    Type
REMARK                         _______ _______ _______ _____ _____    ______ ____
ROOT
ATOM      1  O   UNL     1      34.910 -15.404 -20.196  0.00  0.00    -0.193 OA
ATOM      2  N   UNL     1      34.596 -16.121 -22.365  0.00  0.00    -0.178 N 
ATOM      3  N   UNL     1      35.261 -17.607 -20.612  0.00  0.00    -0.306 NA
ATOM      4  N   UNL     1      35.621 -19.864 -21.044  0.00  0.00    -0.332 N 
ATOM      5  C   UNL     1      34.616 -17.163 -23.263  0.00  0.00    +0.083 C 
ATOM      6  C   UNL     1      34.922 -16.326 -21.012  0.00  0.00    +0.276 C 
ATOM      7  C   UNL     1      34.941 -18.402 -22.897  0.00  0.00    +0.065 C 
ATOM      8  C   UNL     1      35.280 -18.599 -21.463  0.00  0.00    +0.193 C 
ATOM      9  H   UNL     1      35.850 -20.024 -20.101  0.00  0.00    +0.145 HD
ATOM     10  H   UNL     1      35.635 -20.608 -21.688  0.00  0.00    +0.145 HD
ENDROOT
BRANCH   2  13
ATOM     11  O   UNL     1      34.423 -14.768 -24.266  0.00  0.00    -0.308 OA
ATOM     12  O   UNL     1      32.517 -13.526 -23.676  0.00  0.00    -0.324 OA
ATOM     13  C   UNL     1      34.235 -14.825 -22.852  0.00  0.00    +0.239 C 
ATOM     14  C   UNL     1      32.771 -14.514 -22.678  0.00  0.00    +0.197 C 
ATOM     15  C   UNL     1      33.460 -13.809 -24.718  0.00  0.00    +0.267 C 
BRANCH  15  16
ATOM     16  C   UNL     1      32.738 -14.357 -25.934  0.00  0.00    +0.199 C 
BRANCH  16  17
ATOM     17  O   UNL     1      33.592 -15.272 -26.603  0.00  0.00    -0.377 OA
ATOM     18  H   UNL     1      34.444 -15.316 -26.141  0.00  0.00    +0.211 HD
ENDBRANCH  16  17
ENDBRANCH  15  16
ENDBRANCH   2  13
TORSDOF 3
ENDMDL
MODEL 3
REMARK VINA RESULT:      -7.0      5.710      8.641
REMARK  Name = 454194
REMARK  3 active torsions:
REMARK  status: ('A' for Active; 'I' for Inactive)
REMARK    1  A    between atoms: N_2  and  C_13
REMARK    2  A    between atoms: C_15  and  C_16
REMARK    3  A    between atoms: C_16  and  O_17
REMARK                            x       y       z     vdW  Elec       q    Type
REMARK                         _______ _______ _______ _____ _____    ______ ____
ROOT
ATOM      1  O   UNL     1      33.369 -23.429 -17.337  0.00  0.00    -0.193 OA
ATOM      2  N   UNL     1      35.516 -22.763 -16.825  0.00  0.00    -0.178 N 
ATOM      3  N   UNL     1      34.436 -22.134 -18.865  0.00  0.00    -0.306 NA
ATOM      4  N   UNL     1      35.535 -20.809 -20.429  0.00  0.00    -0.332 N 
ATOM      5  C   UNL     1      36.642 -22.068 -17.201  0.00  0.00    +0.083 C 
ATOM      6  C   UNL     1      34.384 -22.810 -17.658  0.00  0.00    +0.276 C 
ATOM      7  C   UNL     1      36.711 -21.413 -18.359  0.00  0.00    +0.065 C 
ATOM      8  C   UNL     1      35.505 -21.472 -19.224  0.00  0.00    +0.193 C 
ATOM      9  H   UNL     1      34.751 -20.831 -21.022  0.00  0.00    +0.145 HD
ATOM     10  H   UNL     1      36.341 -20.312 -20.696  0.00  0.00    +0.145 HD
ENDROOT
BRANCH   2  13
ATOM     11  O   UNL     1      35.559 -24.848 -15.766  0.00  0.00    -0.308 OA
ATOM     12  O   UNL     1      36.883 -24.300 -13.903  0.00  0.00    -0.324 OA
ATOM     13  C   UNL     1      35.536 -23.436 -15.562  0.00  0.00    +0.239 C 
ATOM     14  C   UNL     1      36.791 -23.172 -14.771  0.00  0.00    +0.197 C 
ATOM     15  C   UNL     1      36.242 -25.365 -14.617  0.00  0.00    +0.267 C 
BRANCH  15  16
ATOM     16  C   UNL     1      37.275 -26.382 -15.064  0.00  0.00    +0.199 C 
BRANCH  16  17
ATOM     17  O   UNL     1      36.755 -27.116 -16.161  0.00  0.00    -0.377 OA
ATOM     18  H   UNL     1      36.673 -26.531 -16.931  0.00  0.00    +0.211 HD
ENDBRANCH  16  17
ENDBRANCH  15  16
ENDBRANCH   2  13
TORSDOF 3
ENDMDL
MODEL 4
REMARK VINA RESULT:      -6.9      6.658      9.044
REMARK  Name = 454194
REMARK  3 active torsions:
REMARK  status: ('A' for Active; 'I' for Inactive)
REMARK    1  A    between atoms: N_2  and  C_13
REMARK    2  A    between atoms: C_15  and  C_16
REMARK    3  A    between atoms: C_16  and  O_17
REMARK                            x       y       z     vdW  Elec       q    Type
REMARK                         _______ _______ _______ _____ _____    ______ ____
ROOT
ATOM      1  O   UNL     1      34.429 -23.083 -18.256  0.00  0.00    -0.193 OA
ATOM      2  N   UNL     1      34.027 -23.400 -16.008  0.00  0.00    -0.178 N 
ATOM      3  N   UNL     1      32.278 -22.888 -17.558  0.00  0.00    -0.306 NA
ATOM      4  N   UNL     1      30.076 -22.687 -16.838  0.00  0.00    -0.332 N 
ATOM      5  C   UNL     1      33.112 -23.437 -14.981  0.00  0.00    +0.083 C 
ATOM      6  C   UNL     1      33.623 -23.122 -17.326  0.00  0.00    +0.276 C 
ATOM      7  C   UNL     1      31.815 -23.214 -15.185  0.00  0.00    +0.065 C 
ATOM      8  C   UNL     1      31.407 -22.923 -16.584  0.00  0.00    +0.193 C 
ATOM      9  H   UNL     1      29.777 -22.492 -17.755  0.00  0.00    +0.145 HD
ATOM     10  H   UNL     1      29.423 -22.714 -16.102  0.00  0.00    +0.145 HD
ENDROOT
BRANCH   2  13
ATOM     11  O   UNL     1      35.854 -22.709 -14.721  0.00  0.00    -0.308 OA
ATOM     12  O   UNL     1      36.838 -24.802 -14.304  0.00  0.00    -0.324 OA
ATOM     13  C   UNL     1      35.399 -23.652 -15.691  0.00  0.00    +0.239 C 
ATOM     14  C   UNL     1      35.616 -24.983 -15.018  0.00  0.00    +0.197 C 
ATOM     15  C   UNL     1      36.880 -23.402 -14.000  0.00  0.00    +0.267 C 
BRANCH  15  16
ATOM     16  C   UNL     1      36.679 -23.190 -12.512  0.00  0.00    +0.199 C 
BRANCH  16  17
ATOM     17  O   UNL     1      37.844 -22.589 -11.971  0.00  0.00    -0.377 OA
ATOM     18  H   UNL     1      38.113 -23.066 -11.170  0.00  0.00    +0.211 HD
ENDBRANCH  16  17
ENDBRANCH  15  16
ENDBRANCH   2  13
TORSDOF 3
ENDMDL
MODEL 5
REMARK VINA RESULT:      -6.9      3.004      5.692
REMARK  Name = 454194
REMARK  3 active torsions:
REMARK  status: ('A' for Active; 'I' for Inactive)
REMARK    1  A    between atoms: N_2  and  C_13
REMARK    2  A    between atoms: C_15  and  C_16
REMARK    3  A    between atoms: C_16  and  O_17
REMARK                            x       y       z     vdW  Elec       q    Type
REMARK                         _______ _______ _______ _____ _____    ______ ____
ROOT
ATOM      1  O   UNL     1      34.925 -15.099 -20.543  0.00  0.00    -0.193 OA
ATOM      2  N   UNL     1      34.691 -16.365 -22.456  0.00  0.00    -0.178 N 
ATOM      3  N   UNL     1      34.204 -14.023 -22.407  0.00  0.00    -0.306 NA
ATOM      4  N   UNL     1      33.464 -12.926 -24.318  0.00  0.00    -0.332 N 
ATOM      5  C   UNL     1      34.347 -16.413 -23.787  0.00  0.00    +0.083 C 
ATOM      6  C   UNL     1      34.623 -15.160 -21.736  0.00  0.00    +0.276 C 
ATOM      7  C   UNL     1      33.941 -15.331 -24.449  0.00  0.00    +0.065 C 
ATOM      8  C   UNL     1      33.878 -14.066 -23.672  0.00  0.00    +0.193 C 
ATOM      9  H   UNL     1      33.413 -12.074 -23.829  0.00  0.00    +0.145 HD
ATOM     10  H   UNL     1      33.219 -12.962 -25.271  0.00  0.00    +0.145 HD
ENDROOT
BRANCH   2  13
ATOM     11  O   UNL     1      34.147 -17.994 -20.867  0.00  0.00    -0.308 OA
ATOM     12  O   UNL     1      35.050 -19.882 -21.935  0.00  0.00    -0.324 OA
ATOM     13  C   UNL     1      35.115 -17.580 -21.831  0.00  0.00    +0.239 C 
ATOM     14  C   UNL     1      35.183 -18.745 -22.785  0.00  0.00    +0.197 C 
ATOM     15  C   UNL     1      34.269 -19.421 -20.825  0.00  0.00    +0.267 C 
BRANCH  15  16
ATOM     16  C   UNL     1      32.887 -20.044 -20.871  0.00  0.00    +0.199 C 
BRANCH  16  17
ATOM     17  O   UNL     1      32.637 -20.700 -19.638  0.00  0.00    -0.377 OA
ATOM     18  H   UNL     1      31.797 -20.384 -19.268  0.00  0.00    +0.211 HD
ENDBRANCH  16  17
ENDBRANCH  15  16
ENDBRANCH   2  13
TORSDOF 3
ENDMDL
MODEL 6
REMARK VINA RESULT:      -6.8      8.017      9.326
REMARK  Name = 454194
REMARK  3 active torsions:
REMARK  status: ('A' for Active; 'I' for Inactive)
REMARK    1  A    between atoms: N_2  and  C_13
REMARK    2  A    between atoms: C_15  and  C_16
REMARK    3  A    between atoms: C_16  and  O_17
REMARK                            x       y       z     vdW  Elec       q    Type
REMARK                         _______ _______ _______ _____ _____    ______ ____
ROOT
ATOM      1  O   UNL     1      32.744 -24.159 -13.100  0.00  0.00    -0.193 OA
ATOM      2  N   UNL     1      32.007 -23.663 -15.228  0.00  0.00    -0.178 N 
ATOM      3  N   UNL     1      34.327 -23.639 -14.641  0.00  0.00    -0.306 NA
ATOM      4  N   UNL     1      35.944 -23.105 -16.224  0.00  0.00    -0.332 N 
ATOM      5  C   UNL     1      32.325 -23.302 -16.517  0.00  0.00    +0.083 C 
ATOM      6  C   UNL     1      33.011 -23.838 -14.259  0.00  0.00    +0.276 C 
ATOM      7  C   UNL     1      33.584 -23.106 -16.903  0.00  0.00    +0.065 C 
ATOM      8  C   UNL     1      34.631 -23.298 -15.866  0.00  0.00    +0.193 C 
ATOM      9  H   UNL     1      36.659 -23.225 -15.558  0.00  0.00    +0.145 HD
ATOM     10  H   UNL     1      36.170 -22.847 -17.147  0.00  0.00    +0.145 HD
ENDROOT
BRANCH   2  13
ATOM     11  O   UNL     1      29.865 -22.734 -15.366  0.00  0.00    -0.308 OA
ATOM     12  O   UNL     1      28.614 -24.705 -15.641  0.00  0.00    -0.324 OA
ATOM     13  C   UNL     1      30.626 -23.851 -14.907  0.00  0.00    +0.239 C 
ATOM     14  C   UNL     1      30.005 -25.021 -15.626  0.00  0.00    +0.197 C 
ATOM     15  C   UNL     1      28.564 -23.272 -15.635  0.00  0.00    +0.267 C 
BRANCH  15  16
ATOM     16  C   UNL     1      28.080 -22.766 -16.980  0.00  0.00    +0.199 C 
BRANCH  16  17
ATOM     17  O   UNL     1      27.556 -23.856 -17.721  0.00  0.00    -0.377 OA
ATOM     18  H   UNL     1      26.646 -24.035 -17.434  0.00  0.00    +0.211 HD
ENDBRANCH  16  17
ENDBRANCH  15  16
ENDBRANCH   2  13
TORSDOF 3
ENDMDL
MODEL 7
REMARK VINA RESULT:      -6.8      6.676      9.874
REMARK  Name = 454194
REMARK  3 active torsions:
REMARK  status: ('A' for Active; 'I' for Inactive)
REMARK    1  A    between atoms: N_2  and  C_13
REMARK    2  A    between atoms: C_15  and  C_16
REMARK    3  A    between atoms: C_16  and  O_17
REMARK                            x       y       z     vdW  Elec       q    Type
REMARK                         _______ _______ _______ _____ _____    ______ ____
ROOT
ATOM      1  O   UNL     1      37.300 -22.284 -16.796  0.00  0.00    -0.193 OA
ATOM      2  N   UNL     1      35.769 -23.287 -15.394  0.00  0.00    -0.178 N 
ATOM      3  N   UNL     1      35.185 -22.516 -17.583  0.00  0.00    -0.306 NA
ATOM      4  N   UNL     1      33.014 -22.754 -18.383  0.00  0.00    -0.332 N 
ATOM      5  C   UNL     1      34.477 -23.714 -15.195  0.00  0.00    +0.083 C 
ATOM      6  C   UNL     1      36.149 -22.674 -16.602  0.00  0.00    +0.276 C 
ATOM      7  C   UNL     1      33.535 -23.570 -16.126  0.00  0.00    +0.065 C 
ATOM      8  C   UNL     1      33.956 -22.922 -17.396  0.00  0.00    +0.193 C 
ATOM      9  H   UNL     1      33.264 -22.328 -19.235  0.00  0.00    +0.145 HD
ATOM     10  H   UNL     1      32.091 -23.061 -18.239  0.00  0.00    +0.145 HD
ENDROOT
BRANCH   2  13
ATOM     11  O   UNL     1      36.138 -23.070 -13.095  0.00  0.00    -0.308 OA
ATOM     12  O   UNL     1      37.484 -24.965 -12.747  0.00  0.00    -0.324 OA
ATOM     13  C   UNL     1      36.710 -23.485 -14.335  0.00  0.00    +0.239 C 
ATOM     14  C   UNL     1      37.043 -24.936 -14.103  0.00  0.00    +0.197 C 
ATOM     15  C   UNL     1      36.784 -23.888 -12.111  0.00  0.00    +0.267 C 
BRANCH  15  16
ATOM     16  C   UNL     1      35.743 -24.440 -11.155  0.00  0.00    +0.199 C 
BRANCH  16  17
ATOM     17  O   UNL     1      36.151 -24.168  -9.824  0.00  0.00    -0.377 OA
ATOM     18  H   UNL     1      35.988 -23.234  -9.620  0.00  0.00    +0.211 HD
ENDBRANCH  16  17
ENDBRANCH  15  16
ENDBRANCH   2  13
TORSDOF 3
ENDMDL
MODEL 8
REMARK VINA RESULT:      -6.7      3.009      5.394
REMARK  Name = 454194
REMARK  3 active torsions:
REMARK  status: ('A' for Active; 'I' for Inactive)
REMARK    1  A    between atoms: N_2  and  C_13
REMARK    2  A    between atoms: C_15  and  C_16
REMARK    3  A    between atoms: C_16  and  O_17
REMARK                            x       y       z     vdW  Elec       q    Type
REMARK                         _______ _______ _______ _____ _____    ______ ____
ROOT
ATOM      1  O   UNL     1      35.276 -15.570 -23.945  0.00  0.00    -0.193 OA
ATOM      2  N   UNL     1      34.241 -16.381 -22.051  0.00  0.00    -0.178 N 
ATOM      3  N   UNL     1      33.611 -14.306 -23.063  0.00  0.00    -0.306 NA
ATOM      4  N   UNL     1      31.905 -13.013 -22.153  0.00  0.00    -0.332 N 
ATOM      5  C   UNL     1      33.284 -16.202 -21.079  0.00  0.00    +0.083 C 
ATOM      6  C   UNL     1      34.423 -15.427 -23.068  0.00  0.00    +0.276 C 
ATOM      7  C   UNL     1      32.494 -15.130 -21.056  0.00  0.00    +0.065 C 
ATOM      8  C   UNL     1      32.701 -14.135 -22.140  0.00  0.00    +0.193 C 
ATOM      9  H   UNL     1      32.019 -12.337 -22.859  0.00  0.00    +0.145 HD
ATOM     10  H   UNL     1      31.221 -12.888 -21.457  0.00  0.00    +0.145 HD
ENDROOT
BRANCH   2  13
ATOM     11  O   UNL     1      34.881 -18.196 -20.723  0.00  0.00    -0.308 OA
ATOM     12  O   UNL     1      35.094 -19.834 -22.395  0.00  0.00    -0.324 OA
ATOM     13  C   UNL     1      35.042 -17.564 -21.992  0.00  0.00    +0.239 C 
ATOM     14  C   UNL     1      34.607 -18.623 -22.972  0.00  0.00    +0.197 C 
ATOM     15  C   UNL     1      35.106 -19.587 -20.983  0.00  0.00    +0.267 C 
BRANCH  15  16
ATOM     16  C   UNL     1      34.024 -20.406 -20.306  0.00  0.00    +0.199 C 
BRANCH  16  17
ATOM     17  O   UNL     1      32.776 -19.754 -20.481  0.00  0.00    -0.377 OA
ATOM     18  H   UNL     1      32.897 -18.795 -20.396  0.00  0.00    +0.211 HD
ENDBRANCH  16  17
ENDBRANCH  15  16
ENDBRANCH   2  13
TORSDOF 3
ENDMDL
MODEL 9
REMARK VINA RESULT:      -6.7      6.807     10.032
REMARK  Name = 454194
REMARK  3 active torsions:
REMARK  status: ('A' for Active; 'I' for Inactive)
REMARK    1  A    between atoms: N_2  and  C_13
REMARK    2  A    between atoms: C_15  and  C_16
REMARK    3  A    between atoms: C_16  and  O_17
REMARK                            x       y       z     vdW  Elec       q    Type
REMARK                         _______ _______ _______ _____ _____    ______ ____
ROOT
ATOM      1  O   UNL     1      33.841 -24.028 -16.718  0.00  0.00    -0.193 OA
ATOM      2  N   UNL     1      35.739 -23.516 -15.514  0.00  0.00    -0.178 N 
ATOM      3  N   UNL     1      35.278 -22.537 -17.648  0.00  0.00    -0.306 NA
ATOM      4  N   UNL     1      36.754 -21.012 -18.597  0.00  0.00    -0.332 N 
ATOM      5  C   UNL     1      36.913 -22.803 -15.436  0.00  0.00    +0.083 C 
ATOM      6  C   UNL     1      34.894 -23.396 -16.631  0.00  0.00    +0.276 C 
ATOM      7  C   UNL     1      37.299 -21.973 -16.404  0.00  0.00    +0.065 C 
ATOM      8  C   UNL     1      36.392 -21.858 -17.575  0.00  0.00    +0.193 C 
ATOM      9  H   UNL     1      36.173 -20.915 -19.385  0.00  0.00    +0.145 HD
ATOM     10  H   UNL     1      37.594 -20.502 -18.539  0.00  0.00    +0.145 HD
ENDROOT
BRANCH   2  13
ATOM     11  O   UNL     1      36.500 -24.444 -13.506  0.00  0.00    -0.308 OA
ATOM     12  O   UNL     1      34.471 -24.502 -12.322  0.00  0.00    -0.324 OA
ATOM     13  C   UNL     1      35.409 -24.382 -14.424  0.00  0.00    +0.239 C 
ATOM     14  C   UNL     1      34.269 -23.869 -13.584  0.00  0.00    +0.197 C 
ATOM     15  C   UNL     1      35.887 -24.707 -12.238  0.00  0.00    +0.267 C 
BRANCH  15  16
ATOM     16  C   UNL     1      36.481 -23.783 -11.192  0.00  0.00    +0.199 C 
BRANCH  16  17
ATOM     17  O   UNL     1      36.113 -24.249  -9.904  0.00  0.00    -0.377 OA
ATOM     18  H   UNL     1      36.097 -23.503  -9.283  0.00  0.00    +0.211 HD
ENDBRANCH  16  17
ENDBRANCH  15  16
ENDBRANCH   2  13
TORSDOF 3
ENDMDL
