MODEL 1
REMARK VINA RESULT:     -11.1      0.000      0.000
REMARK  Name = 42627755
REMARK  2 active torsions:
REMARK  status: ('A' for Active; 'I' for Inactive)
REMARK    1  A    between atoms: N_5  and  C_20
REMARK    2  A    between atoms: C_7  and  C_28
REMARK                            x       y       z     vdW  Elec       q    Type
REMARK                         _______ _______ _______ _____ _____    ______ ____
ROOT
ATOM      1  N   UNL     1      35.610 -22.017 -18.514  0.00  0.00    -0.239 N 
ATOM      2  N   UNL     1      34.730 -22.529 -17.638  0.00  0.00    -0.166 NA
ATOM      3  N   UNL     1      32.291 -22.633 -17.697  0.00  0.00    -0.271 N 
ATOM      4  N   UNL     1      32.847 -23.694 -15.639  0.00  0.00    -0.322 NA
ATOM      5  N   UNL     1      33.348 -24.745 -13.607  0.00  0.00    -0.247 N 
ATOM      6  N   UNL     1      31.097 -24.545 -14.218  0.00  0.00    -0.170 NA
ATOM      7  C   UNL     1      35.030 -21.462 -19.618  0.00  0.00    +0.045 C 
ATOM      8  C   UNL     1      33.676 -21.626 -19.451  0.00  0.00    +0.048 C 
ATOM      9  C   UNL     1      33.549 -22.287 -18.216  0.00  0.00    +0.152 C 
ATOM     10  C   UNL     1      31.896 -23.287 -16.505  0.00  0.00    +0.199 C 
ATOM     11  C   UNL     1      30.544 -23.471 -16.299  0.00  0.00    +0.070 C 
ATOM     12  C   UNL     1      32.384 -24.307 -14.533  0.00  0.00    +0.150 C 
ATOM     13  C   UNL     1      30.199 -24.112 -15.128  0.00  0.00    +0.116 C 
ATOM     14  H   UNL     1      36.584 -22.039 -18.374  0.00  0.00    +0.174 HD
ATOM     15  H   UNL     1      31.539 -22.370 -18.274  0.00  0.00    +0.156 HD
ATOM     16  H   UNL     1      32.965 -25.187 -12.815  0.00  0.00    +0.165 HD
ENDROOT
BRANCH   5  20
ATOM     17  N   UNL     1      37.881 -25.765 -15.291  0.00  0.00    -0.315 N 
ATOM     18  N   UNL     1      38.909 -24.586 -13.711  0.00  0.00    -0.315 N 
ATOM     19  C   UNL     1      36.880 -25.247 -14.512  0.00  0.00    +0.060 C 
ATOM     20  C   UNL     1      34.761 -24.675 -13.593  0.00  0.00    +0.059 C 
ATOM     21  C   UNL     1      37.546 -24.515 -13.533  0.00  0.00    +0.059 C 
ATOM     22  C   UNL     1      35.490 -25.352 -14.576  0.00  0.00    +0.031 C 
ATOM     23  C   UNL     1      35.400 -23.932 -12.599  0.00  0.00    +0.017 C 
ATOM     24  C   UNL     1      36.797 -23.841 -12.553  0.00  0.00    +0.017 C 
ATOM     25  C   UNL     1      39.074 -25.343 -14.772  0.00  0.00    +0.182 C 
ATOM     26  H   UNL     1      37.763 -26.339 -16.082  0.00  0.00    +0.148 HD
ATOM     27  H   UNL     1      39.608 -24.162 -13.163  0.00  0.00    +0.148 HD
ENDBRANCH   5  20
BRANCH   7  28
ATOM     28  C   UNL     1      35.745 -20.801 -20.788  0.00  0.00    +0.037 C 
ATOM     29  C   UNL     1      36.776 -19.750 -20.502  0.00  0.00    +0.006 C 
ATOM     30  C   UNL     1      35.452 -19.360 -21.090  0.00  0.00    +0.006 C 
ENDBRANCH   7  28
TORSDOF 2
ENDMDL
MODEL 2
REMARK VINA RESULT:     -11.1      2.070      7.226
REMARK  Name = 42627755
REMARK  2 active torsions:
REMARK  status: ('A' for Active; 'I' for Inactive)
REMARK    1  A    between atoms: N_5  and  C_20
REMARK    2  A    between atoms: C_7  and  C_28
REMARK                            x       y       z     vdW  Elec       q    Type
REMARK                         _______ _______ _______ _____ _____    ______ ____
ROOT
ATOM      1  N   UNL     1      30.980 -22.783 -16.969  0.00  0.00    -0.239 N 
ATOM      2  N   UNL     1      32.312 -22.811 -16.793  0.00  0.00    -0.166 NA
ATOM      3  N   UNL     1      33.670 -23.817 -15.032  0.00  0.00    -0.271 N 
ATOM      4  N   UNL     1      35.278 -22.826 -16.482  0.00  0.00    -0.322 NA
ATOM      5  N   UNL     1      36.893 -21.866 -17.880  0.00  0.00    -0.247 N 
ATOM      6  N   UNL     1      37.626 -23.003 -15.968  0.00  0.00    -0.170 NA
ATOM      7  C   UNL     1      30.281 -23.428 -15.991  0.00  0.00    +0.045 C 
ATOM      8  C   UNL     1      31.222 -23.912 -15.116  0.00  0.00    +0.048 C 
ATOM      9  C   UNL     1      32.454 -23.502 -15.658  0.00  0.00    +0.152 C 
ATOM     10  C   UNL     1      35.018 -23.532 -15.363  0.00  0.00    +0.199 C 
ATOM     11  C   UNL     1      35.994 -24.002 -14.509  0.00  0.00    +0.070 C 
ATOM     12  C   UNL     1      36.585 -22.601 -16.721  0.00  0.00    +0.150 C 
ATOM     13  C   UNL     1      37.293 -23.704 -14.864  0.00  0.00    +0.116 C 
ATOM     14  H   UNL     1      30.548 -22.338 -17.734  0.00  0.00    +0.174 HD
ATOM     15  H   UNL     1      33.566 -24.336 -14.203  0.00  0.00    +0.156 HD
ATOM     16  H   UNL     1      37.858 -21.726 -18.014  0.00  0.00    +0.165 HD
ENDROOT
BRANCH   5  20
ATOM     17  N   UNL     1      36.001 -18.861 -21.700  0.00  0.00    -0.315 N 
ATOM     18  N   UNL     1      33.880 -19.492 -21.909  0.00  0.00    -0.315 N 
ATOM     19  C   UNL     1      35.800 -19.797 -20.720  0.00  0.00    +0.060 C 
ATOM     20  C   UNL     1      36.088 -21.291 -18.890  0.00  0.00    +0.059 C 
ATOM     21  C   UNL     1      34.469 -20.176 -20.871  0.00  0.00    +0.059 C 
ATOM     22  C   UNL     1      36.642 -20.330 -19.743  0.00  0.00    +0.031 C 
ATOM     23  C   UNL     1      34.757 -21.692 -19.017  0.00  0.00    +0.017 C 
ATOM     24  C   UNL     1      33.930 -21.143 -20.005  0.00  0.00    +0.017 C 
ATOM     25  C   UNL     1      34.826 -18.713 -22.384  0.00  0.00    +0.182 C 
ATOM     26  H   UNL     1      36.841 -18.380 -21.880  0.00  0.00    +0.148 HD
ATOM     27  H   UNL     1      32.952 -19.570 -22.228  0.00  0.00    +0.148 HD
ENDBRANCH   5  20
BRANCH   7  28
ATOM     28  C   UNL     1      28.768 -23.575 -15.899  0.00  0.00    +0.037 C 
ATOM     29  C   UNL     1      27.925 -23.084 -17.038  0.00  0.00    +0.006 C 
ATOM     30  C   UNL     1      27.933 -22.338 -15.735  0.00  0.00    +0.006 C 
ENDBRANCH   7  28
TORSDOF 2
ENDMDL
MODEL 3
REMARK VINA RESULT:     -10.8      1.596      5.184
REMARK  Name = 42627755
REMARK  2 active torsions:
REMARK  status: ('A' for Active; 'I' for Inactive)
REMARK    1  A    between atoms: N_5  and  C_20
REMARK    2  A    between atoms: C_7  and  C_28
REMARK                            x       y       z     vdW  Elec       q    Type
REMARK                         _______ _______ _______ _____ _____    ______ ____
ROOT
ATOM      1  N   UNL     1      34.100 -21.775 -18.894  0.00  0.00    -0.239 N 
ATOM      2  N   UNL     1      34.457 -22.337 -17.727  0.00  0.00    -0.166 NA
ATOM      3  N   UNL     1      36.647 -22.588 -16.678  0.00  0.00    -0.271 N 
ATOM      4  N   UNL     1      35.160 -23.603 -15.120  0.00  0.00    -0.322 NA
ATOM      5  N   UNL     1      33.734 -24.612 -13.559  0.00  0.00    -0.247 N 
ATOM      6  N   UNL     1      36.026 -24.551 -13.080  0.00  0.00    -0.170 NA
ATOM      7  C   UNL     1      35.147 -21.264 -19.603  0.00  0.00    +0.045 C 
ATOM      8  C   UNL     1      36.266 -21.508 -18.846  0.00  0.00    +0.048 C 
ATOM      9  C   UNL     1      35.782 -22.171 -17.703  0.00  0.00    +0.152 C 
ATOM     10  C   UNL     1      36.422 -23.260 -15.452  0.00  0.00    +0.199 C 
ATOM     11  C   UNL     1      37.521 -23.523 -14.661  0.00  0.00    +0.070 C 
ATOM     12  C   UNL     1      35.036 -24.237 -13.937  0.00  0.00    +0.150 C 
ATOM     13  C   UNL     1      37.261 -24.179 -13.475  0.00  0.00    +0.116 C 
ATOM     14  H   UNL     1      33.167 -21.735 -19.209  0.00  0.00    +0.174 HD
ATOM     15  H   UNL     1      37.592 -22.372 -16.845  0.00  0.00    +0.156 HD
ATOM     16  H   UNL     1      33.692 -25.071 -12.690  0.00  0.00    +0.165 HD
ENDROOT
BRANCH   5  20
ATOM     17  N   UNL     1      30.554 -22.545 -16.727  0.00  0.00    -0.315 N 
ATOM     18  N   UNL     1      28.857 -23.849 -16.126  0.00  0.00    -0.315 N 
ATOM     19  C   UNL     1      31.054 -23.370 -15.753  0.00  0.00    +0.060 C 
ATOM     20  C   UNL     1      32.475 -24.456 -14.184  0.00  0.00    +0.059 C 
ATOM     21  C   UNL     1      29.977 -24.175 -15.394  0.00  0.00    +0.059 C 
ATOM     22  C   UNL     1      32.318 -23.478 -15.172  0.00  0.00    +0.031 C 
ATOM     23  C   UNL     1      31.414 -25.278 -13.802  0.00  0.00    +0.017 C 
ATOM     24  C   UNL     1      30.153 -25.151 -14.399  0.00  0.00    +0.017 C 
ATOM     25  C   UNL     1      29.238 -22.870 -16.914  0.00  0.00    +0.182 C 
ATOM     26  H   UNL     1      31.052 -21.844 -17.206  0.00  0.00    +0.148 HD
ATOM     27  H   UNL     1      27.965 -24.262 -16.071  0.00  0.00    +0.148 HD
ENDBRANCH   5  20
BRANCH   7  28
ATOM     28  C   UNL     1      35.078 -20.568 -20.955  0.00  0.00    +0.037 C 
ATOM     29  C   UNL     1      35.728 -19.225 -21.109  0.00  0.00    +0.006 C 
ATOM     30  C   UNL     1      34.232 -19.335 -21.089  0.00  0.00    +0.006 C 
ENDBRANCH   7  28
TORSDOF 2
ENDMDL
MODEL 4
REMARK VINA RESULT:     -10.6      1.491      6.404
REMARK  Name = 42627755
REMARK  2 active torsions:
REMARK  status: ('A' for Active; 'I' for Inactive)
REMARK    1  A    between atoms: N_5  and  C_20
REMARK    2  A    between atoms: C_7  and  C_28
REMARK                            x       y       z     vdW  Elec       q    Type
REMARK                         _______ _______ _______ _____ _____    ______ ____
ROOT
ATOM      1  N   UNL     1      37.376 -23.928 -15.521  0.00  0.00    -0.239 N 
ATOM      2  N   UNL     1      36.045 -23.830 -15.670  0.00  0.00    -0.166 NA
ATOM      3  N   UNL     1      34.216 -24.712 -14.315  0.00  0.00    -0.271 N 
ATOM      4  N   UNL     1      33.102 -23.561 -16.077  0.00  0.00    -0.322 NA
ATOM      5  N   UNL     1      31.966 -22.441 -17.792  0.00  0.00    -0.247 N 
ATOM      6  N   UNL     1      30.694 -23.514 -16.145  0.00  0.00    -0.170 NA
ATOM      7  C   UNL     1      37.757 -24.644 -14.425  0.00  0.00    +0.045 C 
ATOM      8  C   UNL     1      36.593 -25.042 -13.814  0.00  0.00    +0.048 C 
ATOM      9  C   UNL     1      35.571 -24.513 -14.624  0.00  0.00    +0.152 C 
ATOM     10  C   UNL     1      33.020 -24.297 -14.950  0.00  0.00    +0.199 C 
ATOM     11  C   UNL     1      31.827 -24.675 -14.368  0.00  0.00    +0.070 C 
ATOM     12  C   UNL     1      31.918 -23.209 -16.615  0.00  0.00    +0.150 C 
ATOM     13  C   UNL     1      30.685 -24.253 -15.015  0.00  0.00    +0.116 C 
ATOM     14  H   UNL     1      38.019 -23.519 -16.146  0.00  0.00    +0.174 HD
ATOM     15  H   UNL     1      34.069 -25.243 -13.500  0.00  0.00    +0.156 HD
ATOM     16  H   UNL     1      31.079 -22.207 -18.148  0.00  0.00    +0.165 HD
ENDROOT
BRANCH   5  20
ATOM     17  N   UNL     1      34.023 -19.512 -21.199  0.00  0.00    -0.315 N 
ATOM     18  N   UNL     1      36.065 -20.342 -20.914  0.00  0.00    -0.315 N 
ATOM     19  C   UNL     1      33.896 -20.469 -20.227  0.00  0.00    +0.060 C 
ATOM     20  C   UNL     1      33.040 -21.939 -18.562  0.00  0.00    +0.059 C 
ATOM     21  C   UNL     1      35.183 -20.973 -20.066  0.00  0.00    +0.059 C 
ATOM     22  C   UNL     1      32.798 -20.925 -19.495  0.00  0.00    +0.031 C 
ATOM     23  C   UNL     1      34.320 -22.465 -18.379  0.00  0.00    +0.017 C 
ATOM     24  C   UNL     1      35.408 -21.992 -19.124  0.00  0.00    +0.017 C 
ATOM     25  C   UNL     1      35.336 -19.473 -21.578  0.00  0.00    +0.182 C 
ATOM     26  H   UNL     1      33.299 -18.951 -21.560  0.00  0.00    +0.148 HD
ATOM     27  H   UNL     1      37.031 -20.506 -21.003  0.00  0.00    +0.148 HD
ENDBRANCH   5  20
BRANCH   7  28
ATOM     28  C   UNL     1      39.183 -24.938 -13.978  0.00  0.00    +0.037 C 
ATOM     29  C   UNL     1      40.253 -25.068 -15.021  0.00  0.00    +0.006 C 
ATOM     30  C   UNL     1      39.772 -26.284 -14.286  0.00  0.00    +0.006 C 
ENDBRANCH   7  28
TORSDOF 2
ENDMDL
MODEL 5
REMARK VINA RESULT:      -9.7      1.631      5.411
REMARK  Name = 42627755
REMARK  2 active torsions:
REMARK  status: ('A' for Active; 'I' for Inactive)
REMARK    1  A    between atoms: N_5  and  C_20
REMARK    2  A    between atoms: C_7  and  C_28
REMARK                            x       y       z     vdW  Elec       q    Type
REMARK                         _______ _______ _______ _____ _____    ______ ____
ROOT
ATOM      1  N   UNL     1      31.737 -23.877 -15.305  0.00  0.00    -0.239 N 
ATOM      2  N   UNL     1      32.791 -23.428 -16.006  0.00  0.00    -0.166 NA
ATOM      3  N   UNL     1      32.914 -22.350 -18.193  0.00  0.00    -0.271 N 
ATOM      4  N   UNL     1      35.188 -22.459 -17.493  0.00  0.00    -0.322 NA
ATOM      5  N   UNL     1      37.437 -22.544 -16.846  0.00  0.00    -0.247 N 
ATOM      6  N   UNL     1      36.923 -21.587 -18.920  0.00  0.00    -0.170 NA
ATOM      7  C   UNL     1      30.539 -23.695 -15.932  0.00  0.00    +0.045 C 
ATOM      8  C   UNL     1      30.832 -23.083 -17.127  0.00  0.00    +0.048 C 
ATOM      9  C   UNL     1      32.232 -22.945 -17.119  0.00  0.00    +0.152 C 
ATOM     10  C   UNL     1      34.287 -22.095 -18.430  0.00  0.00    +0.199 C 
ATOM     11  C   UNL     1      34.623 -21.482 -19.619  0.00  0.00    +0.070 C 
ATOM     12  C   UNL     1      36.470 -22.179 -17.799  0.00  0.00    +0.150 C 
ATOM     13  C   UNL     1      35.969 -21.250 -19.813  0.00  0.00    +0.116 C 
ATOM     14  H   UNL     1      31.820 -24.298 -14.418  0.00  0.00    +0.174 HD
ATOM     15  H   UNL     1      32.324 -22.055 -18.923  0.00  0.00    +0.156 HD
ATOM     16  H   UNL     1      38.358 -22.321 -17.110  0.00  0.00    +0.165 HD
ENDROOT
BRANCH   5  20
ATOM     17  N   UNL     1      35.403 -23.367 -12.417  0.00  0.00    -0.315 N 
ATOM     18  N   UNL     1      36.908 -24.893 -11.830  0.00  0.00    -0.315 N 
ATOM     19  C   UNL     1      36.260 -23.463 -13.482  0.00  0.00    +0.060 C 
ATOM     20  C   UNL     1      37.343 -23.170 -15.580  0.00  0.00    +0.059 C 
ATOM     21  C   UNL     1      37.190 -24.422 -13.092  0.00  0.00    +0.059 C 
ATOM     22  C   UNL     1      36.302 -22.814 -14.716  0.00  0.00    +0.031 C 
ATOM     23  C   UNL     1      38.291 -24.128 -15.217  0.00  0.00    +0.017 C 
ATOM     24  C   UNL     1      38.230 -24.767 -13.973  0.00  0.00    +0.017 C 
ATOM     25  C   UNL     1      35.831 -24.240 -11.456  0.00  0.00    +0.182 C 
ATOM     26  H   UNL     1      34.619 -22.775 -12.355  0.00  0.00    +0.148 HD
ATOM     27  H   UNL     1      37.404 -25.573 -11.319  0.00  0.00    +0.148 HD
ENDBRANCH   5  20
BRANCH   7  28
ATOM     28  C   UNL     1      29.166 -24.091 -15.407  0.00  0.00    +0.037 C 
ATOM     29  C   UNL     1      28.047 -24.281 -16.388  0.00  0.00    +0.006 C 
ATOM     30  C   UNL     1      28.051 -23.089 -15.477  0.00  0.00    +0.006 C 
ENDBRANCH   7  28
TORSDOF 2
ENDMDL
MODEL 6
REMARK VINA RESULT:      -9.6     12.702     16.382
REMARK  Name = 42627755
REMARK  2 active torsions:
REMARK  status: ('A' for Active; 'I' for Inactive)
REMARK    1  A    between atoms: N_5  and  C_20
REMARK    2  A    between atoms: C_7  and  C_28
REMARK                            x       y       z     vdW  Elec       q    Type
REMARK                         _______ _______ _______ _____ _____    ______ ____
ROOT
ATOM      1  N   UNL     1      33.554 -12.290 -24.985  0.00  0.00    -0.239 N 
ATOM      2  N   UNL     1      33.161 -11.620 -23.889  0.00  0.00    -0.166 NA
ATOM      3  N   UNL     1      32.199 -12.414 -21.790  0.00  0.00    -0.271 N 
ATOM      4  N   UNL     1      32.316 -10.054 -21.495  0.00  0.00    -0.322 NA
ATOM      5  N   UNL     1      32.412  -7.738 -21.163  0.00  0.00    -0.247 N 
ATOM      6  N   UNL     1      31.552  -9.064 -19.435  0.00  0.00    -0.170 NA
ATOM      7  C   UNL     1      33.379 -13.640 -24.899  0.00  0.00    +0.045 C 
ATOM      8  C   UNL     1      32.835 -13.868 -23.658  0.00  0.00    +0.048 C 
ATOM      9  C   UNL     1      32.722 -12.590 -23.082  0.00  0.00    +0.152 C 
ATOM     10  C   UNL     1      31.982 -11.262 -20.996  0.00  0.00    +0.199 C 
ATOM     11  C   UNL     1      31.437 -11.448 -19.742  0.00  0.00    +0.070 C 
ATOM     12  C   UNL     1      32.077  -9.013 -20.674  0.00  0.00    +0.150 C 
ATOM     13  C   UNL     1      31.241 -10.303 -18.999  0.00  0.00    +0.116 C 
ATOM     14  H   UNL     1      33.934 -11.847 -25.779  0.00  0.00    +0.174 HD
ATOM     15  H   UNL     1      31.931 -13.253 -21.353  0.00  0.00    +0.156 HD
ATOM     16  H   UNL     1      32.222  -7.009 -20.529  0.00  0.00    +0.165 HD
ENDROOT
BRANCH   5  20
ATOM     17  N   UNL     1      32.411  -5.229 -25.420  0.00  0.00    -0.315 N 
ATOM     18  N   UNL     1      34.444  -5.909 -26.008  0.00  0.00    -0.315 N 
ATOM     19  C   UNL     1      32.834  -6.042 -24.401  0.00  0.00    +0.060 C 
ATOM     20  C   UNL     1      32.971  -7.299 -22.385  0.00  0.00    +0.059 C 
ATOM     21  C   UNL     1      34.104  -6.455 -24.792  0.00  0.00    +0.059 C 
ATOM     22  C   UNL     1      32.232  -6.442 -23.208  0.00  0.00    +0.031 C 
ATOM     23  C   UNL     1      34.248  -7.730 -22.749  0.00  0.00    +0.017 C 
ATOM     24  C   UNL     1      34.833  -7.316 -23.953  0.00  0.00    +0.017 C 
ATOM     25  C   UNL     1      33.407  -5.181 -26.356  0.00  0.00    +0.182 C 
ATOM     26  H   UNL     1      31.546  -4.762 -25.470  0.00  0.00    +0.148 HD
ATOM     27  H   UNL     1      35.282  -6.037 -26.509  0.00  0.00    +0.148 HD
ENDBRANCH   5  20
BRANCH   7  28
ATOM     28  C   UNL     1      33.721 -14.673 -25.964  0.00  0.00    +0.037 C 
ATOM     29  C   UNL     1      32.685 -15.691 -26.339  0.00  0.00    +0.006 C 
ATOM     30  C   UNL     1      33.892 -16.105 -25.549  0.00  0.00    +0.006 C 
ENDBRANCH   7  28
TORSDOF 2
ENDMDL
MODEL 7
REMARK VINA RESULT:      -9.5      1.843      6.443
REMARK  Name = 42627755
REMARK  2 active torsions:
REMARK  status: ('A' for Active; 'I' for Inactive)
REMARK    1  A    between atoms: N_5  and  C_20
REMARK    2  A    between atoms: C_7  and  C_28
REMARK                            x       y       z     vdW  Elec       q    Type
REMARK                         _______ _______ _______ _____ _____    ______ ____
ROOT
ATOM      1  N   UNL     1      30.988 -23.546 -15.982  0.00  0.00    -0.239 N 
ATOM      2  N   UNL     1      32.230 -23.595 -15.473  0.00  0.00    -0.166 NA
ATOM      3  N   UNL     1      33.053 -24.469 -13.347  0.00  0.00    -0.271 N 
ATOM      4  N   UNL     1      35.020 -23.662 -14.420  0.00  0.00    -0.322 NA
ATOM      5  N   UNL     1      36.980 -22.882 -15.437  0.00  0.00    -0.247 N 
ATOM      6  N   UNL     1      37.152 -23.856 -13.314  0.00  0.00    -0.170 NA
ATOM      7  C   UNL     1      30.035 -24.077 -15.164  0.00  0.00    +0.045 C 
ATOM      8  C   UNL     1      30.702 -24.503 -14.041  0.00  0.00    +0.048 C 
ATOM      9  C   UNL     1      32.049 -24.180 -14.286  0.00  0.00    +0.152 C 
ATOM     10  C   UNL     1      34.452 -24.254 -13.348  0.00  0.00    +0.199 C 
ATOM     11  C   UNL     1      35.160 -24.668 -12.238  0.00  0.00    +0.070 C 
ATOM     12  C   UNL     1      36.354 -23.496 -14.337  0.00  0.00    +0.150 C 
ATOM     13  C   UNL     1      36.520 -24.441 -12.276  0.00  0.00    +0.116 C 
ATOM     14  H   UNL     1      30.784 -23.163 -16.866  0.00  0.00    +0.174 HD
ATOM     15  H   UNL     1      32.719 -24.906 -12.531  0.00  0.00    +0.156 HD
ATOM     16  H   UNL     1      37.953 -22.782 -15.334  0.00  0.00    +0.165 HD
ENDROOT
BRANCH   5  20
ATOM     17  N   UNL     1      33.555 -22.286 -18.949  0.00  0.00    -0.315 N 
ATOM     18  N   UNL     1      34.852 -21.008 -20.224  0.00  0.00    -0.315 N 
ATOM     19  C   UNL     1      34.742 -22.180 -18.273  0.00  0.00    +0.060 C 
ATOM     20  C   UNL     1      36.482 -22.382 -16.663  0.00  0.00    +0.059 C 
ATOM     21  C   UNL     1      35.535 -21.378 -19.088  0.00  0.00    +0.059 C 
ATOM     22  C   UNL     1      35.178 -22.702 -17.054  0.00  0.00    +0.031 C 
ATOM     23  C   UNL     1      37.302 -21.580 -17.459  0.00  0.00    +0.017 C 
ATOM     24  C   UNL     1      36.843 -21.067 -18.679  0.00  0.00    +0.017 C 
ATOM     25  C   UNL     1      33.669 -21.569 -20.109  0.00  0.00    +0.182 C 
ATOM     26  H   UNL     1      32.761 -22.788 -18.654  0.00  0.00    +0.148 HD
ATOM     27  H   UNL     1      35.178 -20.445 -20.963  0.00  0.00    +0.148 HD
ENDBRANCH   5  20
BRANCH   7  28
ATOM     28  C   UNL     1      28.542 -24.173 -15.445  0.00  0.00    +0.037 C 
ATOM     29  C   UNL     1      28.054 -23.926 -16.842  0.00  0.00    +0.006 C 
ATOM     30  C   UNL     1      27.787 -22.916 -15.766  0.00  0.00    +0.006 C 
ENDBRANCH   7  28
TORSDOF 2
ENDMDL
MODEL 8
REMARK VINA RESULT:      -9.4      7.225     11.493
REMARK  Name = 42627755
REMARK  2 active torsions:
REMARK  status: ('A' for Active; 'I' for Inactive)
REMARK    1  A    between atoms: N_5  and  C_20
REMARK    2  A    between atoms: C_7  and  C_28
REMARK                            x       y       z     vdW  Elec       q    Type
REMARK                         _______ _______ _______ _____ _____    ______ ____
ROOT
ATOM      1  N   UNL     1      32.613 -13.491 -20.433  0.00  0.00    -0.239 N 
ATOM      2  N   UNL     1      32.852 -13.939 -21.677  0.00  0.00    -0.166 NA
ATOM      3  N   UNL     1      32.352 -12.953 -23.853  0.00  0.00    -0.271 N 
ATOM      4  N   UNL     1      33.423 -15.008 -24.402  0.00  0.00    -0.322 NA
ATOM      5  N   UNL     1      34.470 -17.019 -24.987  0.00  0.00    -0.247 N 
ATOM      6  N   UNL     1      33.749 -15.609 -26.713  0.00  0.00    -0.170 NA
ATOM      7  C   UNL     1      31.984 -12.282 -20.393  0.00  0.00    +0.045 C 
ATOM      8  C   UNL     1      31.799 -11.913 -21.704  0.00  0.00    +0.048 C 
ATOM      9  C   UNL     1      32.352 -12.970 -22.449  0.00  0.00    +0.152 C 
ATOM     10  C   UNL     1      32.833 -13.869 -24.821  0.00  0.00    +0.199 C 
ATOM     11  C   UNL     1      32.668 -13.535 -26.149  0.00  0.00    +0.070 C 
ATOM     12  C   UNL     1      33.851 -15.821 -25.387  0.00  0.00    +0.150 C 
ATOM     13  C   UNL     1      33.149 -14.452 -27.060  0.00  0.00    +0.116 C 
ATOM     14  H   UNL     1      32.869 -13.990 -19.623  0.00  0.00    +0.174 HD
ATOM     15  H   UNL     1      31.938 -12.148 -24.240  0.00  0.00    +0.156 HD
ATOM     16  H   UNL     1      34.767 -17.581 -25.739  0.00  0.00    +0.165 HD
ENDROOT
BRANCH   5  20
ATOM     17  N   UNL     1      34.977 -20.714 -21.746  0.00  0.00    -0.315 N 
ATOM     18  N   UNL     1      35.536 -19.376 -20.062  0.00  0.00    -0.315 N 
ATOM     19  C   UNL     1      34.957 -19.446 -22.265  0.00  0.00    +0.060 C 
ATOM     20  C   UNL     1      34.751 -17.572 -23.717  0.00  0.00    +0.059 C 
ATOM     21  C   UNL     1      35.310 -18.629 -21.195  0.00  0.00    +0.059 C 
ATOM     22  C   UNL     1      34.670 -18.958 -23.540  0.00  0.00    +0.031 C 
ATOM     23  C   UNL     1      35.102 -16.726 -22.663  0.00  0.00    +0.017 C 
ATOM     24  C   UNL     1      35.386 -17.239 -21.391  0.00  0.00    +0.017 C 
ATOM     25  C   UNL     1      35.327 -20.621 -20.428  0.00  0.00    +0.182 C 
ATOM     26  H   UNL     1      34.775 -21.545 -22.235  0.00  0.00    +0.148 HD
ATOM     27  H   UNL     1      35.798 -19.049 -19.171  0.00  0.00    +0.148 HD
ENDBRANCH   5  20
BRANCH   7  28
ATOM     28  C   UNL     1      31.574 -11.508 -19.148  0.00  0.00    +0.037 C 
ATOM     29  C   UNL     1      30.563 -10.408 -19.282  0.00  0.00    +0.006 C 
ATOM     30  C   UNL     1      32.002 -10.075 -19.016  0.00  0.00    +0.006 C 
ENDBRANCH   7  28
TORSDOF 2
ENDMDL
MODEL 9
REMARK VINA RESULT:      -8.7     12.923     15.910
REMARK  Name = 42627755
REMARK  2 active torsions:
REMARK  status: ('A' for Active; 'I' for Inactive)
REMARK    1  A    between atoms: N_5  and  C_20
REMARK    2  A    between atoms: C_7  and  C_28
REMARK                            x       y       z     vdW  Elec       q    Type
REMARK                         _______ _______ _______ _____ _____    ______ ____
ROOT
ATOM      1  N   UNL     1      32.412  -7.210 -24.349  0.00  0.00    -0.239 N 
ATOM      2  N   UNL     1      32.296  -8.184 -23.432  0.00  0.00    -0.166 NA
ATOM      3  N   UNL     1      31.679  -8.090 -21.071  0.00  0.00    -0.271 N 
ATOM      4  N   UNL     1      32.060 -10.408 -21.459  0.00  0.00    -0.322 NA
ATOM      5  N   UNL     1      32.425 -12.697 -21.795  0.00  0.00    -0.247 N 
ATOM      6  N   UNL     1      31.790 -11.985 -19.657  0.00  0.00    -0.170 NA
ATOM      7  C   UNL     1      32.138  -5.963 -23.868  0.00  0.00    +0.045 C 
ATOM      8  C   UNL     1      31.819  -6.135 -22.543  0.00  0.00    +0.048 C 
ATOM      9  C   UNL     1      31.934  -7.521 -22.329  0.00  0.00    +0.152 C 
ATOM     10  C   UNL     1      31.721  -9.425 -20.600  0.00  0.00    +0.199 C 
ATOM     11  C   UNL     1      31.406  -9.641 -19.274  0.00  0.00    +0.070 C 
ATOM     12  C   UNL     1      32.075 -11.647 -20.928  0.00  0.00    +0.150 C 
ATOM     13  C   UNL     1      31.459 -10.953 -18.853  0.00  0.00    +0.116 C 
ATOM     14  H   UNL     1      32.671  -7.380 -25.284  0.00  0.00    +0.174 HD
ATOM     15  H   UNL     1      31.422  -7.435 -20.384  0.00  0.00    +0.156 HD
ATOM     16  H   UNL     1      32.422 -13.583 -21.365  0.00  0.00    +0.165 HD
ENDROOT
BRANCH   5  20
ATOM     17  N   UNL     1      32.627 -14.711 -26.303  0.00  0.00    -0.315 N 
ATOM     18  N   UNL     1      33.736 -13.003 -27.193  0.00  0.00    -0.315 N 
ATOM     19  C   UNL     1      32.803 -13.816 -25.280  0.00  0.00    +0.060 C 
ATOM     20  C   UNL     1      32.780 -12.729 -23.164  0.00  0.00    +0.059 C 
ATOM     21  C   UNL     1      33.498 -12.759 -25.860  0.00  0.00    +0.059 C 
ATOM     22  C   UNL     1      32.427 -13.840 -23.937  0.00  0.00    +0.031 C 
ATOM     23  C   UNL     1      33.477 -11.653 -23.717  0.00  0.00    +0.017 C 
ATOM     24  C   UNL     1      33.845 -11.651 -25.068  0.00  0.00    +0.017 C 
ATOM     25  C   UNL     1      33.202 -14.180 -27.425  0.00  0.00    +0.182 C 
ATOM     26  H   UNL     1      32.169 -15.580 -26.243  0.00  0.00    +0.148 HD
ATOM     27  H   UNL     1      34.205 -12.420 -27.834  0.00  0.00    +0.148 HD
ENDBRANCH   5  20
BRANCH   7  28
ATOM     28  C   UNL     1      32.180  -4.656 -24.648  0.00  0.00    +0.037 C 
ATOM     29  C   UNL     1      31.636  -3.415 -24.005  0.00  0.00    +0.006 C 
ATOM     30  C   UNL     1      30.888  -4.064 -25.132  0.00  0.00    +0.006 C 
ENDBRANCH   7  28
TORSDOF 2
ENDMDL
