MODEL 1
REMARK VINA RESULT:      -8.5      0.000      0.000
REMARK  Name = 5709
REMARK  3 active torsions:
REMARK  status: ('A' for Active; 'I' for Inactive)
REMARK    1  A    between atoms: C_1  and  C_9
REMARK    2  A    between atoms: C_2  and  C_13
REMARK    3  A    between atoms: C_13  and  C_16
REMARK                            x       y       z     vdW  Elec       q    Type
REMARK                         _______ _______ _______ _____ _____    ______ ____
ROOT
ATOM      1  C   UNL     1      34.265 -17.487 -21.146  0.00  0.00    -0.023 C 
ATOM      2  C   UNL     1      35.155 -20.034 -20.708  0.00  0.00    -0.023 C 
ATOM      3  C   UNL     1      33.794 -19.744 -20.606  0.00  0.00    -0.026 C 
ATOM      4  C   UNL     1      36.061 -19.025 -21.033  0.00  0.00    -0.026 C 
ATOM      5  C   UNL     1      33.340 -18.444 -20.829  0.00  0.00    -0.009 C 
ATOM      6  C   UNL     1      35.607 -17.725 -21.257  0.00  0.00    -0.009 C 
ATOM      7  C   UNL     1      32.804 -20.807 -20.258  0.00  0.00    +0.031 C 
ATOM      8  C   UNL     1      37.522 -19.311 -21.151  0.00  0.00    +0.031 C 
ENDROOT
BRANCH   1   9
ATOM      9  C   UNL     1      33.760 -16.045 -21.391  0.00  0.00    +0.019 C 
ATOM     10  C   UNL     1      32.301 -15.909 -20.905  0.00  0.00    +0.004 C 
ATOM     11  C   UNL     1      33.832 -15.713 -22.898  0.00  0.00    +0.004 C 
ATOM     12  C   UNL     1      34.589 -14.973 -20.649  0.00  0.00    +0.004 C 
ENDBRANCH   1   9
BRANCH   2  13
ATOM     13  C   UNL     1      35.642 -21.428 -20.468  0.00  0.00    +0.087 C 
BRANCH  13  16
ATOM     14  N   UNL     1      36.865 -21.064 -18.334  0.00  0.00    -0.299 N 
ATOM     15  N   UNL     1      35.100 -22.500 -18.331  0.00  0.00    -0.232 NA
ATOM     16  C   UNL     1      35.864 -21.687 -19.015  0.00  0.00    +0.113 C 
ATOM     17  C   UNL     1      36.837 -21.453 -16.956  0.00  0.00    +0.084 C 
ATOM     18  C   UNL     1      35.674 -22.455 -16.951  0.00  0.00    +0.116 C 
ATOM     19  H   UNL     1      37.512 -20.437 -18.730  0.00  0.00    +0.153 HD
ENDBRANCH  13  16
ENDBRANCH   2  13
TORSDOF 3
ENDMDL
MODEL 2
REMARK VINA RESULT:      -8.5      0.013      2.027
REMARK  Name = 5709
REMARK  3 active torsions:
REMARK  status: ('A' for Active; 'I' for Inactive)
REMARK    1  A    between atoms: C_1  and  C_9
REMARK    2  A    between atoms: C_2  and  C_13
REMARK    3  A    between atoms: C_13  and  C_16
REMARK                            x       y       z     vdW  Elec       q    Type
REMARK                         _______ _______ _______ _____ _____    ______ ____
ROOT
ATOM      1  C   UNL     1      34.262 -17.495 -21.139  0.00  0.00    -0.023 C 
ATOM      2  C   UNL     1      35.156 -20.039 -20.699  0.00  0.00    -0.023 C 
ATOM      3  C   UNL     1      36.061 -19.030 -21.025  0.00  0.00    -0.026 C 
ATOM      4  C   UNL     1      33.795 -19.751 -20.597  0.00  0.00    -0.026 C 
ATOM      5  C   UNL     1      35.605 -17.731 -21.250  0.00  0.00    -0.009 C 
ATOM      6  C   UNL     1      33.339 -18.452 -20.822  0.00  0.00    -0.009 C 
ATOM      7  C   UNL     1      37.524 -19.313 -21.142  0.00  0.00    +0.031 C 
ATOM      8  C   UNL     1      32.808 -20.815 -20.246  0.00  0.00    +0.031 C 
ENDROOT
BRANCH   1   9
ATOM      9  C   UNL     1      33.756 -16.054 -21.392  0.00  0.00    +0.019 C 
ATOM     10  C   UNL     1      32.300 -15.915 -20.899  0.00  0.00    +0.004 C 
ATOM     11  C   UNL     1      33.819 -15.733 -22.901  0.00  0.00    +0.004 C 
ATOM     12  C   UNL     1      34.589 -14.976 -20.662  0.00  0.00    +0.004 C 
ENDBRANCH   1   9
BRANCH   2  13
ATOM     13  C   UNL     1      35.646 -21.432 -20.458  0.00  0.00    +0.087 C 
BRANCH  13  16
ATOM     14  N   UNL     1      36.875 -21.065 -18.327  0.00  0.00    -0.299 N 
ATOM     15  N   UNL     1      35.109 -22.499 -18.317  0.00  0.00    -0.232 NA
ATOM     16  C   UNL     1      35.872 -21.689 -19.004  0.00  0.00    +0.113 C 
ATOM     17  C   UNL     1      36.851 -21.451 -16.948  0.00  0.00    +0.084 C 
ATOM     18  C   UNL     1      35.686 -22.452 -16.938  0.00  0.00    +0.116 C 
ATOM     19  H   UNL     1      37.522 -20.440 -18.726  0.00  0.00    +0.153 HD
ENDBRANCH  13  16
ENDBRANCH   2  13
TORSDOF 3
ENDMDL
MODEL 3
REMARK VINA RESULT:      -7.9      5.875      8.725
REMARK  Name = 5709
REMARK  3 active torsions:
REMARK  status: ('A' for Active; 'I' for Inactive)
REMARK    1  A    between atoms: C_1  and  C_9
REMARK    2  A    between atoms: C_2  and  C_13
REMARK    3  A    between atoms: C_13  and  C_16
REMARK                            x       y       z     vdW  Elec       q    Type
REMARK                         _______ _______ _______ _____ _____    ______ ____
ROOT
ATOM      1  C   UNL     1      32.990  -9.250 -22.938  0.00  0.00    -0.023 C 
ATOM      2  C   UNL     1      32.366 -11.911 -22.904  0.00  0.00    -0.023 C 
ATOM      3  C   UNL     1      31.771 -11.044 -21.987  0.00  0.00    -0.026 C 
ATOM      4  C   UNL     1      33.279 -11.421 -23.838  0.00  0.00    -0.026 C 
ATOM      5  C   UNL     1      32.089  -9.686 -22.005  0.00  0.00    -0.009 C 
ATOM      6  C   UNL     1      33.597 -10.063 -23.855  0.00  0.00    -0.009 C 
ATOM      7  C   UNL     1      30.791 -11.544 -20.977  0.00  0.00    +0.031 C 
ATOM      8  C   UNL     1      33.927 -12.329 -24.831  0.00  0.00    +0.031 C 
ENDROOT
BRANCH   1   9
ATOM      9  C   UNL     1      33.345  -7.744 -22.956  0.00  0.00    +0.019 C 
ATOM     10  C   UNL     1      34.827  -7.559 -23.343  0.00  0.00    +0.004 C 
ATOM     11  C   UNL     1      33.100  -7.132 -21.559  0.00  0.00    +0.004 C 
ATOM     12  C   UNL     1      32.504  -6.929 -23.964  0.00  0.00    +0.004 C 
ENDBRANCH   1   9
BRANCH   2  13
ATOM     13  C   UNL     1      32.024 -13.368 -22.885  0.00  0.00    +0.087 C 
BRANCH  13  16
ATOM     14  N   UNL     1      33.781 -15.127 -22.833  0.00  0.00    -0.299 N 
ATOM     15  N   UNL     1      33.367 -13.963 -20.923  0.00  0.00    -0.232 NA
ATOM     16  C   UNL     1      33.071 -14.165 -22.181  0.00  0.00    +0.113 C 
ATOM     17  C   UNL     1      34.744 -15.712 -21.949  0.00  0.00    +0.084 C 
ATOM     18  C   UNL     1      34.445 -14.961 -20.643  0.00  0.00    +0.116 C 
ATOM     19  H   UNL     1      33.652 -15.383 -23.775  0.00  0.00    +0.153 HD
ENDBRANCH  13  16
ENDBRANCH   2  13
TORSDOF 3
ENDMDL
MODEL 4
REMARK VINA RESULT:      -7.9      5.875      8.882
REMARK  Name = 5709
REMARK  3 active torsions:
REMARK  status: ('A' for Active; 'I' for Inactive)
REMARK    1  A    between atoms: C_1  and  C_9
REMARK    2  A    between atoms: C_2  and  C_13
REMARK    3  A    between atoms: C_13  and  C_16
REMARK                            x       y       z     vdW  Elec       q    Type
REMARK                         _______ _______ _______ _____ _____    ______ ____
ROOT
ATOM      1  C   UNL     1      32.990  -9.247 -22.921  0.00  0.00    -0.023 C 
ATOM      2  C   UNL     1      32.367 -11.908 -22.901  0.00  0.00    -0.023 C 
ATOM      3  C   UNL     1      33.265 -11.410 -23.844  0.00  0.00    -0.026 C 
ATOM      4  C   UNL     1      31.786 -11.049 -21.968  0.00  0.00    -0.026 C 
ATOM      5  C   UNL     1      33.583 -10.052 -23.854  0.00  0.00    -0.009 C 
ATOM      6  C   UNL     1      32.104  -9.691 -21.978  0.00  0.00    -0.009 C 
ATOM      7  C   UNL     1      33.900 -12.309 -24.854  0.00  0.00    +0.031 C 
ATOM      8  C   UNL     1      30.822 -11.559 -20.947  0.00  0.00    +0.031 C 
ENDROOT
BRANCH   1   9
ATOM      9  C   UNL     1      33.341  -7.740 -22.934  0.00  0.00    +0.019 C 
ATOM     10  C   UNL     1      34.837  -7.553 -23.267  0.00  0.00    +0.004 C 
ATOM     11  C   UNL     1      33.042  -7.119 -21.552  0.00  0.00    +0.004 C 
ATOM     12  C   UNL     1      32.537  -6.934 -23.979  0.00  0.00    +0.004 C 
ENDBRANCH   1   9
BRANCH   2  13
ATOM     13  C   UNL     1      32.026 -13.365 -22.890  0.00  0.00    +0.087 C 
BRANCH  13  16
ATOM     14  N   UNL     1      33.801 -15.107 -22.849  0.00  0.00    -0.299 N 
ATOM     15  N   UNL     1      33.347 -13.986 -20.921  0.00  0.00    -0.232 NA
ATOM     16  C   UNL     1      33.071 -14.166 -22.187  0.00  0.00    +0.113 C 
ATOM     17  C   UNL     1      34.757 -15.699 -21.962  0.00  0.00    +0.084 C 
ATOM     18  C   UNL     1      34.431 -14.979 -20.646  0.00  0.00    +0.116 C 
ATOM     19  H   UNL     1      33.688 -15.344 -23.797  0.00  0.00    +0.153 HD
ENDBRANCH  13  16
ENDBRANCH   2  13
TORSDOF 3
ENDMDL
MODEL 5
REMARK VINA RESULT:      -7.8      5.554      7.890
REMARK  Name = 5709
REMARK  3 active torsions:
REMARK  status: ('A' for Active; 'I' for Inactive)
REMARK    1  A    between atoms: C_1  and  C_9
REMARK    2  A    between atoms: C_2  and  C_13
REMARK    3  A    between atoms: C_13  and  C_16
REMARK                            x       y       z     vdW  Elec       q    Type
REMARK                         _______ _______ _______ _____ _____    ______ ____
ROOT
ATOM      1  C   UNL     1      31.460 -23.637 -15.436  0.00  0.00    -0.023 C 
ATOM      2  C   UNL     1      34.184 -23.413 -15.415  0.00  0.00    -0.023 C 
ATOM      3  C   UNL     1      33.476 -23.197 -16.597  0.00  0.00    -0.026 C 
ATOM      4  C   UNL     1      33.502 -23.743 -14.243  0.00  0.00    -0.026 C 
ATOM      5  C   UNL     1      32.086 -23.312 -16.608  0.00  0.00    -0.009 C 
ATOM      6  C   UNL     1      32.112 -23.858 -14.254  0.00  0.00    -0.009 C 
ATOM      7  C   UNL     1      34.183 -22.843 -17.865  0.00  0.00    +0.031 C 
ATOM      8  C   UNL     1      34.238 -23.976 -12.965  0.00  0.00    +0.031 C 
ENDROOT
BRANCH   1   9
ATOM      9  C   UNL     1      29.918 -23.767 -15.449  0.00  0.00    +0.019 C 
ATOM     10  C   UNL     1      29.279 -22.484 -14.877  0.00  0.00    +0.004 C 
ATOM     11  C   UNL     1      29.486 -24.980 -14.596  0.00  0.00    +0.004 C 
ATOM     12  C   UNL     1      29.334 -23.975 -16.864  0.00  0.00    +0.004 C 
ENDBRANCH   1   9
BRANCH   2  13
ATOM     13  C   UNL     1      35.675 -23.290 -15.404  0.00  0.00    +0.087 C 
BRANCH  13  16
ATOM     14  N   UNL     1      37.482 -24.741 -14.500  0.00  0.00    -0.299 N 
ATOM     15  N   UNL     1      35.824 -25.716 -15.716  0.00  0.00    -0.232 NA
ATOM     16  C   UNL     1      36.332 -24.617 -15.219  0.00  0.00    +0.113 C 
ATOM     17  C   UNL     1      37.879 -26.115 -14.441  0.00  0.00    +0.084 C 
ATOM     18  C   UNL     1      36.789 -26.779 -15.295  0.00  0.00    +0.116 C 
ATOM     19  H   UNL     1      37.968 -23.995 -14.081  0.00  0.00    +0.153 HD
ENDBRANCH  13  16
ENDBRANCH   2  13
TORSDOF 3
ENDMDL
MODEL 6
REMARK VINA RESULT:      -7.8      5.496      7.789
REMARK  Name = 5709
REMARK  3 active torsions:
REMARK  status: ('A' for Active; 'I' for Inactive)
REMARK    1  A    between atoms: C_1  and  C_9
REMARK    2  A    between atoms: C_2  and  C_13
REMARK    3  A    between atoms: C_13  and  C_16
REMARK                            x       y       z     vdW  Elec       q    Type
REMARK                         _______ _______ _______ _____ _____    ______ ____
ROOT
ATOM      1  C   UNL     1      31.365 -23.601 -15.497  0.00  0.00    -0.023 C 
ATOM      2  C   UNL     1      34.088 -23.359 -15.483  0.00  0.00    -0.023 C 
ATOM      3  C   UNL     1      33.412 -23.690 -14.309  0.00  0.00    -0.026 C 
ATOM      4  C   UNL     1      33.375 -23.151 -16.664  0.00  0.00    -0.026 C 
ATOM      5  C   UNL     1      32.022 -23.814 -14.316  0.00  0.00    -0.009 C 
ATOM      6  C   UNL     1      31.985 -23.275 -16.671  0.00  0.00    -0.009 C 
ATOM      7  C   UNL     1      34.151 -23.916 -13.031  0.00  0.00    +0.031 C 
ATOM      8  C   UNL     1      34.077 -22.798 -17.934  0.00  0.00    +0.031 C 
ENDROOT
BRANCH   1   9
ATOM      9  C   UNL     1      29.823 -23.736 -15.504  0.00  0.00    +0.019 C 
ATOM     10  C   UNL     1      29.180 -22.432 -14.985  0.00  0.00    +0.004 C 
ATOM     11  C   UNL     1      29.396 -24.914 -14.600  0.00  0.00    +0.004 C 
ATOM     12  C   UNL     1      29.239 -24.006 -16.908  0.00  0.00    +0.004 C 
ENDBRANCH   1   9
BRANCH   2  13
ATOM     13  C   UNL     1      35.578 -23.226 -15.475  0.00  0.00    +0.087 C 
BRANCH  13  16
ATOM     14  N   UNL     1      37.370 -24.633 -14.479  0.00  0.00    -0.299 N 
ATOM     15  N   UNL     1      35.763 -25.658 -15.722  0.00  0.00    -0.232 NA
ATOM     16  C   UNL     1      36.243 -24.541 -15.237  0.00  0.00    +0.113 C 
ATOM     17  C   UNL     1      37.781 -26.001 -14.374  0.00  0.00    +0.084 C 
ATOM     18  C   UNL     1      36.725 -26.698 -15.244  0.00  0.00    +0.116 C 
ATOM     19  H   UNL     1      37.835 -23.871 -14.064  0.00  0.00    +0.153 HD
ENDBRANCH  13  16
ENDBRANCH   2  13
TORSDOF 3
ENDMDL
MODEL 7
REMARK VINA RESULT:      -7.8      2.310      4.043
REMARK  Name = 5709
REMARK  3 active torsions:
REMARK  status: ('A' for Active; 'I' for Inactive)
REMARK    1  A    between atoms: C_1  and  C_9
REMARK    2  A    between atoms: C_2  and  C_13
REMARK    3  A    between atoms: C_13  and  C_16
REMARK                            x       y       z     vdW  Elec       q    Type
REMARK                         _______ _______ _______ _____ _____    ______ ____
ROOT
ATOM      1  C   UNL     1      33.859 -15.004 -23.650  0.00  0.00    -0.023 C 
ATOM      2  C   UNL     1      35.058 -17.004 -22.224  0.00  0.00    -0.023 C 
ATOM      3  C   UNL     1      34.863 -17.148 -23.597  0.00  0.00    -0.026 C 
ATOM      4  C   UNL     1      34.640 -15.840 -21.578  0.00  0.00    -0.026 C 
ATOM      5  C   UNL     1      34.252 -16.127 -24.326  0.00  0.00    -0.009 C 
ATOM      6  C   UNL     1      34.029 -14.819 -22.306  0.00  0.00    -0.009 C 
ATOM      7  C   UNL     1      35.300 -18.385 -24.312  0.00  0.00    +0.031 C 
ATOM      8  C   UNL     1      34.840 -15.662 -20.108  0.00  0.00    +0.031 C 
ENDROOT
BRANCH   1   9
ATOM      9  C   UNL     1      33.178 -13.873 -24.458  0.00  0.00    +0.019 C 
ATOM     10  C   UNL     1      31.946 -13.348 -23.690  0.00  0.00    +0.004 C 
ATOM     11  C   UNL     1      32.732 -14.409 -25.837  0.00  0.00    +0.004 C 
ATOM     12  C   UNL     1      34.104 -12.664 -24.718  0.00  0.00    +0.004 C 
ENDBRANCH   1   9
BRANCH   2  13
ATOM     13  C   UNL     1      35.714 -18.099 -21.443  0.00  0.00    +0.087 C 
BRANCH  13  16
ATOM     14  N   UNL     1      35.102 -20.187 -20.238  0.00  0.00    -0.299 N 
ATOM     15  N   UNL     1      33.430 -18.939 -21.146  0.00  0.00    -0.232 NA
ATOM     16  C   UNL     1      34.714 -19.090 -20.946  0.00  0.00    +0.113 C 
ATOM     17  C   UNL     1      33.955 -20.950 -19.847  0.00  0.00    +0.084 C 
ATOM     18  C   UNL     1      32.822 -20.137 -20.491  0.00  0.00    +0.116 C 
ATOM     19  H   UNL     1      36.034 -20.420 -20.025  0.00  0.00    +0.153 HD
ENDBRANCH  13  16
ENDBRANCH   2  13
TORSDOF 3
ENDMDL
MODEL 8
REMARK VINA RESULT:      -7.8      2.309      4.000
REMARK  Name = 5709
REMARK  3 active torsions:
REMARK  status: ('A' for Active; 'I' for Inactive)
REMARK    1  A    between atoms: C_1  and  C_9
REMARK    2  A    between atoms: C_2  and  C_13
REMARK    3  A    between atoms: C_13  and  C_16
REMARK                            x       y       z     vdW  Elec       q    Type
REMARK                         _______ _______ _______ _____ _____    ______ ____
ROOT
ATOM      1  C   UNL     1      33.854 -14.963 -23.588  0.00  0.00    -0.023 C 
ATOM      2  C   UNL     1      35.065 -17.000 -22.226  0.00  0.00    -0.023 C 
ATOM      3  C   UNL     1      34.668 -15.848 -21.548  0.00  0.00    -0.026 C 
ATOM      4  C   UNL     1      34.844 -17.113 -23.599  0.00  0.00    -0.026 C 
ATOM      5  C   UNL     1      34.050 -14.808 -22.243  0.00  0.00    -0.009 C 
ATOM      6  C   UNL     1      34.226 -16.073 -24.294  0.00  0.00    -0.009 C 
ATOM      7  C   UNL     1      34.893 -15.702 -20.079  0.00  0.00    +0.031 C 
ATOM      8  C   UNL     1      35.258 -18.338 -24.347  0.00  0.00    +0.031 C 
ENDROOT
BRANCH   1   9
ATOM      9  C   UNL     1      33.170 -13.808 -24.359  0.00  0.00    +0.019 C 
ATOM     10  C   UNL     1      31.983 -13.259 -23.539  0.00  0.00    +0.004 C 
ATOM     11  C   UNL     1      32.658 -14.319 -25.724  0.00  0.00    +0.004 C 
ATOM     12  C   UNL     1      34.116 -12.619 -24.644  0.00  0.00    +0.004 C 
ENDBRANCH   1   9
BRANCH   2  13
ATOM     13  C   UNL     1      35.728 -18.115 -21.481  0.00  0.00    +0.087 C 
BRANCH  13  16
ATOM     14  N   UNL     1      35.116 -20.179 -20.235  0.00  0.00    -0.299 N 
ATOM     15  N   UNL     1      33.451 -18.987 -21.226  0.00  0.00    -0.232 NA
ATOM     16  C   UNL     1      34.731 -19.109 -20.985  0.00  0.00    +0.113 C 
ATOM     17  C   UNL     1      33.971 -20.951 -19.855  0.00  0.00    +0.084 C 
ATOM     18  C   UNL     1      32.844 -20.177 -20.555  0.00  0.00    +0.116 C 
ATOM     19  H   UNL     1      36.046 -20.390 -19.989  0.00  0.00    +0.153 HD
ENDBRANCH  13  16
ENDBRANCH   2  13
TORSDOF 3
ENDMDL
MODEL 9
REMARK VINA RESULT:      -7.5      5.711      8.168
REMARK  Name = 5709
REMARK  3 active torsions:
REMARK  status: ('A' for Active; 'I' for Inactive)
REMARK    1  A    between atoms: C_1  and  C_9
REMARK    2  A    between atoms: C_2  and  C_13
REMARK    3  A    between atoms: C_13  and  C_16
REMARK                            x       y       z     vdW  Elec       q    Type
REMARK                         _______ _______ _______ _____ _____    ______ ____
ROOT
ATOM      1  C   UNL     1      32.220 -23.765 -14.789  0.00  0.00    -0.023 C 
ATOM      2  C   UNL     1      34.913 -23.348 -15.002  0.00  0.00    -0.023 C 
ATOM      3  C   UNL     1      34.093 -23.195 -16.120  0.00  0.00    -0.026 C 
ATOM      4  C   UNL     1      34.359 -23.714 -13.775  0.00  0.00    -0.026 C 
ATOM      5  C   UNL     1      32.719 -23.408 -16.012  0.00  0.00    -0.009 C 
ATOM      6  C   UNL     1      32.984 -23.927 -13.667  0.00  0.00    -0.009 C 
ATOM      7  C   UNL     1      34.662 -22.804 -17.445  0.00  0.00    +0.031 C 
ATOM      8  C   UNL     1      35.215 -23.882 -12.564  0.00  0.00    +0.031 C 
ENDROOT
BRANCH   1   9
ATOM      9  C   UNL     1      30.695 -24.004 -14.670  0.00  0.00    +0.019 C 
ATOM     10  C   UNL     1      30.338 -24.396 -13.220  0.00  0.00    +0.004 C 
ATOM     11  C   UNL     1      30.265 -25.137 -15.628  0.00  0.00    +0.004 C 
ATOM     12  C   UNL     1      29.852 -22.760 -15.027  0.00  0.00    +0.004 C 
ENDBRANCH   1   9
BRANCH   2  13
ATOM     13  C   UNL     1      36.387 -23.120 -15.119  0.00  0.00    +0.087 C 
BRANCH  13  16
ATOM     14  N   UNL     1      36.660 -25.582 -15.345  0.00  0.00    -0.299 N 
ATOM     15  N   UNL     1      38.333 -24.399 -14.356  0.00  0.00    -0.232 NA
ATOM     16  C   UNL     1      37.153 -24.385 -14.921  0.00  0.00    +0.113 C 
ATOM     17  C   UNL     1      37.601 -26.626 -15.073  0.00  0.00    +0.084 C 
ATOM     18  C   UNL     1      38.719 -25.844 -14.366  0.00  0.00    +0.116 C 
ATOM     19  H   UNL     1      35.785 -25.710 -15.777  0.00  0.00    +0.153 HD
ENDBRANCH  13  16
ENDBRANCH   2  13
TORSDOF 3
ENDMDL
