MODEL 1
REMARK VINA RESULT:     -10.8      0.000      0.000
REMARK  Name = 969516
REMARK  10 active torsions:
REMARK  status: ('A' for Active; 'I' for Inactive)
REMARK    1  A    between atoms: C_1  and  C_3
REMARK    2  A    between atoms: C_1  and  C_17
REMARK    3  A    between atoms: C_3  and  C_5
REMARK    4  A    between atoms: C_4  and  C_6
REMARK    5  A    between atoms: C_8  and  O_12
REMARK    6  A    between atoms: C_10  and  O_14
REMARK    7  A    between atoms: C_17  and  C_19
REMARK    8  A    between atoms: C_18  and  C_20
REMARK    9  A    between atoms: C_22  and  O_26
REMARK   10  A    between atoms: C_24  and  O_28
REMARK                            x       y       z     vdW  Elec       q    Type
REMARK                         _______ _______ _______ _____ _____    ______ ____
ROOT
ATOM      1  C   UNL     1      35.210 -22.320 -19.525  0.00  0.00    +0.138 C 
ENDROOT
BRANCH   1   3
ATOM      2  O   UNL     1      32.908 -21.679 -19.834  0.00  0.00    -0.291 OA
ATOM      3  C   UNL     1      33.755 -22.203 -19.116  0.00  0.00    +0.181 C 
BRANCH   3   5
ATOM      4  C   UNL     1      32.132 -22.806 -17.370  0.00  0.00    +0.003 C 
ATOM      5  C   UNL     1      33.402 -22.810 -17.798  0.00  0.00    +0.038 C 
BRANCH   4   6
ATOM      6  C   UNL     1      31.682 -23.368 -16.083  0.00  0.00    +0.003 C 
ATOM      7  C   UNL     1      32.615 -23.625 -15.091  0.00  0.00    +0.040 C 
ATOM      8  C   UNL     1      32.188 -24.157 -13.874  0.00  0.00    +0.172 C 
ATOM      9  C   UNL     1      30.335 -23.628 -15.892  0.00  0.00    +0.003 C 
ATOM     10  C   UNL     1      30.836 -24.425 -13.667  0.00  0.00    +0.168 C 
ATOM     11  C   UNL     1      29.909 -24.161 -14.674  0.00  0.00    +0.040 C 
BRANCH   8  12
ATOM     12  O   UNL     1      33.103 -24.411 -12.897  0.00  0.00    -0.468 OA
ATOM     13  C   UNL     1      34.471 -24.151 -13.205  0.00  0.00    +0.253 C 
ENDBRANCH   8  12
BRANCH  10  14
ATOM     14  O   UNL     1      30.407 -24.943 -12.482  0.00  0.00    -0.503 OA
ATOM     15  H   UNL     1      30.191 -25.852 -12.418  0.00  0.00    +0.292 HD
ENDBRANCH  10  14
ENDBRANCH   4   6
ENDBRANCH   3   5
ENDBRANCH   1   3
BRANCH   1  17
ATOM     16  O   UNL     1      36.633 -20.552 -18.710  0.00  0.00    -0.291 OA
ATOM     17  C   UNL     1      35.962 -21.008 -19.634  0.00  0.00    +0.181 C 
BRANCH  17  19
ATOM     18  C   UNL     1      35.115 -19.226 -21.104  0.00  0.00    +0.003 C 
ATOM     19  C   UNL     1      35.877 -20.319 -20.955  0.00  0.00    +0.038 C 
BRANCH  18  20
ATOM     20  C   UNL     1      34.956 -18.482 -22.365  0.00  0.00    +0.003 C 
ATOM     21  C   UNL     1      35.060 -17.101 -22.356  0.00  0.00    +0.040 C 
ATOM     22  C   UNL     1      34.908 -16.397 -23.551  0.00  0.00    +0.172 C 
ATOM     23  C   UNL     1      34.703 -19.179 -23.536  0.00  0.00    +0.003 C 
ATOM     24  C   UNL     1      34.653 -17.084 -24.737  0.00  0.00    +0.168 C 
ATOM     25  C   UNL     1      34.550 -18.475 -24.730  0.00  0.00    +0.040 C 
BRANCH  22  26
ATOM     26  O   UNL     1      35.012 -15.038 -23.546  0.00  0.00    -0.468 OA
ATOM     27  C   UNL     1      33.861 -14.301 -23.137  0.00  0.00    +0.253 C 
ENDBRANCH  22  26
BRANCH  24  28
ATOM     28  O   UNL     1      34.505 -16.408 -25.911  0.00  0.00    -0.503 OA
ATOM     29  H   UNL     1      34.321 -15.489 -25.902  0.00  0.00    +0.292 HD
ENDBRANCH  24  28
ENDBRANCH  18  20
ENDBRANCH  17  19
ENDBRANCH   1  17
TORSDOF 10
ENDMDL
MODEL 2
REMARK VINA RESULT:     -10.8      0.079     10.638
REMARK  Name = 969516
REMARK  10 active torsions:
REMARK  status: ('A' for Active; 'I' for Inactive)
REMARK    1  A    between atoms: C_1  and  C_3
REMARK    2  A    between atoms: C_1  and  C_17
REMARK    3  A    between atoms: C_3  and  C_5
REMARK    4  A    between atoms: C_4  and  C_6
REMARK    5  A    between atoms: C_8  and  O_12
REMARK    6  A    between atoms: C_10  and  O_14
REMARK    7  A    between atoms: C_17  and  C_19
REMARK    8  A    between atoms: C_18  and  C_20
REMARK    9  A    between atoms: C_22  and  O_26
REMARK   10  A    between atoms: C_24  and  O_28
REMARK                            x       y       z     vdW  Elec       q    Type
REMARK                         _______ _______ _______ _____ _____    ______ ____
ROOT
ATOM      1  C   UNL     1      35.232 -22.331 -19.536  0.00  0.00    +0.138 C 
ENDROOT
BRANCH   1   3
ATOM      2  O   UNL     1      36.631 -20.549 -18.714  0.00  0.00    -0.291 OA
ATOM      3  C   UNL     1      35.968 -21.010 -19.639  0.00  0.00    +0.181 C 
BRANCH   3   5
ATOM      4  C   UNL     1      35.140 -19.206 -21.092  0.00  0.00    +0.003 C 
ATOM      5  C   UNL     1      35.876 -20.318 -20.960  0.00  0.00    +0.038 C 
BRANCH   4   6
ATOM      6  C   UNL     1      34.976 -18.457 -22.351  0.00  0.00    +0.003 C 
ATOM      7  C   UNL     1      35.067 -17.074 -22.335  0.00  0.00    +0.040 C 
ATOM      8  C   UNL     1      34.911 -16.366 -23.526  0.00  0.00    +0.172 C 
ATOM      9  C   UNL     1      34.731 -19.150 -23.525  0.00  0.00    +0.003 C 
ATOM     10  C   UNL     1      34.664 -17.049 -24.716  0.00  0.00    +0.168 C 
ATOM     11  C   UNL     1      34.574 -18.441 -24.717  0.00  0.00    +0.040 C 
BRANCH   8  12
ATOM     12  O   UNL     1      35.001 -15.007 -23.513  0.00  0.00    -0.468 OA
ATOM     13  C   UNL     1      33.993 -14.296 -22.798  0.00  0.00    +0.253 C 
ENDBRANCH   8  12
BRANCH  10  14
ATOM     14  O   UNL     1      34.511 -16.368 -25.886  0.00  0.00    -0.503 OA
ATOM     15  H   UNL     1      34.636 -15.440 -25.909  0.00  0.00    +0.292 HD
ENDBRANCH  10  14
ENDBRANCH   4   6
ENDBRANCH   3   5
ENDBRANCH   1   3
BRANCH   1  17
ATOM     16  O   UNL     1      32.922 -21.722 -19.862  0.00  0.00    -0.291 OA
ATOM     17  C   UNL     1      33.772 -22.232 -19.137  0.00  0.00    +0.181 C 
BRANCH  17  19
ATOM     18  C   UNL     1      32.156 -22.797 -17.370  0.00  0.00    +0.003 C 
ATOM     19  C   UNL     1      33.418 -22.837 -17.819  0.00  0.00    +0.038 C 
BRANCH  18  20
ATOM     20  C   UNL     1      31.707 -23.353 -16.082  0.00  0.00    +0.003 C 
ATOM     21  C   UNL     1      32.639 -23.605 -15.089  0.00  0.00    +0.040 C 
ATOM     22  C   UNL     1      32.213 -24.133 -13.870  0.00  0.00    +0.172 C 
ATOM     23  C   UNL     1      30.359 -23.616 -15.890  0.00  0.00    +0.003 C 
ATOM     24  C   UNL     1      30.861 -24.402 -13.662  0.00  0.00    +0.168 C 
ATOM     25  C   UNL     1      29.934 -24.144 -14.672  0.00  0.00    +0.040 C 
BRANCH  22  26
ATOM     26  O   UNL     1      33.127 -24.380 -12.891  0.00  0.00    -0.468 OA
ATOM     27  C   UNL     1      34.502 -24.194 -13.225  0.00  0.00    +0.253 C 
ENDBRANCH  22  26
BRANCH  24  28
ATOM     28  O   UNL     1      30.432 -24.916 -12.475  0.00  0.00    -0.503 OA
ATOM     29  H   UNL     1      30.352 -24.359 -11.725  0.00  0.00    +0.292 HD
ENDBRANCH  24  28
ENDBRANCH  18  20
ENDBRANCH  17  19
ENDBRANCH   1  17
TORSDOF 10
ENDMDL
MODEL 3
REMARK VINA RESULT:     -10.6      1.084     10.805
REMARK  Name = 969516
REMARK  10 active torsions:
REMARK  status: ('A' for Active; 'I' for Inactive)
REMARK    1  A    between atoms: C_1  and  C_3
REMARK    2  A    between atoms: C_1  and  C_17
REMARK    3  A    between atoms: C_3  and  C_5
REMARK    4  A    between atoms: C_4  and  C_6
REMARK    5  A    between atoms: C_8  and  O_12
REMARK    6  A    between atoms: C_10  and  O_14
REMARK    7  A    between atoms: C_17  and  C_19
REMARK    8  A    between atoms: C_18  and  C_20
REMARK    9  A    between atoms: C_22  and  O_26
REMARK   10  A    between atoms: C_24  and  O_28
REMARK                            x       y       z     vdW  Elec       q    Type
REMARK                         _______ _______ _______ _____ _____    ______ ____
ROOT
ATOM      1  C   UNL     1      35.203 -22.130 -19.785  0.00  0.00    +0.138 C 
ENDROOT
BRANCH   1   3
ATOM      2  O   UNL     1      36.559 -20.199 -19.295  0.00  0.00    -0.291 OA
ATOM      3  C   UNL     1      35.724 -20.726 -20.024  0.00  0.00    +0.181 C 
BRANCH   3   5
ATOM      4  C   UNL     1      35.710 -18.866 -21.632  0.00  0.00    +0.003 C 
ATOM      5  C   UNL     1      35.191 -20.036 -21.236  0.00  0.00    +0.038 C 
BRANCH   4   6
ATOM      6  C   UNL     1      35.250 -18.100 -22.805  0.00  0.00    +0.003 C 
ATOM      7  C   UNL     1      35.093 -16.727 -22.699  0.00  0.00    +0.040 C 
ATOM      8  C   UNL     1      34.657 -16.003 -23.809  0.00  0.00    +0.172 C 
ATOM      9  C   UNL     1      34.982 -18.768 -23.988  0.00  0.00    +0.003 C 
ATOM     10  C   UNL     1      34.383 -16.662 -25.007  0.00  0.00    +0.168 C 
ATOM     11  C   UNL     1      34.546 -18.044 -25.098  0.00  0.00    +0.040 C 
BRANCH   8  12
ATOM     12  O   UNL     1      34.502 -14.653 -23.709  0.00  0.00    -0.468 OA
ATOM     13  C   UNL     1      33.308 -14.181 -23.089  0.00  0.00    +0.253 C 
ENDBRANCH   8  12
BRANCH  10  14
ATOM     14  O   UNL     1      33.957 -15.965 -26.098  0.00  0.00    -0.503 OA
ATOM     15  H   UNL     1      33.423 -16.384 -26.743  0.00  0.00    +0.292 HD
ENDBRANCH  10  14
ENDBRANCH   4   6
ENDBRANCH   3   5
ENDBRANCH   1   3
BRANCH   1  17
ATOM     16  O   UNL     1      32.809 -21.850 -19.829  0.00  0.00    -0.291 OA
ATOM     17  C   UNL     1      33.803 -22.214 -19.207  0.00  0.00    +0.181 C 
BRANCH  17  19
ATOM     18  C   UNL     1      34.743 -22.770 -17.002  0.00  0.00    +0.003 C 
ATOM     19  C   UNL     1      33.700 -22.812 -17.843  0.00  0.00    +0.038 C 
BRANCH  18  20
ATOM     20  C   UNL     1      34.747 -23.339 -15.643  0.00  0.00    +0.003 C 
ATOM     21  C   UNL     1      33.545 -23.690 -15.051  0.00  0.00    +0.040 C 
ATOM     22  C   UNL     1      33.549 -24.228 -13.764  0.00  0.00    +0.172 C 
ATOM     23  C   UNL     1      35.954 -23.510 -14.984  0.00  0.00    +0.003 C 
ATOM     24  C   UNL     1      34.755 -24.406 -13.087  0.00  0.00    +0.168 C 
ATOM     25  C   UNL     1      35.958 -24.047 -13.696  0.00  0.00    +0.040 C 
BRANCH  22  26
ATOM     26  O   UNL     1      32.369 -24.576 -13.180  0.00  0.00    -0.468 OA
ATOM     27  C   UNL     1      31.355 -25.106 -14.031  0.00  0.00    +0.253 C 
ENDBRANCH  22  26
BRANCH  24  28
ATOM     28  O   UNL     1      34.773 -24.932 -11.830  0.00  0.00    -0.503 OA
ATOM     29  H   UNL     1      34.800 -25.862 -11.713  0.00  0.00    +0.292 HD
ENDBRANCH  24  28
ENDBRANCH  18  20
ENDBRANCH  17  19
ENDBRANCH   1  17
TORSDOF 10
ENDMDL
MODEL 4
REMARK VINA RESULT:     -10.6      1.079      2.290
REMARK  Name = 969516
REMARK  10 active torsions:
REMARK  status: ('A' for Active; 'I' for Inactive)
REMARK    1  A    between atoms: C_1  and  C_3
REMARK    2  A    between atoms: C_1  and  C_17
REMARK    3  A    between atoms: C_3  and  C_5
REMARK    4  A    between atoms: C_4  and  C_6
REMARK    5  A    between atoms: C_8  and  O_12
REMARK    6  A    between atoms: C_10  and  O_14
REMARK    7  A    between atoms: C_17  and  C_19
REMARK    8  A    between atoms: C_18  and  C_20
REMARK    9  A    between atoms: C_22  and  O_26
REMARK   10  A    between atoms: C_24  and  O_28
REMARK                            x       y       z     vdW  Elec       q    Type
REMARK                         _______ _______ _______ _____ _____    ______ ____
ROOT
ATOM      1  C   UNL     1      35.155 -22.169 -19.772  0.00  0.00    +0.138 C 
ENDROOT
BRANCH   1   3
ATOM      2  O   UNL     1      32.765 -21.862 -19.786  0.00  0.00    -0.291 OA
ATOM      3  C   UNL     1      33.763 -22.235 -19.176  0.00  0.00    +0.181 C 
BRANCH   3   5
ATOM      4  C   UNL     1      34.717 -22.772 -16.973  0.00  0.00    +0.003 C 
ATOM      5  C   UNL     1      33.670 -22.829 -17.808  0.00  0.00    +0.038 C 
BRANCH   4   6
ATOM      6  C   UNL     1      34.732 -23.336 -15.611  0.00  0.00    +0.003 C 
ATOM      7  C   UNL     1      33.535 -23.697 -15.013  0.00  0.00    +0.040 C 
ATOM      8  C   UNL     1      33.550 -24.230 -13.725  0.00  0.00    +0.172 C 
ATOM      9  C   UNL     1      35.942 -23.492 -14.956  0.00  0.00    +0.003 C 
ATOM     10  C   UNL     1      34.760 -24.393 -13.051  0.00  0.00    +0.168 C 
ATOM     11  C   UNL     1      35.956 -24.024 -13.666  0.00  0.00    +0.040 C 
BRANCH   8  12
ATOM     12  O   UNL     1      32.375 -24.587 -13.134  0.00  0.00    -0.468 OA
ATOM     13  C   UNL     1      31.356 -25.114 -13.982  0.00  0.00    +0.253 C 
ENDBRANCH   8  12
BRANCH  10  14
ATOM     14  O   UNL     1      34.787 -24.913 -11.792  0.00  0.00    -0.503 OA
ATOM     15  H   UNL     1      34.030 -24.856 -11.245  0.00  0.00    +0.292 HD
ENDBRANCH  10  14
ENDBRANCH   4   6
ENDBRANCH   3   5
ENDBRANCH   1   3
BRANCH   1  17
ATOM     16  O   UNL     1      36.531 -20.251 -19.283  0.00  0.00    -0.291 OA
ATOM     17  C   UNL     1      35.692 -20.772 -20.015  0.00  0.00    +0.181 C 
BRANCH  17  19
ATOM     18  C   UNL     1      35.667 -18.889 -21.597  0.00  0.00    +0.003 C 
ATOM     19  C   UNL     1      35.173 -20.080 -21.231  0.00  0.00    +0.038 C 
BRANCH  18  20
ATOM     20  C   UNL     1      35.217 -18.121 -22.771  0.00  0.00    +0.003 C 
ATOM     21  C   UNL     1      35.082 -16.746 -22.672  0.00  0.00    +0.040 C 
ATOM     22  C   UNL     1      34.655 -16.020 -23.784  0.00  0.00    +0.172 C 
ATOM     23  C   UNL     1      34.937 -18.791 -23.952  0.00  0.00    +0.003 C 
ATOM     24  C   UNL     1      34.369 -16.679 -24.979  0.00  0.00    +0.168 C 
ATOM     25  C   UNL     1      34.510 -18.064 -25.064  0.00  0.00    +0.040 C 
BRANCH  22  26
ATOM     26  O   UNL     1      34.522 -14.667 -23.689  0.00  0.00    -0.468 OA
ATOM     27  C   UNL     1      33.277 -14.170 -23.205  0.00  0.00    +0.253 C 
ENDBRANCH  22  26
BRANCH  24  28
ATOM     28  O   UNL     1      33.954 -15.980 -26.073  0.00  0.00    -0.503 OA
ATOM     29  H   UNL     1      33.146 -15.505 -26.045  0.00  0.00    +0.292 HD
ENDBRANCH  24  28
ENDBRANCH  18  20
ENDBRANCH  17  19
ENDBRANCH   1  17
TORSDOF 10
ENDMDL
MODEL 5
REMARK VINA RESULT:     -10.5      2.115     10.804
REMARK  Name = 969516
REMARK  10 active torsions:
REMARK  status: ('A' for Active; 'I' for Inactive)
REMARK    1  A    between atoms: C_1  and  C_3
REMARK    2  A    between atoms: C_1  and  C_17
REMARK    3  A    between atoms: C_3  and  C_5
REMARK    4  A    between atoms: C_4  and  C_6
REMARK    5  A    between atoms: C_8  and  O_12
REMARK    6  A    between atoms: C_10  and  O_14
REMARK    7  A    between atoms: C_17  and  C_19
REMARK    8  A    between atoms: C_18  and  C_20
REMARK    9  A    between atoms: C_22  and  O_26
REMARK   10  A    between atoms: C_24  and  O_28
REMARK                            x       y       z     vdW  Elec       q    Type
REMARK                         _______ _______ _______ _____ _____    ______ ____
ROOT
ATOM      1  C   UNL     1      34.866 -22.467 -19.425  0.00  0.00    +0.138 C 
ENDROOT
BRANCH   1   3
ATOM      2  O   UNL     1      36.391 -20.661 -18.957  0.00  0.00    -0.291 OA
ATOM      3  C   UNL     1      35.499 -21.112 -19.671  0.00  0.00    +0.181 C 
BRANCH   3   5
ATOM      4  C   UNL     1      35.716 -19.363 -21.386  0.00  0.00    +0.003 C 
ATOM      5  C   UNL     1      35.003 -20.374 -20.870  0.00  0.00    +0.038 C 
BRANCH   4   6
ATOM      6  C   UNL     1      35.311 -18.565 -22.558  0.00  0.00    +0.003 C 
ATOM      7  C   UNL     1      35.341 -17.182 -22.480  0.00  0.00    +0.040 C 
ATOM      8  C   UNL     1      34.957 -16.428 -23.588  0.00  0.00    +0.172 C 
ATOM      9  C   UNL     1      34.905 -19.214 -23.712  0.00  0.00    +0.003 C 
ATOM     10  C   UNL     1      34.546 -17.066 -24.758  0.00  0.00    +0.168 C 
ATOM     11  C   UNL     1      34.520 -18.459 -24.821  0.00  0.00    +0.040 C 
BRANCH   8  12
ATOM     12  O   UNL     1      34.986 -15.068 -23.515  0.00  0.00    -0.468 OA
ATOM     13  C   UNL     1      34.212 -14.456 -22.486  0.00  0.00    +0.253 C 
ENDBRANCH   8  12
BRANCH  10  14
ATOM     14  O   UNL     1      34.169 -16.340 -25.847  0.00  0.00    -0.503 OA
ATOM     15  H   UNL     1      33.588 -15.613 -25.748  0.00  0.00    +0.292 HD
ENDBRANCH  10  14
ENDBRANCH   4   6
ENDBRANCH   3   5
ENDBRANCH   1   3
BRANCH   1  17
ATOM     16  O   UNL     1      32.573 -22.038 -18.816  0.00  0.00    -0.291 OA
ATOM     17  C   UNL     1      33.676 -22.467 -18.485  0.00  0.00    +0.181 C 
BRANCH  17  19
ATOM     18  C   UNL     1      35.067 -22.851 -16.493  0.00  0.00    +0.003 C 
ATOM     19  C   UNL     1      33.913 -23.067 -17.139  0.00  0.00    +0.038 C 
BRANCH  18  20
ATOM     20  C   UNL     1      35.402 -23.404 -15.170  0.00  0.00    +0.003 C 
ATOM     21  C   UNL     1      36.732 -23.509 -14.794  0.00  0.00    +0.040 C 
ATOM     22  C   UNL     1      37.049 -24.034 -13.541  0.00  0.00    +0.172 C 
ATOM     23  C   UNL     1      34.380 -23.809 -14.326  0.00  0.00    +0.003 C 
ATOM     24  C   UNL     1      36.031 -24.446 -12.681  0.00  0.00    +0.168 C 
ATOM     25  C   UNL     1      34.697 -24.334 -13.073  0.00  0.00    +0.040 C 
BRANCH  22  26
ATOM     26  O   UNL     1      38.355 -24.138 -13.169  0.00  0.00    -0.468 OA
ATOM     27  C   UNL     1      39.076 -25.274 -13.642  0.00  0.00    +0.253 C 
ENDBRANCH  22  26
BRANCH  24  28
ATOM     28  O   UNL     1      36.327 -24.958 -11.453  0.00  0.00    -0.503 OA
ATOM     29  H   UNL     1      35.849 -25.695 -11.126  0.00  0.00    +0.292 HD
ENDBRANCH  24  28
ENDBRANCH  18  20
ENDBRANCH  17  19
ENDBRANCH   1  17
TORSDOF 10
ENDMDL
MODEL 6
REMARK VINA RESULT:     -10.4      1.667      2.322
REMARK  Name = 969516
REMARK  10 active torsions:
REMARK  status: ('A' for Active; 'I' for Inactive)
REMARK    1  A    between atoms: C_1  and  C_3
REMARK    2  A    between atoms: C_1  and  C_17
REMARK    3  A    between atoms: C_3  and  C_5
REMARK    4  A    between atoms: C_4  and  C_6
REMARK    5  A    between atoms: C_8  and  O_12
REMARK    6  A    between atoms: C_10  and  O_14
REMARK    7  A    between atoms: C_17  and  C_19
REMARK    8  A    between atoms: C_18  and  C_20
REMARK    9  A    between atoms: C_22  and  O_26
REMARK   10  A    between atoms: C_24  and  O_28
REMARK                            x       y       z     vdW  Elec       q    Type
REMARK                         _______ _______ _______ _____ _____    ______ ____
ROOT
ATOM      1  C   UNL     1      35.123 -22.306 -19.641  0.00  0.00    +0.138 C 
ENDROOT
BRANCH   1   3
ATOM      2  O   UNL     1      32.750 -21.900 -19.547  0.00  0.00    -0.291 OA
ATOM      3  C   UNL     1      33.757 -22.324 -18.986  0.00  0.00    +0.181 C 
BRANCH   3   5
ATOM      4  C   UNL     1      34.742 -22.833 -16.790  0.00  0.00    +0.003 C 
ATOM      5  C   UNL     1      33.698 -22.936 -17.625  0.00  0.00    +0.038 C 
BRANCH   4   6
ATOM      6  C   UNL     1      34.789 -23.409 -15.434  0.00  0.00    +0.003 C 
ATOM      7  C   UNL     1      36.013 -23.770 -14.893  0.00  0.00    +0.040 C 
ATOM      8  C   UNL     1      36.056 -24.315 -13.610  0.00  0.00    +0.172 C 
ATOM      9  C   UNL     1      33.609 -23.580 -14.729  0.00  0.00    +0.003 C 
ATOM     10  C   UNL     1      34.877 -24.494 -12.887  0.00  0.00    +0.168 C 
ATOM     11  C   UNL     1      33.653 -24.126 -13.446  0.00  0.00    +0.040 C 
BRANCH   8  12
ATOM     12  O   UNL     1      37.257 -24.671 -13.074  0.00  0.00    -0.468 OA
ATOM     13  C   UNL     1      38.338 -24.876 -13.982  0.00  0.00    +0.253 C 
ENDBRANCH   8  12
BRANCH  10  14
ATOM     14  O   UNL     1      34.908 -25.025 -11.633  0.00  0.00    -0.503 OA
ATOM     15  H   UNL     1      35.723 -25.291 -11.256  0.00  0.00    +0.292 HD
ENDBRANCH  10  14
ENDBRANCH   4   6
ENDBRANCH   3   5
ENDBRANCH   1   3
BRANCH   1  17
ATOM     16  O   UNL     1      36.516 -20.408 -19.120  0.00  0.00    -0.291 OA
ATOM     17  C   UNL     1      35.708 -20.929 -19.886  0.00  0.00    +0.181 C 
BRANCH  17  19
ATOM     18  C   UNL     1      35.618 -18.983 -21.389  0.00  0.00    +0.003 C 
ATOM     19  C   UNL     1      35.277 -20.257 -21.147  0.00  0.00    +0.038 C 
BRANCH  18  20
ATOM     20  C   UNL     1      35.235 -18.228 -22.594  0.00  0.00    +0.003 C 
ATOM     21  C   UNL     1      35.194 -16.844 -22.543  0.00  0.00    +0.040 C 
ATOM     22  C   UNL     1      34.831 -16.129 -23.685  0.00  0.00    +0.172 C 
ATOM     23  C   UNL     1      34.922 -18.917 -23.755  0.00  0.00    +0.003 C 
ATOM     24  C   UNL     1      34.513 -16.808 -24.861  0.00  0.00    +0.168 C 
ATOM     25  C   UNL     1      34.558 -18.202 -24.896  0.00  0.00    +0.040 C 
BRANCH  22  26
ATOM     26  O   UNL     1      34.791 -14.768 -23.639  0.00  0.00    -0.468 OA
ATOM     27  C   UNL     1      33.576 -14.169 -23.191  0.00  0.00    +0.253 C 
ENDBRANCH  22  26
BRANCH  24  28
ATOM     28  O   UNL     1      34.158 -16.122 -25.983  0.00  0.00    -0.503 OA
ATOM     29  H   UNL     1      34.209 -16.538 -26.821  0.00  0.00    +0.292 HD
ENDBRANCH  24  28
ENDBRANCH  18  20
ENDBRANCH  17  19
ENDBRANCH   1  17
TORSDOF 10
ENDMDL
MODEL 7
REMARK VINA RESULT:     -10.3      0.808      1.874
REMARK  Name = 969516
REMARK  10 active torsions:
REMARK  status: ('A' for Active; 'I' for Inactive)
REMARK    1  A    between atoms: C_1  and  C_3
REMARK    2  A    between atoms: C_1  and  C_17
REMARK    3  A    between atoms: C_3  and  C_5
REMARK    4  A    between atoms: C_4  and  C_6
REMARK    5  A    between atoms: C_8  and  O_12
REMARK    6  A    between atoms: C_10  and  O_14
REMARK    7  A    between atoms: C_17  and  C_19
REMARK    8  A    between atoms: C_18  and  C_20
REMARK    9  A    between atoms: C_22  and  O_26
REMARK   10  A    between atoms: C_24  and  O_28
REMARK                            x       y       z     vdW  Elec       q    Type
REMARK                         _______ _______ _______ _____ _____    ______ ____
ROOT
ATOM      1  C   UNL     1      34.868 -22.103 -19.307  0.00  0.00    +0.138 C 
ENDROOT
BRANCH   1   3
ATOM      2  O   UNL     1      32.843 -21.230 -20.278  0.00  0.00    -0.291 OA
ATOM      3  C   UNL     1      33.392 -21.761 -19.317  0.00  0.00    +0.181 C 
BRANCH   3   5
ATOM      4  C   UNL     1      33.094 -23.113 -17.284  0.00  0.00    +0.003 C 
ATOM      5  C   UNL     1      32.628 -22.154 -18.095  0.00  0.00    +0.038 C 
BRANCH   4   6
ATOM      6  C   UNL     1      32.413 -23.582 -16.063  0.00  0.00    +0.003 C 
ATOM      7  C   UNL     1      31.048 -23.820 -16.097  0.00  0.00    +0.040 C 
ATOM      8  C   UNL     1      30.405 -24.262 -14.941  0.00  0.00    +0.172 C 
ATOM      9  C   UNL     1      33.151 -23.773 -14.907  0.00  0.00    +0.003 C 
ATOM     10  C   UNL     1      31.133 -24.459 -13.769  0.00  0.00    +0.168 C 
ATOM     11  C   UNL     1      32.506 -24.215 -13.751  0.00  0.00    +0.040 C 
BRANCH   8  12
ATOM     12  O   UNL     1      29.063 -24.498 -14.971  0.00  0.00    -0.468 OA
ATOM     13  C   UNL     1      28.274 -23.653 -15.807  0.00  0.00    +0.253 C 
ENDBRANCH   8  12
BRANCH  10  14
ATOM     14  O   UNL     1      30.515 -24.892 -12.634  0.00  0.00    -0.503 OA
ATOM     15  H   UNL     1      30.253 -25.787 -12.556  0.00  0.00    +0.292 HD
ENDBRANCH  10  14
ENDBRANCH   4   6
ENDBRANCH   3   5
ENDBRANCH   1   3
BRANCH   1  17
ATOM     16  O   UNL     1      36.684 -20.585 -18.850  0.00  0.00    -0.291 OA
ATOM     17  C   UNL     1      35.804 -20.953 -19.624  0.00  0.00    +0.181 C 
BRANCH  17  19
ATOM     18  C   UNL     1      35.294 -19.021 -21.060  0.00  0.00    +0.003 C 
ATOM     19  C   UNL     1      35.621 -20.317 -20.962  0.00  0.00    +0.038 C 
BRANCH  18  20
ATOM     20  C   UNL     1      35.081 -18.304 -22.329  0.00  0.00    +0.003 C 
ATOM     21  C   UNL     1      35.057 -16.919 -22.331  0.00  0.00    +0.040 C 
ATOM     22  C   UNL     1      34.854 -16.241 -23.533  0.00  0.00    +0.172 C 
ATOM     23  C   UNL     1      34.907 -19.031 -23.497  0.00  0.00    +0.003 C 
ATOM     24  C   UNL     1      34.678 -16.958 -24.716  0.00  0.00    +0.168 C 
ATOM     25  C   UNL     1      34.704 -18.352 -24.699  0.00  0.00    +0.040 C 
BRANCH  22  26
ATOM     26  O   UNL     1      34.831 -14.879 -23.538  0.00  0.00    -0.468 OA
ATOM     27  C   UNL     1      33.603 -14.249 -23.176  0.00  0.00    +0.253 C 
ENDBRANCH  22  26
BRANCH  24  28
ATOM     28  O   UNL     1      34.481 -16.307 -25.897  0.00  0.00    -0.503 OA
ATOM     29  H   UNL     1      33.994 -16.721 -26.583  0.00  0.00    +0.292 HD
ENDBRANCH  24  28
ENDBRANCH  18  20
ENDBRANCH  17  19
ENDBRANCH   1  17
TORSDOF 10
ENDMDL
MODEL 8
REMARK VINA RESULT:     -10.2      1.556     10.641
REMARK  Name = 969516
REMARK  10 active torsions:
REMARK  status: ('A' for Active; 'I' for Inactive)
REMARK    1  A    between atoms: C_1  and  C_3
REMARK    2  A    between atoms: C_1  and  C_17
REMARK    3  A    between atoms: C_3  and  C_5
REMARK    4  A    between atoms: C_4  and  C_6
REMARK    5  A    between atoms: C_8  and  O_12
REMARK    6  A    between atoms: C_10  and  O_14
REMARK    7  A    between atoms: C_17  and  C_19
REMARK    8  A    between atoms: C_18  and  C_20
REMARK    9  A    between atoms: C_22  and  O_26
REMARK   10  A    between atoms: C_24  and  O_28
REMARK                            x       y       z     vdW  Elec       q    Type
REMARK                         _______ _______ _______ _____ _____    ______ ____
ROOT
ATOM      1  C   UNL     1      34.519 -22.185 -19.548  0.00  0.00    +0.138 C 
ENDROOT
BRANCH   1   3
ATOM      2  O   UNL     1      36.316 -20.613 -19.217  0.00  0.00    -0.291 OA
ATOM      3  C   UNL     1      35.310 -20.927 -19.848  0.00  0.00    +0.181 C 
BRANCH   3   5
ATOM      4  C   UNL     1      35.636 -19.252 -21.618  0.00  0.00    +0.003 C 
ATOM      5  C   UNL     1      34.817 -20.110 -20.997  0.00  0.00    +0.038 C 
BRANCH   4   6
ATOM      6  C   UNL     1      35.246 -18.394 -22.752  0.00  0.00    +0.003 C 
ATOM      7  C   UNL     1      35.274 -17.016 -22.601  0.00  0.00    +0.040 C 
ATOM      8  C   UNL     1      34.903 -16.205 -23.674  0.00  0.00    +0.172 C 
ATOM      9  C   UNL     1      34.856 -18.982 -23.944  0.00  0.00    +0.003 C 
ATOM     10  C   UNL     1      34.509 -16.782 -24.881  0.00  0.00    +0.168 C 
ATOM     11  C   UNL     1      34.486 -18.170 -25.017  0.00  0.00    +0.040 C 
BRANCH   8  12
ATOM     12  O   UNL     1      34.930 -14.851 -23.530  0.00  0.00    -0.468 OA
ATOM     13  C   UNL     1      33.810 -14.244 -22.888  0.00  0.00    +0.253 C 
ENDBRANCH   8  12
BRANCH  10  14
ATOM     14  O   UNL     1      34.146 -16.000 -25.935  0.00  0.00    -0.503 OA
ATOM     15  H   UNL     1      34.764 -15.408 -26.315  0.00  0.00    +0.292 HD
ENDBRANCH  10  14
ENDBRANCH   4   6
ENDBRANCH   3   5
ENDBRANCH   1   3
BRANCH   1  17
ATOM     16  O   UNL     1      35.502 -22.447 -17.362  0.00  0.00    -0.291 OA
ATOM     17  C   UNL     1      34.537 -22.633 -18.099  0.00  0.00    +0.181 C 
BRANCH  17  19
ATOM     18  C   UNL     1      32.923 -23.163 -16.319  0.00  0.00    +0.003 C 
ATOM     19  C   UNL     1      33.285 -23.278 -17.605  0.00  0.00    +0.038 C 
BRANCH  18  20
ATOM     20  C   UNL     1      31.716 -23.768 -15.731  0.00  0.00    +0.003 C 
ATOM     21  C   UNL     1      30.487 -23.556 -16.334  0.00  0.00    +0.040 C 
ATOM     22  C   UNL     1      29.344 -24.129 -15.776  0.00  0.00    +0.172 C 
ATOM     23  C   UNL     1      31.834 -24.538 -14.584  0.00  0.00    +0.003 C 
ATOM     24  C   UNL     1      29.446 -24.906 -14.623  0.00  0.00    +0.168 C 
ATOM     25  C   UNL     1      30.691 -25.110 -14.026  0.00  0.00    +0.040 C 
BRANCH  22  26
ATOM     26  O   UNL     1      28.135 -23.923 -16.368  0.00  0.00    -0.468 OA
ATOM     27  C   UNL     1      27.965 -22.706 -17.092  0.00  0.00    +0.253 C 
ENDBRANCH  22  26
BRANCH  24  28
ATOM     28  O   UNL     1      28.338 -25.473 -14.069  0.00  0.00    -0.503 OA
ATOM     29  H   UNL     1      27.956 -26.234 -14.461  0.00  0.00    +0.292 HD
ENDBRANCH  24  28
ENDBRANCH  18  20
ENDBRANCH  17  19
ENDBRANCH   1  17
TORSDOF 10
ENDMDL
MODEL 9
REMARK VINA RESULT:     -10.1      2.915      3.959
REMARK  Name = 969516
REMARK  10 active torsions:
REMARK  status: ('A' for Active; 'I' for Inactive)
REMARK    1  A    between atoms: C_1  and  C_3
REMARK    2  A    between atoms: C_1  and  C_17
REMARK    3  A    between atoms: C_3  and  C_5
REMARK    4  A    between atoms: C_4  and  C_6
REMARK    5  A    between atoms: C_8  and  O_12
REMARK    6  A    between atoms: C_10  and  O_14
REMARK    7  A    between atoms: C_17  and  C_19
REMARK    8  A    between atoms: C_18  and  C_20
REMARK    9  A    between atoms: C_22  and  O_26
REMARK   10  A    between atoms: C_24  and  O_28
REMARK                            x       y       z     vdW  Elec       q    Type
REMARK                         _______ _______ _______ _____ _____    ______ ____
ROOT
ATOM      1  C   UNL     1      35.456 -22.123 -19.484  0.00  0.00    +0.138 C 
ENDROOT
BRANCH   1   3
ATOM      2  O   UNL     1      36.842 -20.543 -18.306  0.00  0.00    -0.291 OA
ATOM      3  C   UNL     1      36.173 -21.572 -18.268  0.00  0.00    +0.181 C 
BRANCH   3   5
ATOM      4  C   UNL     1      37.031 -22.843 -16.345  0.00  0.00    +0.003 C 
ATOM      5  C   UNL     1      35.978 -22.336 -17.000  0.00  0.00    +0.038 C 
BRANCH   4   6
ATOM      6  C   UNL     1      36.945 -23.620 -15.095  0.00  0.00    +0.003 C 
ATOM      7  C   UNL     1      38.013 -24.418 -14.717  0.00  0.00    +0.040 C 
ATOM      8  C   UNL     1      37.930 -25.152 -13.534  0.00  0.00    +0.172 C 
ATOM      9  C   UNL     1      35.797 -23.538 -14.324  0.00  0.00    +0.003 C 
ATOM     10  C   UNL     1      36.782 -25.081 -12.747  0.00  0.00    +0.168 C 
ATOM     11  C   UNL     1      35.715 -24.273 -13.141  0.00  0.00    +0.040 C 
BRANCH   8  12
ATOM     12  O   UNL     1      38.979 -25.938 -13.159  0.00  0.00    -0.468 OA
ATOM     13  C   UNL     1      40.129 -25.930 -14.002  0.00  0.00    +0.253 C 
ENDBRANCH   8  12
BRANCH  10  14
ATOM     14  O   UNL     1      36.690 -25.793 -11.590  0.00  0.00    -0.503 OA
ATOM     15  H   UNL     1      36.503 -26.710 -11.617  0.00  0.00    +0.292 HD
ENDBRANCH  10  14
ENDBRANCH   4   6
ENDBRANCH   3   5
ENDBRANCH   1   3
BRANCH   1  17
ATOM     16  O   UNL     1      33.061 -22.279 -19.258  0.00  0.00    -0.291 OA
ATOM     17  C   UNL     1      34.029 -21.644 -19.670  0.00  0.00    +0.181 C 
BRANCH  17  19
ATOM     18  C   UNL     1      34.785 -19.900 -21.231  0.00  0.00    +0.003 C 
ATOM     19  C   UNL     1      33.872 -20.323 -20.346  0.00  0.00    +0.038 C 
BRANCH  18  20
ATOM     20  C   UNL     1      34.728 -18.611 -21.943  0.00  0.00    +0.003 C 
ATOM     21  C   UNL     1      34.680 -17.435 -21.214  0.00  0.00    +0.040 C 
ATOM     22  C   UNL     1      34.624 -16.215 -21.889  0.00  0.00    +0.172 C 
ATOM     23  C   UNL     1      34.722 -18.603 -23.329  0.00  0.00    +0.003 C 
ATOM     24  C   UNL     1      34.617 -16.189 -23.283  0.00  0.00    +0.168 C 
ATOM     25  C   UNL     1      34.666 -17.383 -24.004  0.00  0.00    +0.040 C 
BRANCH  22  26
ATOM     26  O   UNL     1      34.578 -15.056 -21.175  0.00  0.00    -0.468 OA
ATOM     27  C   UNL     1      33.308 -14.660 -20.661  0.00  0.00    +0.253 C 
ENDBRANCH  22  26
BRANCH  24  28
ATOM     28  O   UNL     1      34.566 -15.004 -23.954  0.00  0.00    -0.503 OA
ATOM     29  H   UNL     1      33.963 -14.895 -24.663  0.00  0.00    +0.292 HD
ENDBRANCH  24  28
ENDBRANCH  18  20
ENDBRANCH  17  19
ENDBRANCH   1  17
TORSDOF 10
ENDMDL
