MODEL 1
REMARK VINA RESULT:      -6.5      0.000      0.000
REMARK  Name = 448672
REMARK  3 active torsions:
REMARK  status: ('A' for Active; 'I' for Inactive)
REMARK    1  A    between atoms: C_4  and  C_11
REMARK    2  A    between atoms: C_11  and  N_12
REMARK    3  A    between atoms: N_12  and  C_15
REMARK                            x       y       z     vdW  Elec       q    Type
REMARK                         _______ _______ _______ _____ _____    ______ ____
ROOT
ATOM      1  N   UNL     1      35.136 -21.016 -19.498  0.00  0.00    -0.341 NA
ATOM      2  N   UNL     1      32.884 -20.756 -20.317  0.00  0.00    -0.186 NA
ATOM      3  N   UNL     1      36.889 -19.689 -20.384  0.00  0.00    -0.332 N 
ATOM      4  C   UNL     1      34.653 -19.419 -21.211  0.00  0.00    +0.021 C 
ATOM      5  C   UNL     1      35.521 -20.054 -20.362  0.00  0.00    +0.183 C 
ATOM      6  C   UNL     1      33.338 -19.803 -21.156  0.00  0.00    +0.108 C 
ATOM      7  C   UNL     1      33.822 -21.314 -19.528  0.00  0.00    +0.066 C 
ATOM      8  C   UNL     1      33.357 -22.373 -18.586  0.00  0.00    +0.129 C 
ATOM      9  H   UNL     1      37.528 -20.134 -19.781  0.00  0.00    +0.145 HD
ATOM     10  H   UNL     1      37.202 -18.991 -21.003  0.00  0.00    +0.145 HD
ENDROOT
BRANCH   4  11
ATOM     11  C   UNL     1      35.087 -18.347 -22.173  0.00  0.00    -0.044 C 
BRANCH  11  12
ATOM     12  N   UNL     1      34.327 -17.118 -21.948  0.00  0.00    +0.388 N 
ATOM     13  C   UNL     1      34.371 -16.267 -23.137  0.00  0.00    -0.100 C 
ATOM     14  H   UNL     1      33.355 -17.367 -21.765  0.00  0.00    -0.079 HD
BRANCH  12  15
ATOM     15  C   UNL     1      34.850 -16.399 -20.787  0.00  0.00    -0.077 C 
ATOM     16  C   UNL     1      34.346 -14.966 -20.758  0.00  0.00    -0.025 C 
ENDBRANCH  12  15
ENDBRANCH  11  12
ENDBRANCH   4  11
TORSDOF 3
ENDMDL
MODEL 2
REMARK VINA RESULT:      -6.4      1.631      5.306
REMARK  Name = 448672
REMARK  3 active torsions:
REMARK  status: ('A' for Active; 'I' for Inactive)
REMARK    1  A    between atoms: C_4  and  C_11
REMARK    2  A    between atoms: C_11  and  N_12
REMARK    3  A    between atoms: N_12  and  C_15
REMARK                            x       y       z     vdW  Elec       q    Type
REMARK                         _______ _______ _______ _____ _____    ______ ____
ROOT
ATOM      1  N   UNL     1      34.422 -15.573 -23.470  0.00  0.00    -0.341 NA
ATOM      2  N   UNL     1      34.290 -15.138 -21.103  0.00  0.00    -0.186 NA
ATOM      3  N   UNL     1      35.382 -17.592 -24.262  0.00  0.00    -0.332 N 
ATOM      4  C   UNL     1      35.259 -17.173 -21.902  0.00  0.00    +0.021 C 
ATOM      5  C   UNL     1      35.010 -16.753 -23.182  0.00  0.00    +0.183 C 
ATOM      6  C   UNL     1      34.882 -16.331 -20.888  0.00  0.00    +0.108 C 
ATOM      7  C   UNL     1      34.093 -14.826 -22.398  0.00  0.00    +0.066 C 
ATOM      8  C   UNL     1      33.441 -13.514 -22.676  0.00  0.00    +0.129 C 
ATOM      9  H   UNL     1      35.211 -17.307 -25.188  0.00  0.00    +0.145 HD
ATOM     10  H   UNL     1      35.813 -18.459 -24.085  0.00  0.00    +0.145 HD
ENDROOT
BRANCH   4  11
ATOM     11  C   UNL     1      35.915 -18.489 -21.586  0.00  0.00    -0.044 C 
BRANCH  11  12
ATOM     12  N   UNL     1      35.090 -19.264 -20.659  0.00  0.00    +0.388 N 
ATOM     13  C   UNL     1      35.810 -20.456 -20.210  0.00  0.00    -0.100 C 
ATOM     14  H   UNL     1      34.886 -18.684 -19.846  0.00  0.00    -0.079 HD
BRANCH  12  15
ATOM     15  C   UNL     1      33.826 -19.640 -21.292  0.00  0.00    -0.077 C 
ATOM     16  C   UNL     1      32.910 -20.345 -20.306  0.00  0.00    -0.025 C 
ENDBRANCH  12  15
ENDBRANCH  11  12
ENDBRANCH   4  11
TORSDOF 3
ENDMDL
MODEL 3
REMARK VINA RESULT:      -6.3      2.078      3.375
REMARK  Name = 448672
REMARK  3 active torsions:
REMARK  status: ('A' for Active; 'I' for Inactive)
REMARK    1  A    between atoms: C_4  and  C_11
REMARK    2  A    between atoms: C_11  and  N_12
REMARK    3  A    between atoms: N_12  and  C_15
REMARK                            x       y       z     vdW  Elec       q    Type
REMARK                         _______ _______ _______ _____ _____    ______ ____
ROOT
ATOM      1  N   UNL     1      34.778 -19.430 -22.674  0.00  0.00    -0.341 NA
ATOM      2  N   UNL     1      35.216 -18.014 -20.774  0.00  0.00    -0.186 NA
ATOM      3  N   UNL     1      34.539 -18.487 -24.836  0.00  0.00    -0.332 N 
ATOM      4  C   UNL     1      34.974 -17.063 -22.955  0.00  0.00    +0.021 C 
ATOM      5  C   UNL     1      34.770 -18.325 -23.448  0.00  0.00    +0.183 C 
ATOM      6  C   UNL     1      35.194 -16.953 -21.606  0.00  0.00    +0.108 C 
ATOM      7  C   UNL     1      35.003 -19.205 -21.365  0.00  0.00    +0.066 C 
ATOM      8  C   UNL     1      35.020 -20.402 -20.476  0.00  0.00    +0.129 C 
ATOM      9  H   UNL     1      34.391 -19.386 -25.209  0.00  0.00    +0.145 HD
ATOM     10  H   UNL     1      34.527 -17.701 -25.428  0.00  0.00    +0.145 HD
ENDROOT
BRANCH   4  11
ATOM     11  C   UNL     1      34.963 -15.834 -23.822  0.00  0.00    -0.044 C 
BRANCH  11  12
ATOM     12  N   UNL     1      33.608 -15.295 -23.930  0.00  0.00    +0.388 N 
ATOM     13  C   UNL     1      33.276 -15.027 -25.329  0.00  0.00    -0.100 C 
ATOM     14  H   UNL     1      32.953 -15.989 -23.570  0.00  0.00    -0.079 HD
BRANCH  12  15
ATOM     15  C   UNL     1      33.478 -14.076 -23.132  0.00  0.00    -0.077 C 
ATOM     16  C   UNL     1      32.526 -14.283 -21.967  0.00  0.00    -0.025 C 
ENDBRANCH  12  15
ENDBRANCH  11  12
ENDBRANCH   4  11
TORSDOF 3
ENDMDL
MODEL 4
REMARK VINA RESULT:      -6.3      1.218      1.831
REMARK  Name = 448672
REMARK  3 active torsions:
REMARK  status: ('A' for Active; 'I' for Inactive)
REMARK    1  A    between atoms: C_4  and  C_11
REMARK    2  A    between atoms: C_11  and  N_12
REMARK    3  A    between atoms: N_12  and  C_15
REMARK                            x       y       z     vdW  Elec       q    Type
REMARK                         _______ _______ _______ _____ _____    ______ ____
ROOT
ATOM      1  N   UNL     1      35.148 -21.207 -19.485  0.00  0.00    -0.341 NA
ATOM      2  N   UNL     1      32.884 -20.737 -20.162  0.00  0.00    -0.186 NA
ATOM      3  N   UNL     1      36.930 -19.842 -20.248  0.00  0.00    -0.332 N 
ATOM      4  C   UNL     1      34.682 -19.362 -20.932  0.00  0.00    +0.021 C 
ATOM      5  C   UNL     1      35.547 -20.148 -20.219  0.00  0.00    +0.183 C 
ATOM      6  C   UNL     1      33.352 -19.693 -20.876  0.00  0.00    +0.108 C 
ATOM      7  C   UNL     1      33.821 -21.442 -19.501  0.00  0.00    +0.066 C 
ATOM      8  C   UNL     1      33.341 -22.604 -18.700  0.00  0.00    +0.129 C 
ATOM      9  H   UNL     1      37.568 -20.396 -19.741  0.00  0.00    +0.145 HD
ATOM     10  H   UNL     1      37.254 -19.076 -20.774  0.00  0.00    +0.145 HD
ENDROOT
BRANCH   4  11
ATOM     11  C   UNL     1      35.131 -18.182 -21.750  0.00  0.00    -0.044 C 
BRANCH  11  12
ATOM     12  N   UNL     1      34.434 -18.154 -23.035  0.00  0.00    +0.388 N 
ATOM     13  C   UNL     1      35.002 -19.147 -23.946  0.00  0.00    -0.100 C 
ATOM     14  H   UNL     1      33.453 -18.385 -22.876  0.00  0.00    -0.079 HD
BRANCH  12  15
ATOM     15  C   UNL     1      34.506 -16.818 -23.627  0.00  0.00    -0.077 C 
ATOM     16  C   UNL     1      34.597 -16.894 -25.141  0.00  0.00    -0.025 C 
ENDBRANCH  12  15
ENDBRANCH  11  12
ENDBRANCH   4  11
TORSDOF 3
ENDMDL
MODEL 5
REMARK VINA RESULT:      -6.2      1.621      5.294
REMARK  Name = 448672
REMARK  3 active torsions:
REMARK  status: ('A' for Active; 'I' for Inactive)
REMARK    1  A    between atoms: C_4  and  C_11
REMARK    2  A    between atoms: C_11  and  N_12
REMARK    3  A    between atoms: N_12  and  C_15
REMARK                            x       y       z     vdW  Elec       q    Type
REMARK                         _______ _______ _______ _____ _____    ______ ____
ROOT
ATOM      1  N   UNL     1      34.242 -15.838 -23.269  0.00  0.00    -0.341 NA
ATOM      2  N   UNL     1      34.768 -17.676 -24.736  0.00  0.00    -0.186 NA
ATOM      3  N   UNL     1      34.768 -15.965 -20.960  0.00  0.00    -0.332 N 
ATOM      4  C   UNL     1      35.298 -17.803 -22.407  0.00  0.00    +0.021 C 
ATOM      5  C   UNL     1      34.768 -16.550 -22.250  0.00  0.00    +0.183 C 
ATOM      6  C   UNL     1      35.277 -18.331 -23.673  0.00  0.00    +0.108 C 
ATOM      7  C   UNL     1      34.273 -16.453 -24.467  0.00  0.00    +0.066 C 
ATOM      8  C   UNL     1      33.701 -15.697 -25.618  0.00  0.00    +0.129 C 
ATOM      9  H   UNL     1      34.392 -15.065 -20.828  0.00  0.00    +0.145 HD
ATOM     10  H   UNL     1      35.145 -16.458 -20.196  0.00  0.00    +0.145 HD
ENDROOT
BRANCH   4  11
ATOM     11  C   UNL     1      35.882 -18.594 -21.269  0.00  0.00    -0.044 C 
BRANCH  11  12
ATOM     12  N   UNL     1      35.250 -19.910 -21.180  0.00  0.00    +0.388 N 
ATOM     13  C   UNL     1      33.853 -19.778 -20.767  0.00  0.00    -0.100 C 
ATOM     14  H   UNL     1      35.275 -20.343 -22.103  0.00  0.00    -0.079 HD
BRANCH  12  15
ATOM     15  C   UNL     1      35.980 -20.766 -20.246  0.00  0.00    -0.077 C 
ATOM     16  C   UNL     1      35.026 -21.596 -19.404  0.00  0.00    -0.025 C 
ENDBRANCH  12  15
ENDBRANCH  11  12
ENDBRANCH   4  11
TORSDOF 3
ENDMDL
MODEL 6
REMARK VINA RESULT:      -6.2      2.228      3.660
REMARK  Name = 448672
REMARK  3 active torsions:
REMARK  status: ('A' for Active; 'I' for Inactive)
REMARK    1  A    between atoms: C_4  and  C_11
REMARK    2  A    between atoms: C_11  and  N_12
REMARK    3  A    between atoms: N_12  and  C_15
REMARK                            x       y       z     vdW  Elec       q    Type
REMARK                         _______ _______ _______ _____ _____    ______ ____
ROOT
ATOM      1  N   UNL     1      35.000 -17.774 -20.732  0.00  0.00    -0.341 NA
ATOM      2  N   UNL     1      35.238 -18.900 -22.849  0.00  0.00    -0.186 NA
ATOM      3  N   UNL     1      34.658 -15.429 -20.658  0.00  0.00    -0.332 N 
ATOM      4  C   UNL     1      34.894 -16.534 -22.774  0.00  0.00    +0.021 C 
ATOM      5  C   UNL     1      34.857 -16.614 -21.407  0.00  0.00    +0.183 C 
ATOM      6  C   UNL     1      35.088 -17.706 -23.459  0.00  0.00    +0.108 C 
ATOM      7  C   UNL     1      35.185 -18.862 -21.504  0.00  0.00    +0.066 C 
ATOM      8  C   UNL     1      35.347 -20.163 -20.794  0.00  0.00    +0.129 C 
ATOM      9  H   UNL     1      34.629 -15.466 -19.675  0.00  0.00    +0.145 HD
ATOM     10  H   UNL     1      34.550 -14.567 -21.121  0.00  0.00    +0.145 HD
ENDROOT
BRANCH   4  11
ATOM     11  C   UNL     1      34.735 -15.240 -23.523  0.00  0.00    -0.044 C 
BRANCH  11  12
ATOM     12  N   UNL     1      33.361 -15.091 -24.004  0.00  0.00    +0.388 N 
ATOM     13  C   UNL     1      33.331 -15.089 -25.467  0.00  0.00    -0.100 C 
ATOM     14  H   UNL     1      32.815 -15.885 -23.672  0.00  0.00    -0.079 HD
BRANCH  12  15
ATOM     15  C   UNL     1      32.765 -13.864 -23.479  0.00  0.00    -0.077 C 
ATOM     16  C   UNL     1      33.685 -12.674 -23.692  0.00  0.00    -0.025 C 
ENDBRANCH  12  15
ENDBRANCH  11  12
ENDBRANCH   4  11
TORSDOF 3
ENDMDL
MODEL 7
REMARK VINA RESULT:      -6.2      2.936      6.403
REMARK  Name = 448672
REMARK  3 active torsions:
REMARK  status: ('A' for Active; 'I' for Inactive)
REMARK    1  A    between atoms: C_4  and  C_11
REMARK    2  A    between atoms: C_11  and  N_12
REMARK    3  A    between atoms: N_12  and  C_15
REMARK                            x       y       z     vdW  Elec       q    Type
REMARK                         _______ _______ _______ _____ _____    ______ ____
ROOT
ATOM      1  N   UNL     1      33.630 -15.804 -26.155  0.00  0.00    -0.341 NA
ATOM      2  N   UNL     1      33.458 -13.834 -24.778  0.00  0.00    -0.186 NA
ATOM      3  N   UNL     1      34.644 -17.771 -25.304  0.00  0.00    -0.332 N 
ATOM      4  C   UNL     1      34.481 -15.817 -23.921  0.00  0.00    +0.021 C 
ATOM      5  C   UNL     1      34.239 -16.425 -25.124  0.00  0.00    +0.183 C 
ATOM      6  C   UNL     1      34.072 -14.515 -23.790  0.00  0.00    +0.108 C 
ATOM      7  C   UNL     1      33.271 -14.527 -25.917  0.00  0.00    +0.066 C 
ATOM      8  C   UNL     1      32.593 -13.806 -27.033  0.00  0.00    +0.129 C 
ATOM      9  H   UNL     1      34.479 -18.224 -26.163  0.00  0.00    +0.145 HD
ATOM     10  H   UNL     1      35.091 -18.252 -24.571  0.00  0.00    +0.145 HD
ENDROOT
BRANCH   4  11
ATOM     11  C   UNL     1      35.162 -16.514 -22.774  0.00  0.00    -0.044 C 
BRANCH  11  12
ATOM     12  N   UNL     1      34.223 -16.725 -21.673  0.00  0.00    +0.388 N 
ATOM     13  C   UNL     1      34.589 -15.894 -20.525  0.00  0.00    -0.100 C 
ATOM     14  H   UNL     1      33.291 -16.453 -21.985  0.00  0.00    -0.079 HD
BRANCH  12  15
ATOM     15  C   UNL     1      34.191 -18.137 -21.291  0.00  0.00    -0.077 C 
ATOM     16  C   UNL     1      35.369 -18.891 -21.885  0.00  0.00    -0.025 C 
ENDBRANCH  12  15
ENDBRANCH  11  12
ENDBRANCH   4  11
TORSDOF 3
ENDMDL
MODEL 8
REMARK VINA RESULT:      -6.1      7.406      9.325
REMARK  Name = 448672
REMARK  3 active torsions:
REMARK  status: ('A' for Active; 'I' for Inactive)
REMARK    1  A    between atoms: C_4  and  C_11
REMARK    2  A    between atoms: C_11  and  N_12
REMARK    3  A    between atoms: N_12  and  C_15
REMARK                            x       y       z     vdW  Elec       q    Type
REMARK                         _______ _______ _______ _____ _____    ______ ____
ROOT
ATOM      1  N   UNL     1      38.308 -26.556 -14.645  0.00  0.00    -0.341 NA
ATOM      2  N   UNL     1      38.878 -24.215 -14.711  0.00  0.00    -0.186 NA
ATOM      3  N   UNL     1      36.066 -27.249 -14.982  0.00  0.00    -0.332 N 
ATOM      4  C   UNL     1      36.617 -24.914 -15.050  0.00  0.00    +0.021 C 
ATOM      5  C   UNL     1      37.027 -26.212 -14.889  0.00  0.00    +0.183 C 
ATOM      6  C   UNL     1      37.579 -23.943 -14.952  0.00  0.00    +0.108 C 
ATOM      7  C   UNL     1      39.169 -25.522 -14.569  0.00  0.00    +0.066 C 
ATOM      8  C   UNL     1      40.596 -25.862 -14.301  0.00  0.00    +0.129 C 
ATOM      9  H   UNL     1      36.342 -28.187 -14.869  0.00  0.00    +0.145 HD
ATOM     10  H   UNL     1      35.123 -27.031 -15.159  0.00  0.00    +0.145 HD
ENDROOT
BRANCH   4  11
ATOM     11  C   UNL     1      35.187 -24.536 -15.321  0.00  0.00    -0.044 C 
BRANCH  11  12
ATOM     12  N   UNL     1      34.705 -23.595 -14.309  0.00  0.00    +0.388 N 
ATOM     13  C   UNL     1      34.661 -24.237 -12.996  0.00  0.00    -0.100 C 
ATOM     14  H   UNL     1      35.353 -22.809 -14.263  0.00  0.00    -0.079 HD
BRANCH  12  15
ATOM     15  C   UNL     1      33.383 -23.086 -14.673  0.00  0.00    -0.077 C 
ATOM     16  C   UNL     1      33.068 -23.373 -16.131  0.00  0.00    -0.025 C 
ENDBRANCH  12  15
ENDBRANCH  11  12
ENDBRANCH   4  11
TORSDOF 3
ENDMDL
MODEL 9
REMARK VINA RESULT:      -6.0      1.616      2.167
REMARK  Name = 448672
REMARK  3 active torsions:
REMARK  status: ('A' for Active; 'I' for Inactive)
REMARK    1  A    between atoms: C_4  and  C_11
REMARK    2  A    between atoms: C_11  and  N_12
REMARK    3  A    between atoms: N_12  and  C_15
REMARK                            x       y       z     vdW  Elec       q    Type
REMARK                         _______ _______ _______ _____ _____    ______ ____
ROOT
ATOM      1  N   UNL     1      35.039 -22.314 -18.678  0.00  0.00    -0.341 NA
ATOM      2  N   UNL     1      32.678 -21.857 -18.836  0.00  0.00    -0.186 NA
ATOM      3  N   UNL     1      36.563 -21.240 -20.142  0.00  0.00    -0.332 N 
ATOM      4  C   UNL     1      34.216 -20.775 -20.313  0.00  0.00    +0.021 C 
ATOM      5  C   UNL     1      35.235 -21.451 -19.697  0.00  0.00    +0.183 C 
ATOM      6  C   UNL     1      32.947 -21.009 -19.850  0.00  0.00    +0.108 C 
ATOM      7  C   UNL     1      33.753 -22.468 -18.305  0.00  0.00    +0.066 C 
ATOM      8  C   UNL     1      33.495 -23.414 -17.181  0.00  0.00    +0.129 C 
ATOM      9  H   UNL     1      37.309 -21.717 -19.712  0.00  0.00    +0.145 HD
ATOM     10  H   UNL     1      36.740 -20.617 -20.883  0.00  0.00    +0.145 HD
ENDROOT
BRANCH   4  11
ATOM     11  C   UNL     1      34.440 -19.814 -21.449  0.00  0.00    -0.044 C 
BRANCH  11  12
ATOM     12  N   UNL     1      34.910 -18.524 -20.944  0.00  0.00    +0.388 N 
ATOM     13  C   UNL     1      33.822 -17.546 -20.952  0.00  0.00    -0.100 C 
ATOM     14  H   UNL     1      35.225 -18.649 -19.982  0.00  0.00    -0.079 HD
BRANCH  12  15
ATOM     15  C   UNL     1      36.036 -18.042 -21.743  0.00  0.00    -0.077 C 
ATOM     16  C   UNL     1      35.852 -18.385 -23.211  0.00  0.00    -0.025 C 
ENDBRANCH  12  15
ENDBRANCH  11  12
ENDBRANCH   4  11
TORSDOF 3
ENDMDL
