MODEL 1
REMARK VINA RESULT:      -5.2      0.000      0.000
REMARK  Name = 5287974
REMARK  3 active torsions:
REMARK  status: ('A' for Active; 'I' for Inactive)
REMARK    1  A    between atoms: C_1  and  C_2
REMARK    2  A    between atoms: C_1  and  C_5
REMARK    3  A    between atoms: C_5  and  C_8
REMARK                            x       y       z     vdW  Elec       q    Type
REMARK                         _______ _______ _______ _____ _____    ______ ____
ROOT
ATOM      1  C   UNL     1      34.703 -19.264 -22.953  0.00  0.00    +0.008 C 
ENDROOT
BRANCH   1   2
ATOM      2  C   UNL     1      34.429 -19.065 -21.493  0.00  0.00    +0.000 C 
ATOM      3  C   UNL     1      33.252 -19.751 -20.884  0.00  0.00    +0.000 C 
ATOM      4  C   UNL     1      34.643 -20.210 -20.559  0.00  0.00    +0.000 C 
ENDBRANCH   1   2
BRANCH   1   5
ATOM      5  C   UNL     1      35.256 -18.009 -23.642  0.00  0.00    +0.065 C 
ATOM      6  C   UNL     1      35.169 -16.768 -22.758  0.00  0.00    +0.008 C 
BRANCH   5   8
ATOM      7  O   UNL     1      34.803 -16.979 -25.804  0.00  0.00    -0.288 OA
ATOM      8  C   UNL     1      34.503 -17.803 -24.945  0.00  0.00    +0.207 C 
ENDBRANCH   5   8
ENDBRANCH   1   5
TORSDOF 3
ENDMDL
MODEL 2
REMARK VINA RESULT:      -5.0      2.433      4.147
REMARK  Name = 5287974
REMARK  3 active torsions:
REMARK  status: ('A' for Active; 'I' for Inactive)
REMARK    1  A    between atoms: C_1  and  C_2
REMARK    2  A    between atoms: C_1  and  C_5
REMARK    3  A    between atoms: C_5  and  C_8
REMARK                            x       y       z     vdW  Elec       q    Type
REMARK                         _______ _______ _______ _____ _____    ______ ____
ROOT
ATOM      1  C   UNL     1      34.706 -18.358 -21.945  0.00  0.00    +0.008 C 
ENDROOT
BRANCH   1   2
ATOM      2  C   UNL     1      35.360 -18.366 -23.293  0.00  0.00    +0.000 C 
ATOM      3  C   UNL     1      34.668 -19.054 -24.423  0.00  0.00    +0.000 C 
ATOM      4  C   UNL     1      34.753 -17.556 -24.390  0.00  0.00    +0.000 C 
ENDBRANCH   1   2
BRANCH   1   5
ATOM      5  C   UNL     1      34.364 -19.763 -21.429  0.00  0.00    +0.065 C 
ATOM      6  C   UNL     1      33.027 -19.809 -20.694  0.00  0.00    +0.008 C 
BRANCH   5   8
ATOM      7  O   UNL     1      36.425 -19.533 -20.148  0.00  0.00    -0.288 OA
ATOM      8  C   UNL     1      35.495 -20.236 -20.533  0.00  0.00    +0.207 C 
ENDBRANCH   5   8
ENDBRANCH   1   5
TORSDOF 3
ENDMDL
MODEL 3
REMARK VINA RESULT:      -4.9      2.300      2.832
REMARK  Name = 5287974
REMARK  3 active torsions:
REMARK  status: ('A' for Active; 'I' for Inactive)
REMARK    1  A    between atoms: C_1  and  C_2
REMARK    2  A    between atoms: C_1  and  C_5
REMARK    3  A    between atoms: C_5  and  C_8
REMARK                            x       y       z     vdW  Elec       q    Type
REMARK                         _______ _______ _______ _____ _____    ______ ____
ROOT
ATOM      1  C   UNL     1      34.869 -18.644 -21.043  0.00  0.00    +0.008 C 
ENDROOT
BRANCH   1   2
ATOM      2  C   UNL     1      34.007 -19.861 -21.195  0.00  0.00    +0.000 C 
ATOM      3  C   UNL     1      33.856 -20.785 -20.033  0.00  0.00    +0.000 C 
ATOM      4  C   UNL     1      32.709 -19.918 -20.461  0.00  0.00    +0.000 C 
ENDBRANCH   1   2
BRANCH   1   5
ATOM      5  C   UNL     1      34.493 -17.511 -22.007  0.00  0.00    +0.065 C 
ATOM      6  C   UNL     1      35.188 -17.637 -23.360  0.00  0.00    +0.008 C 
BRANCH   5   8
ATOM      7  O   UNL     1      35.062 -16.038 -20.151  0.00  0.00    -0.288 OA
ATOM      8  C   UNL     1      34.825 -16.185 -21.346  0.00  0.00    +0.207 C 
ENDBRANCH   5   8
ENDBRANCH   1   5
TORSDOF 3
ENDMDL
MODEL 4
REMARK VINA RESULT:      -4.9      2.693      4.270
REMARK  Name = 5287974
REMARK  3 active torsions:
REMARK  status: ('A' for Active; 'I' for Inactive)
REMARK    1  A    between atoms: C_1  and  C_2
REMARK    2  A    between atoms: C_1  and  C_5
REMARK    3  A    between atoms: C_5  and  C_8
REMARK                            x       y       z     vdW  Elec       q    Type
REMARK                         _______ _______ _______ _____ _____    ______ ____
ROOT
ATOM      1  C   UNL     1      34.481 -19.404 -22.547  0.00  0.00    +0.008 C 
ENDROOT
BRANCH   1   2
ATOM      2  C   UNL     1      35.422 -18.339 -23.020  0.00  0.00    +0.000 C 
ATOM      3  C   UNL     1      34.918 -17.308 -23.975  0.00  0.00    +0.000 C 
ATOM      4  C   UNL     1      35.212 -16.937 -22.551  0.00  0.00    +0.000 C 
ENDBRANCH   1   2
BRANCH   1   5
ATOM      5  C   UNL     1      34.353 -19.465 -21.018  0.00  0.00    +0.065 C 
ATOM      6  C   UNL     1      35.372 -20.407 -20.381  0.00  0.00    +0.008 C 
BRANCH   5   8
ATOM      7  O   UNL     1      32.635 -20.656 -19.766  0.00  0.00    -0.288 OA
ATOM      8  C   UNL     1      32.935 -19.880 -20.668  0.00  0.00    +0.207 C 
ENDBRANCH   5   8
ENDBRANCH   1   5
TORSDOF 3
ENDMDL
MODEL 5
REMARK VINA RESULT:      -4.8      3.811      5.488
REMARK  Name = 5287974
REMARK  3 active torsions:
REMARK  status: ('A' for Active; 'I' for Inactive)
REMARK    1  A    between atoms: C_1  and  C_2
REMARK    2  A    between atoms: C_1  and  C_5
REMARK    3  A    between atoms: C_5  and  C_8
REMARK                            x       y       z     vdW  Elec       q    Type
REMARK                         _______ _______ _______ _____ _____    ______ ____
ROOT
ATOM      1  C   UNL     1      35.545 -20.277 -20.461  0.00  0.00    +0.008 C 
ENDROOT
BRANCH   1   2
ATOM      2  C   UNL     1      34.454 -19.648 -21.272  0.00  0.00    +0.000 C 
ATOM      3  C   UNL     1      34.582 -18.212 -21.658  0.00  0.00    +0.000 C 
ATOM      4  C   UNL     1      34.733 -19.287 -22.694  0.00  0.00    +0.000 C 
ENDBRANCH   1   2
BRANCH   1   5
ATOM      5  C   UNL     1      35.110 -21.571 -19.759  0.00  0.00    +0.065 C 
ATOM      6  C   UNL     1      33.629 -21.567 -19.389  0.00  0.00    +0.008 C 
BRANCH   5   8
ATOM      7  O   UNL     1      35.696 -22.497 -17.583  0.00  0.00    -0.288 OA
ATOM      8  C   UNL     1      35.978 -21.769 -18.530  0.00  0.00    +0.207 C 
ENDBRANCH   5   8
ENDBRANCH   1   5
TORSDOF 3
ENDMDL
MODEL 6
REMARK VINA RESULT:      -4.7      1.589      2.107
REMARK  Name = 5287974
REMARK  3 active torsions:
REMARK  status: ('A' for Active; 'I' for Inactive)
REMARK    1  A    between atoms: C_1  and  C_2
REMARK    2  A    between atoms: C_1  and  C_5
REMARK    3  A    between atoms: C_5  and  C_8
REMARK                            x       y       z     vdW  Elec       q    Type
REMARK                         _______ _______ _______ _____ _____    ______ ____
ROOT
ATOM      1  C   UNL     1      34.099 -18.302 -21.276  0.00  0.00    +0.008 C 
ENDROOT
BRANCH   1   2
ATOM      2  C   UNL     1      34.775 -19.634 -21.394  0.00  0.00    +0.000 C 
ATOM      3  C   UNL     1      35.994 -19.896 -20.574  0.00  0.00    +0.000 C 
ATOM      4  C   UNL     1      34.701 -20.581 -20.242  0.00  0.00    +0.000 C 
ENDBRANCH   1   2
BRANCH   1   5
ATOM      5  C   UNL     1      35.048 -17.118 -21.506  0.00  0.00    +0.065 C 
ATOM      6  C   UNL     1      34.646 -15.880 -20.709  0.00  0.00    +0.008 C 
BRANCH   5   8
ATOM      7  O   UNL     1      35.336 -15.717 -23.479  0.00  0.00    -0.288 OA
ATOM      8  C   UNL     1      35.092 -16.818 -22.994  0.00  0.00    +0.207 C 
ENDBRANCH   5   8
ENDBRANCH   1   5
TORSDOF 3
ENDMDL
MODEL 7
REMARK VINA RESULT:      -4.7      2.718      3.894
REMARK  Name = 5287974
REMARK  3 active torsions:
REMARK  status: ('A' for Active; 'I' for Inactive)
REMARK    1  A    between atoms: C_1  and  C_2
REMARK    2  A    between atoms: C_1  and  C_5
REMARK    3  A    between atoms: C_5  and  C_8
REMARK                            x       y       z     vdW  Elec       q    Type
REMARK                         _______ _______ _______ _____ _____    ______ ____
ROOT
ATOM      1  C   UNL     1      35.073 -16.667 -22.452  0.00  0.00    +0.008 C 
ENDROOT
BRANCH   1   2
ATOM      2  C   UNL     1      34.544 -16.323 -21.094  0.00  0.00    +0.000 C 
ATOM      3  C   UNL     1      34.430 -14.885 -20.710  0.00  0.00    +0.000 C 
ATOM      4  C   UNL     1      33.196 -15.692 -20.987  0.00  0.00    +0.000 C 
ENDBRANCH   1   2
BRANCH   1   5
ATOM      5  C   UNL     1      35.672 -18.079 -22.530  0.00  0.00    +0.065 C 
ATOM      6  C   UNL     1      35.025 -18.932 -23.618  0.00  0.00    +0.008 C 
BRANCH   5   8
ATOM      7  O   UNL     1      36.466 -19.196 -20.514  0.00  0.00    -0.288 OA
ATOM      8  C   UNL     1      35.534 -18.737 -21.168  0.00  0.00    +0.207 C 
ENDBRANCH   5   8
ENDBRANCH   1   5
TORSDOF 3
ENDMDL
MODEL 8
REMARK VINA RESULT:      -4.7      8.725     10.240
REMARK  Name = 5287974
REMARK  3 active torsions:
REMARK  status: ('A' for Active; 'I' for Inactive)
REMARK    1  A    between atoms: C_1  and  C_2
REMARK    2  A    between atoms: C_1  and  C_5
REMARK    3  A    between atoms: C_5  and  C_8
REMARK                            x       y       z     vdW  Elec       q    Type
REMARK                         _______ _______ _______ _____ _____    ______ ____
ROOT
ATOM      1  C   UNL     1      30.271 -22.849 -15.301  0.00  0.00    +0.008 C 
ENDROOT
BRANCH   1   2
ATOM      2  C   UNL     1      31.443 -23.713 -15.653  0.00  0.00    +0.000 C 
ATOM      3  C   UNL     1      32.379 -23.255 -16.721  0.00  0.00    +0.000 C 
ATOM      4  C   UNL     1      32.814 -23.249 -15.285  0.00  0.00    +0.000 C 
ENDBRANCH   1   2
BRANCH   1   5
ATOM      5  C   UNL     1      28.924 -23.576 -15.422  0.00  0.00    +0.065 C 
ATOM      6  C   UNL     1      29.006 -25.037 -14.989  0.00  0.00    +0.008 C 
BRANCH   5   8
ATOM      7  O   UNL     1      27.783 -24.312 -17.445  0.00  0.00    -0.288 OA
ATOM      8  C   UNL     1      28.440 -23.459 -16.856  0.00  0.00    +0.207 C 
ENDBRANCH   5   8
ENDBRANCH   1   5
TORSDOF 3
ENDMDL
MODEL 9
REMARK VINA RESULT:      -4.7      2.023      2.807
REMARK  Name = 5287974
REMARK  3 active torsions:
REMARK  status: ('A' for Active; 'I' for Inactive)
REMARK    1  A    between atoms: C_1  and  C_2
REMARK    2  A    between atoms: C_1  and  C_5
REMARK    3  A    between atoms: C_5  and  C_8
REMARK                            x       y       z     vdW  Elec       q    Type
REMARK                         _______ _______ _______ _____ _____    ______ ____
ROOT
ATOM      1  C   UNL     1      35.371 -17.023 -22.313  0.00  0.00    +0.008 C 
ENDROOT
BRANCH   1   2
ATOM      2  C   UNL     1      34.512 -16.711 -21.126  0.00  0.00    +0.000 C 
ATOM      3  C   UNL     1      34.553 -15.334 -20.551  0.00  0.00    +0.000 C 
ATOM      4  C   UNL     1      33.343 -15.800 -21.305  0.00  0.00    +0.000 C 
ENDBRANCH   1   2
BRANCH   1   5
ATOM      5  C   UNL     1      34.577 -17.568 -23.509  0.00  0.00    +0.065 C 
ATOM      6  C   UNL     1      34.995 -18.985 -23.893  0.00  0.00    +0.008 C 
BRANCH   5   8
ATOM      7  O   UNL     1      34.792 -16.952 -25.857  0.00  0.00    -0.288 OA
ATOM      8  C   UNL     1      34.749 -16.614 -24.678  0.00  0.00    +0.207 C 
ENDBRANCH   5   8
ENDBRANCH   1   5
TORSDOF 3
ENDMDL
