MODEL 1
REMARK VINA RESULT:      -8.6      0.000      0.000
REMARK  Name = 6842999
REMARK  4 active torsions:
REMARK  status: ('A' for Active; 'I' for Inactive)
REMARK    1  A    between atoms: N_1  and  C_2
REMARK    2  A    between atoms: N_1  and  N_6
REMARK    3  A    between atoms: C_2  and  C_13
REMARK    4  A    between atoms: C_16  and  N_19
REMARK                            x       y       z     vdW  Elec       q    Type
REMARK                         _______ _______ _______ _____ _____    ______ ____
ROOT
ATOM      1  N   UNL     1      36.628 -22.807 -15.316  0.00  0.00    -0.139 NA
ENDROOT
BRANCH   1   5
ATOM      2  S   UNL     1      37.081 -24.947 -12.127  0.00  0.00    -0.007 S 
ATOM      3  O   UNL     1      36.914 -26.387 -12.124  0.00  0.00    -0.173 OA
ATOM      4  O   UNL     1      37.431 -24.235 -10.914  0.00  0.00    -0.173 OA
ATOM      5  N   UNL     1      36.521 -24.136 -15.099  0.00  0.00    -0.201 NA
ATOM      6  C   UNL     1      35.394 -24.585 -14.259  0.00  0.00    +0.098 C 
ATOM      7  C   UNL     1      35.593 -24.216 -12.786  0.00  0.00    +0.168 C 
ATOM      8  C   UNL     1      38.281 -24.529 -13.375  0.00  0.00    +0.170 C 
ATOM      9  C   UNL     1      37.766 -24.847 -14.774  0.00  0.00    +0.115 C 
ATOM     10  C   UNL     1      34.064 -24.032 -14.777  0.00  0.00    +0.021 C 
ENDBRANCH   1   5
BRANCH   1  11
ATOM     11  C   UNL     1      37.196 -22.510 -16.440  0.00  0.00    +0.172 C 
BRANCH  11  13
ATOM     12  O   UNL     1      35.128 -22.417 -17.623  0.00  0.00    -0.436 OA
ATOM     13  C   UNL     1      36.421 -22.085 -17.619  0.00  0.00    +0.144 C 
ATOM     14  C   UNL     1      36.815 -21.405 -18.708  0.00  0.00    +0.040 C 
ATOM     15  C   UNL     1      35.645 -21.289 -19.497  0.00  0.00    +0.066 C 
ATOM     16  C   UNL     1      34.647 -21.921 -18.793  0.00  0.00    +0.289 C 
BRANCH  16  19
ATOM     17  O   UNL     1      32.759 -21.740 -20.104  0.00  0.00    -0.123 OA
ATOM     18  O   UNL     1      32.591 -22.759 -18.167  0.00  0.00    -0.123 OA
ATOM     19  N   UNL     1      33.289 -22.147 -19.029  0.00  0.00    +0.093 N 
ENDBRANCH  16  19
ENDBRANCH  11  13
ENDBRANCH   1  11
TORSDOF 4
ENDMDL
MODEL 2
REMARK VINA RESULT:      -8.5      4.350      7.599
REMARK  Name = 6842999
REMARK  4 active torsions:
REMARK  status: ('A' for Active; 'I' for Inactive)
REMARK    1  A    between atoms: N_1  and  C_2
REMARK    2  A    between atoms: N_1  and  N_6
REMARK    3  A    between atoms: C_2  and  C_13
REMARK    4  A    between atoms: C_16  and  N_19
REMARK                            x       y       z     vdW  Elec       q    Type
REMARK                         _______ _______ _______ _____ _____    ______ ____
ROOT
ATOM      1  N   UNL     1      31.688 -23.888 -14.218  0.00  0.00    -0.139 NA
ENDROOT
BRANCH   1   5
ATOM      2  S   UNL     1      28.313 -23.621 -16.085  0.00  0.00    -0.007 S 
ATOM      3  O   UNL     1      28.007 -24.412 -17.261  0.00  0.00    -0.173 OA
ATOM      4  O   UNL     1      27.349 -22.680 -15.550  0.00  0.00    -0.173 OA
ATOM      5  N   UNL     1      31.210 -24.521 -15.312  0.00  0.00    -0.201 NA
ATOM      6  C   UNL     1      31.018 -23.702 -16.524  0.00  0.00    +0.098 C 
ATOM      7  C   UNL     1      29.834 -22.740 -16.386  0.00  0.00    +0.168 C 
ATOM      8  C   UNL     1      28.783 -24.732 -14.775  0.00  0.00    +0.170 C 
ATOM      9  C   UNL     1      30.091 -25.448 -15.093  0.00  0.00    +0.115 C 
ATOM     10  C   UNL     1      32.295 -22.935 -16.881  0.00  0.00    +0.021 C 
ENDBRANCH   1   5
BRANCH   1  11
ATOM     11  C   UNL     1      32.551 -24.586 -13.552  0.00  0.00    +0.172 C 
BRANCH  11  13
ATOM     12  O   UNL     1      34.415 -24.107 -12.144  0.00  0.00    -0.436 OA
ATOM     13  C   UNL     1      33.951 -24.155 -13.396  0.00  0.00    +0.144 C 
ATOM     14  C   UNL     1      34.851 -23.796 -14.327  0.00  0.00    +0.040 C 
ATOM     15  C   UNL     1      36.018 -23.485 -13.591  0.00  0.00    +0.066 C 
ATOM     16  C   UNL     1      35.702 -23.689 -12.268  0.00  0.00    +0.289 C 
BRANCH  16  19
ATOM     17  O   UNL     1      36.060 -24.229 -10.055  0.00  0.00    -0.123 OA
ATOM     18  O   UNL     1      37.399 -22.772 -11.004  0.00  0.00    -0.123 OA
ATOM     19  N   UNL     1      36.410 -23.560 -11.071  0.00  0.00    +0.093 N 
ENDBRANCH  16  19
ENDBRANCH  11  13
ENDBRANCH   1  11
TORSDOF 4
ENDMDL
MODEL 3
REMARK VINA RESULT:      -8.2      2.849      3.966
REMARK  Name = 6842999
REMARK  4 active torsions:
REMARK  status: ('A' for Active; 'I' for Inactive)
REMARK    1  A    between atoms: N_1  and  C_2
REMARK    2  A    between atoms: N_1  and  N_6
REMARK    3  A    between atoms: C_2  and  C_13
REMARK    4  A    between atoms: C_16  and  N_19
REMARK                            x       y       z     vdW  Elec       q    Type
REMARK                         _______ _______ _______ _____ _____    ______ ____
ROOT
ATOM      1  N   UNL     1      34.950 -24.729 -14.946  0.00  0.00    -0.139 NA
ENDROOT
BRANCH   1   5
ATOM      2  S   UNL     1      37.998 -24.555 -12.572  0.00  0.00    -0.007 S 
ATOM      3  O   UNL     1      39.354 -24.383 -13.055  0.00  0.00    -0.173 OA
ATOM      4  O   UNL     1      37.722 -24.669 -11.154  0.00  0.00    -0.173 OA
ATOM      5  N   UNL     1      36.272 -24.577 -15.184  0.00  0.00    -0.201 NA
ATOM      6  C   UNL     1      37.138 -25.735 -14.893  0.00  0.00    +0.098 C 
ATOM      7  C   UNL     1      37.291 -25.974 -13.388  0.00  0.00    +0.168 C 
ATOM      8  C   UNL     1      37.005 -23.225 -13.220  0.00  0.00    +0.170 C 
ATOM      9  C   UNL     1      36.875 -23.313 -14.736  0.00  0.00    +0.115 C 
ATOM     10  C   UNL     1      36.625 -26.998 -15.589  0.00  0.00    +0.021 C 
ENDBRANCH   1   5
BRANCH   1  11
ATOM     11  C   UNL     1      34.212 -23.849 -15.541  0.00  0.00    +0.172 C 
BRANCH  11  13
ATOM     12  O   UNL     1      31.917 -23.626 -16.146  0.00  0.00    -0.436 OA
ATOM     13  C   UNL     1      32.811 -23.614 -15.154  0.00  0.00    +0.144 C 
ATOM     14  C   UNL     1      32.279 -23.384 -13.941  0.00  0.00    +0.040 C 
ATOM     15  C   UNL     1      30.893 -23.233 -14.184  0.00  0.00    +0.066 C 
ATOM     16  C   UNL     1      30.724 -23.389 -15.541  0.00  0.00    +0.289 C 
BRANCH  16  19
ATOM     17  O   UNL     1      28.798 -24.321 -16.400  0.00  0.00    -0.123 OA
ATOM     18  O   UNL     1      29.430 -22.357 -17.146  0.00  0.00    -0.123 OA
ATOM     19  N   UNL     1      29.615 -23.355 -16.389  0.00  0.00    +0.093 N 
ENDBRANCH  16  19
ENDBRANCH  11  13
ENDBRANCH   1  11
TORSDOF 4
ENDMDL
MODEL 4
REMARK VINA RESULT:      -8.2      2.610      4.268
REMARK  Name = 6842999
REMARK  4 active torsions:
REMARK  status: ('A' for Active; 'I' for Inactive)
REMARK    1  A    between atoms: N_1  and  C_2
REMARK    2  A    between atoms: N_1  and  N_6
REMARK    3  A    between atoms: C_2  and  C_13
REMARK    4  A    between atoms: C_16  and  N_19
REMARK                            x       y       z     vdW  Elec       q    Type
REMARK                         _______ _______ _______ _____ _____    ______ ____
ROOT
ATOM      1  N   UNL     1      34.698 -24.586 -13.989  0.00  0.00    -0.139 NA
ENDROOT
BRANCH   1   5
ATOM      2  S   UNL     1      38.435 -25.581 -13.932  0.00  0.00    -0.007 S 
ATOM      3  O   UNL     1      39.454 -24.750 -13.321  0.00  0.00    -0.173 OA
ATOM      4  O   UNL     1      38.779 -26.842 -14.558  0.00  0.00    -0.173 OA
ATOM      5  N   UNL     1      35.789 -23.969 -13.483  0.00  0.00    -0.201 NA
ATOM      6  C   UNL     1      36.776 -23.460 -14.453  0.00  0.00    +0.098 C 
ATOM      7  C   UNL     1      37.555 -24.593 -15.129  0.00  0.00    +0.168 C 
ATOM      8  C   UNL     1      37.173 -25.897 -12.716  0.00  0.00    +0.170 C 
ATOM      9  C   UNL     1      36.433 -24.620 -12.334  0.00  0.00    +0.115 C 
ATOM     10  C   UNL     1      36.111 -22.566 -15.503  0.00  0.00    +0.021 C 
ENDBRANCH   1   5
BRANCH   1  11
ATOM     11  C   UNL     1      33.602 -24.290 -13.370  0.00  0.00    +0.172 C 
BRANCH  11  13
ATOM     12  O   UNL     1      32.255 -23.415 -15.132  0.00  0.00    -0.436 OA
ATOM     13  C   UNL     1      32.305 -24.219 -14.066  0.00  0.00    +0.144 C 
ATOM     14  C   UNL     1      31.147 -24.843 -13.795  0.00  0.00    +0.040 C 
ATOM     15  C   UNL     1      30.257 -24.389 -14.798  0.00  0.00    +0.066 C 
ATOM     16  C   UNL     1      30.978 -23.523 -15.586  0.00  0.00    +0.289 C 
BRANCH  16  19
ATOM     17  O   UNL     1      29.477 -22.427 -16.950  0.00  0.00    -0.123 OA
ATOM     18  O   UNL     1      31.601 -22.405 -17.505  0.00  0.00    -0.123 OA
ATOM     19  N   UNL     1      30.675 -22.761 -16.716  0.00  0.00    +0.093 N 
ENDBRANCH  16  19
ENDBRANCH  11  13
ENDBRANCH   1  11
TORSDOF 4
ENDMDL
MODEL 5
REMARK VINA RESULT:      -8.1      3.022      4.054
REMARK  Name = 6842999
REMARK  4 active torsions:
REMARK  status: ('A' for Active; 'I' for Inactive)
REMARK    1  A    between atoms: N_1  and  C_2
REMARK    2  A    between atoms: N_1  and  N_6
REMARK    3  A    between atoms: C_2  and  C_13
REMARK    4  A    between atoms: C_16  and  N_19
REMARK                            x       y       z     vdW  Elec       q    Type
REMARK                         _______ _______ _______ _____ _____    ______ ____
ROOT
ATOM      1  N   UNL     1      35.202 -24.706 -15.362  0.00  0.00    -0.139 NA
ENDROOT
BRANCH   1   5
ATOM      2  S   UNL     1      37.754 -24.387 -12.474  0.00  0.00    -0.007 S 
ATOM      3  O   UNL     1      39.180 -24.262 -12.704  0.00  0.00    -0.173 OA
ATOM      4  O   UNL     1      37.215 -24.397 -11.129  0.00  0.00    -0.173 OA
ATOM      5  N   UNL     1      36.547 -24.583 -15.357  0.00  0.00    -0.201 NA
ATOM      6  C   UNL     1      37.319 -25.724 -14.829  0.00  0.00    +0.098 C 
ATOM      7  C   UNL     1      37.182 -25.856 -13.309  0.00  0.00    +0.168 C 
ATOM      8  C   UNL     1      36.929 -23.099 -13.388  0.00  0.00    +0.170 C 
ATOM      9  C   UNL     1      37.083 -23.295 -14.892  0.00  0.00    +0.115 C 
ATOM     10  C   UNL     1      36.918 -27.030 -15.520  0.00  0.00    +0.021 C 
ENDBRANCH   1   5
BRANCH   1  11
ATOM     11  C   UNL     1      34.594 -23.724 -15.945  0.00  0.00    +0.172 C 
BRANCH  11  13
ATOM     12  O   UNL     1      32.503 -24.156 -14.885  0.00  0.00    -0.436 OA
ATOM     13  C   UNL     1      33.128 -23.586 -15.919  0.00  0.00    +0.144 C 
ATOM     14  C   UNL     1      32.305 -22.969 -16.783  0.00  0.00    +0.040 C 
ATOM     15  C   UNL     1      31.011 -23.164 -16.243  0.00  0.00    +0.066 C 
ATOM     16  C   UNL     1      31.185 -23.892 -15.089  0.00  0.00    +0.289 C 
BRANCH  16  19
ATOM     17  O   UNL     1      29.216 -24.918 -14.470  0.00  0.00    -0.123 OA
ATOM     18  O   UNL     1      30.624 -24.325 -12.895  0.00  0.00    -0.123 OA
ATOM     19  N   UNL     1      30.314 -24.395 -14.121  0.00  0.00    +0.093 N 
ENDBRANCH  16  19
ENDBRANCH  11  13
ENDBRANCH   1  11
TORSDOF 4
ENDMDL
MODEL 6
REMARK VINA RESULT:      -8.0      2.190      3.312
REMARK  Name = 6842999
REMARK  4 active torsions:
REMARK  status: ('A' for Active; 'I' for Inactive)
REMARK    1  A    between atoms: N_1  and  C_2
REMARK    2  A    between atoms: N_1  and  N_6
REMARK    3  A    between atoms: C_2  and  C_13
REMARK    4  A    between atoms: C_16  and  N_19
REMARK                            x       y       z     vdW  Elec       q    Type
REMARK                         _______ _______ _______ _____ _____    ______ ____
ROOT
ATOM      1  N   UNL     1      35.120 -24.692 -14.384  0.00  0.00    -0.139 NA
ENDROOT
BRANCH   1   5
ATOM      2  S   UNL     1      38.864 -25.534 -13.900  0.00  0.00    -0.007 S 
ATOM      3  O   UNL     1      39.756 -24.699 -13.120  0.00  0.00    -0.173 OA
ATOM      4  O   UNL     1      39.344 -26.740 -14.542  0.00  0.00    -0.173 OA
ATOM      5  N   UNL     1      36.107 -24.061 -13.710  0.00  0.00    -0.201 NA
ATOM      6  C   UNL     1      37.183 -23.456 -14.517  0.00  0.00    +0.098 C 
ATOM      7  C   UNL     1      38.094 -24.515 -15.146  0.00  0.00    +0.168 C 
ATOM      8  C   UNL     1      37.475 -25.972 -12.874  0.00  0.00    +0.170 C 
ATOM      9  C   UNL     1      36.632 -24.752 -12.523  0.00  0.00    +0.115 C 
ATOM     10  C   UNL     1      36.613 -22.530 -15.594  0.00  0.00    +0.021 C 
ENDBRANCH   1   5
BRANCH   1  11
ATOM     11  C   UNL     1      33.946 -24.192 -14.172  0.00  0.00    +0.172 C 
BRANCH  11  13
ATOM     12  O   UNL     1      33.715 -23.512 -16.445  0.00  0.00    -0.436 OA
ATOM     13  C   UNL     1      33.107 -23.675 -15.267  0.00  0.00    +0.144 C 
ATOM     14  C   UNL     1      31.808 -23.335 -15.269  0.00  0.00    +0.040 C 
ATOM     15  C   UNL     1      31.555 -22.908 -16.595  0.00  0.00    +0.066 C 
ATOM     16  C   UNL     1      32.746 -23.034 -17.270  0.00  0.00    +0.289 C 
BRANCH  16  19
ATOM     17  O   UNL     1      32.732 -21.745 -19.182  0.00  0.00    -0.123 OA
ATOM     18  O   UNL     1      33.923 -23.589 -19.175  0.00  0.00    -0.123 OA
ATOM     19  N   UNL     1      33.146 -22.781 -18.584  0.00  0.00    +0.093 N 
ENDBRANCH  16  19
ENDBRANCH  11  13
ENDBRANCH   1  11
TORSDOF 4
ENDMDL
MODEL 7
REMARK VINA RESULT:      -7.9      2.488      4.103
REMARK  Name = 6842999
REMARK  4 active torsions:
REMARK  status: ('A' for Active; 'I' for Inactive)
REMARK    1  A    between atoms: N_1  and  C_2
REMARK    2  A    between atoms: N_1  and  N_6
REMARK    3  A    between atoms: C_2  and  C_13
REMARK    4  A    between atoms: C_16  and  N_19
REMARK                            x       y       z     vdW  Elec       q    Type
REMARK                         _______ _______ _______ _____ _____    ______ ____
ROOT
ATOM      1  N   UNL     1      34.933 -23.899 -15.534  0.00  0.00    -0.139 NA
ENDROOT
BRANCH   1   5
ATOM      2  S   UNL     1      37.975 -24.935 -13.383  0.00  0.00    -0.007 S 
ATOM      3  O   UNL     1      38.664 -24.007 -12.508  0.00  0.00    -0.173 OA
ATOM      4  O   UNL     1      38.403 -26.316 -13.489  0.00  0.00    -0.173 OA
ATOM      5  N   UNL     1      35.706 -23.204 -14.670  0.00  0.00    -0.201 NA
ATOM      6  C   UNL     1      37.103 -22.960 -15.074  0.00  0.00    +0.098 C 
ATOM      7  C   UNL     1      37.947 -24.238 -15.024  0.00  0.00    +0.168 C 
ATOM      8  C   UNL     1      36.247 -24.928 -12.950  0.00  0.00    +0.170 C 
ATOM      9  C   UNL     1      35.602 -23.580 -13.253  0.00  0.00    +0.115 C 
ATOM     10  C   UNL     1      37.174 -22.324 -16.465  0.00  0.00    +0.021 C 
ENDBRANCH   1   5
BRANCH   1  11
ATOM     11  C   UNL     1      33.953 -23.209 -16.021  0.00  0.00    +0.172 C 
BRANCH  11  13
ATOM     12  O   UNL     1      31.608 -23.149 -16.448  0.00  0.00    -0.436 OA
ATOM     13  C   UNL     1      32.568 -23.378 -15.548  0.00  0.00    +0.144 C 
ATOM     14  C   UNL     1      32.109 -23.731 -14.336  0.00  0.00    +0.040 C 
ATOM     15  C   UNL     1      30.700 -23.727 -14.476  0.00  0.00    +0.066 C 
ATOM     16  C   UNL     1      30.446 -23.367 -15.778  0.00  0.00    +0.289 C 
BRANCH  16  19
ATOM     17  O   UNL     1      28.996 -22.043 -16.986  0.00  0.00    -0.123 OA
ATOM     18  O   UNL     1      28.506 -24.167 -16.734  0.00  0.00    -0.123 OA
ATOM     19  N   UNL     1      29.279 -23.186 -16.524  0.00  0.00    +0.093 N 
ENDBRANCH  16  19
ENDBRANCH  11  13
ENDBRANCH   1  11
TORSDOF 4
ENDMDL
MODEL 8
REMARK VINA RESULT:      -7.9      2.404      3.624
REMARK  Name = 6842999
REMARK  4 active torsions:
REMARK  status: ('A' for Active; 'I' for Inactive)
REMARK    1  A    between atoms: N_1  and  C_2
REMARK    2  A    between atoms: N_1  and  N_6
REMARK    3  A    between atoms: C_2  and  C_13
REMARK    4  A    between atoms: C_16  and  N_19
REMARK                            x       y       z     vdW  Elec       q    Type
REMARK                         _______ _______ _______ _____ _____    ______ ____
ROOT
ATOM      1  N   UNL     1      34.847 -23.126 -17.511  0.00  0.00    -0.139 NA
ENDROOT
BRANCH   1   5
ATOM      2  S   UNL     1      36.184 -24.586 -14.189  0.00  0.00    -0.007 S 
ATOM      3  O   UNL     1      36.226 -23.817 -12.961  0.00  0.00    -0.173 OA
ATOM      4  O   UNL     1      36.647 -25.958 -14.224  0.00  0.00    -0.173 OA
ATOM      5  N   UNL     1      34.973 -22.591 -16.276  0.00  0.00    -0.201 NA
ATOM      6  C   UNL     1      36.345 -22.363 -15.786  0.00  0.00    +0.098 C 
ATOM      7  C   UNL     1      37.060 -23.674 -15.447  0.00  0.00    +0.168 C 
ATOM      8  C   UNL     1      34.513 -24.553 -14.806  0.00  0.00    +0.170 C 
ATOM      9  C   UNL     1      34.102 -23.148 -15.231  0.00  0.00    +0.115 C 
ATOM     10  C   UNL     1      37.164 -21.550 -16.793  0.00  0.00    +0.021 C 
ENDBRANCH   1   5
BRANCH   1  11
ATOM     11  C   UNL     1      33.767 -22.765 -18.124  0.00  0.00    +0.172 C 
BRANCH  11  13
ATOM     12  O   UNL     1      34.951 -21.207 -19.487  0.00  0.00    -0.436 OA
ATOM     13  C   UNL     1      33.756 -21.668 -19.108  0.00  0.00    +0.144 C 
ATOM     14  C   UNL     1      32.719 -21.048 -19.694  0.00  0.00    +0.040 C 
ATOM     15  C   UNL     1      33.315 -20.083 -20.542  0.00  0.00    +0.066 C 
ATOM     16  C   UNL     1      34.674 -20.220 -20.379  0.00  0.00    +0.289 C 
BRANCH  16  19
ATOM     17  O   UNL     1      36.870 -19.526 -20.276  0.00  0.00    -0.123 OA
ATOM     18  O   UNL     1      35.704 -19.040 -22.071  0.00  0.00    -0.123 OA
ATOM     19  N   UNL     1      35.785 -19.575 -20.926  0.00  0.00    +0.093 N 
ENDBRANCH  16  19
ENDBRANCH  11  13
ENDBRANCH   1  11
TORSDOF 4
ENDMDL
MODEL 9
REMARK VINA RESULT:      -7.9      1.539      2.698
REMARK  Name = 6842999
REMARK  4 active torsions:
REMARK  status: ('A' for Active; 'I' for Inactive)
REMARK    1  A    between atoms: N_1  and  C_2
REMARK    2  A    between atoms: N_1  and  N_6
REMARK    3  A    between atoms: C_2  and  C_13
REMARK    4  A    between atoms: C_16  and  N_19
REMARK                            x       y       z     vdW  Elec       q    Type
REMARK                         _______ _______ _______ _____ _____    ______ ____
ROOT
ATOM      1  N   UNL     1      38.243 -23.178 -15.799  0.00  0.00    -0.139 NA
ENDROOT
BRANCH   1   5
ATOM      2  S   UNL     1      36.805 -26.441 -14.303  0.00  0.00    -0.007 S 
ATOM      3  O   UNL     1      36.928 -26.775 -12.897  0.00  0.00    -0.173 OA
ATOM      4  O   UNL     1      36.125 -27.331 -15.222  0.00  0.00    -0.173 OA
ATOM      5  N   UNL     1      38.248 -23.673 -14.542  0.00  0.00    -0.201 NA
ATOM      6  C   UNL     1      39.060 -24.881 -14.305  0.00  0.00    +0.098 C 
ATOM      7  C   UNL     1      38.439 -26.126 -14.945  0.00  0.00    +0.168 C 
ATOM      8  C   UNL     1      36.044 -24.835 -14.427  0.00  0.00    +0.170 C 
ATOM      9  C   UNL     1      36.947 -23.744 -13.863  0.00  0.00    +0.115 C 
ATOM     10  C   UNL     1      40.498 -24.687 -14.795  0.00  0.00    +0.021 C 
ENDBRANCH   1   5
BRANCH   1  11
ATOM     11  C   UNL     1      37.442 -22.175 -15.958  0.00  0.00    +0.172 C 
BRANCH  11  13
ATOM     12  O   UNL     1      35.539 -22.631 -17.320  0.00  0.00    -0.436 OA
ATOM     13  C   UNL     1      36.691 -21.964 -17.207  0.00  0.00    +0.144 C 
ATOM     14  C   UNL     1      36.985 -21.196 -18.269  0.00  0.00    +0.040 C 
ATOM     15  C   UNL     1      35.902 -21.392 -19.160  0.00  0.00    +0.066 C 
ATOM     16  C   UNL     1      35.050 -22.273 -18.536  0.00  0.00    +0.289 C 
BRANCH  16  19
ATOM     17  O   UNL     1      33.554 -24.027 -18.505  0.00  0.00    -0.123 OA
ATOM     18  O   UNL     1      32.999 -22.201 -19.589  0.00  0.00    -0.123 OA
ATOM     19  N   UNL     1      33.829 -22.852 -18.887  0.00  0.00    +0.093 N 
ENDBRANCH  16  19
ENDBRANCH  11  13
ENDBRANCH   1  11
TORSDOF 4
ENDMDL
