MODEL 1
REMARK VINA RESULT:      -6.2      0.000      0.000
REMARK  Name = 1738118
REMARK  10 active torsions:
REMARK  status: ('A' for Active; 'I' for Inactive)
REMARK    1  A    between atoms: C_1  and  O_2
REMARK    2  A    between atoms: C_1  and  C_4
REMARK    3  A    between atoms: C_1  and  CA_13
REMARK    4  A    between atoms: C_4  and  O_5
REMARK    5  A    between atoms: C_4  and  C_7
REMARK    6  A    between atoms: C_7  and  O_8
REMARK    7  A    between atoms: C_7  and  C_10
REMARK    8  A    between atoms: C_10  and  O_11
REMARK    9  A    between atoms: CA_13  and  N_15
REMARK   10  A    between atoms: CA_13  and  C_20
REMARK                            x       y       z     vdW  Elec       q    Type
REMARK                         _______ _______ _______ _____ _____    ______ ____
ROOT
ATOM      1  C   UNL     1      38.589 -25.237 -13.030  0.00  0.00    +0.165 C 
ENDROOT
BRANCH   1   2
ATOM      2  O   UNL     1      39.058 -23.982 -12.517  0.00  0.00    -0.380 OA
ATOM      3  H   UNL     1      38.713 -23.260 -13.065  0.00  0.00    +0.211 HD
ENDBRANCH   1   2
BRANCH   1   4
ATOM      4  C   UNL     1      37.176 -25.481 -12.462  0.00  0.00    +0.168 C 
BRANCH   4   5
ATOM      5  O   UNL     1      36.396 -26.075 -13.507  0.00  0.00    -0.379 OA
ATOM      6  H   UNL     1      36.972 -26.295 -14.256  0.00  0.00    +0.211 HD
ENDBRANCH   4   5
BRANCH   4   7
ATOM      7  C   UNL     1      36.447 -24.231 -11.940  0.00  0.00    +0.169 C 
BRANCH   7   8
ATOM      8  O   UNL     1      36.663 -24.087 -10.535  0.00  0.00    -0.379 OA
ATOM      9  H   UNL     1      36.469 -23.174 -10.269  0.00  0.00    +0.211 HD
ENDBRANCH   7   8
BRANCH   7  10
ATOM     10  C   UNL     1      34.938 -24.313 -12.163  0.00  0.00    +0.169 C 
BRANCH  10  11
ATOM     11  O   UNL     1      34.596 -23.524 -13.300  0.00  0.00    -0.379 OA
ATOM     12  H   UNL     1      35.217 -22.783 -13.377  0.00  0.00    +0.211 HD
ENDBRANCH  10  11
ENDBRANCH   7  10
ENDBRANCH   4   7
ENDBRANCH   1   4
BRANCH   1  13
ATOM     13  CA  UNL     1      38.678 -25.193 -14.562  0.00  0.00    +0.166 C 
BRANCH  13  15
ATOM     14  O   UNL     1      36.138 -24.360 -15.693  0.00  0.00    -0.275 OA
ATOM     15  N   UNL     1      38.348 -23.904 -15.117  0.00  0.00    -0.297 N 
ATOM     16  C   UNL     1      37.100 -23.597 -15.637  0.00  0.00    +0.223 C 
ATOM     17  C   UNL     1      37.017 -22.176 -16.126  0.00  0.00    +0.095 C 
ATOM     18  H   UNL     1      39.042 -23.207 -15.126  0.00  0.00    +0.150 HD
ENDBRANCH  13  15
BRANCH  13  20
ATOM     19  O   UNL     1      41.087 -24.973 -14.647  0.00  0.00    -0.286 OA
ATOM     20  C   UNL     1      40.073 -25.536 -15.051  0.00  0.00    +0.229 C 
ENDBRANCH  13  20
ENDBRANCH   1  13
TORSDOF 10
ENDMDL
MODEL 2
REMARK VINA RESULT:      -6.2      1.627      4.356
REMARK  Name = 1738118
REMARK  10 active torsions:
REMARK  status: ('A' for Active; 'I' for Inactive)
REMARK    1  A    between atoms: C_1  and  O_2
REMARK    2  A    between atoms: C_1  and  C_4
REMARK    3  A    between atoms: C_1  and  CA_13
REMARK    4  A    between atoms: C_4  and  O_5
REMARK    5  A    between atoms: C_4  and  C_7
REMARK    6  A    between atoms: C_7  and  O_8
REMARK    7  A    between atoms: C_7  and  C_10
REMARK    8  A    between atoms: C_10  and  O_11
REMARK    9  A    between atoms: CA_13  and  N_15
REMARK   10  A    between atoms: CA_13  and  C_20
REMARK                            x       y       z     vdW  Elec       q    Type
REMARK                         _______ _______ _______ _____ _____    ______ ____
ROOT
ATOM      1  C   UNL     1      37.278 -25.619 -12.395  0.00  0.00    +0.165 C 
ENDROOT
BRANCH   1   2
ATOM      2  O   UNL     1      36.438 -26.444 -13.215  0.00  0.00    -0.380 OA
ATOM      3  H   UNL     1      36.971 -26.857 -13.911  0.00  0.00    +0.211 HD
ENDBRANCH   1   2
BRANCH   1   4
ATOM      4  C   UNL     1      38.691 -25.623 -13.014  0.00  0.00    +0.168 C 
BRANCH   4   5
ATOM      5  O   UNL     1      39.245 -24.317 -12.811  0.00  0.00    -0.379 OA
ATOM      6  H   UNL     1      39.116 -23.782 -13.610  0.00  0.00    +0.211 HD
ENDBRANCH   4   5
BRANCH   4   7
ATOM      7  C   UNL     1      38.758 -25.968 -14.512  0.00  0.00    +0.169 C 
BRANCH   7   8
ATOM      8  O   UNL     1      38.490 -27.358 -14.707  0.00  0.00    -0.379 OA
ATOM      9  H   UNL     1      38.793 -27.625 -15.589  0.00  0.00    +0.211 HD
ENDBRANCH   7   8
BRANCH   7  10
ATOM     10  C   UNL     1      40.136 -25.682 -15.105  0.00  0.00    +0.169 C 
BRANCH  10  11
ATOM     11  O   UNL     1      41.121 -26.368 -14.338  0.00  0.00    -0.379 OA
ATOM     12  H   UNL     1      41.462 -27.119 -14.848  0.00  0.00    +0.211 HD
ENDBRANCH  10  11
ENDBRANCH   7  10
ENDBRANCH   4   7
ENDBRANCH   1   4
BRANCH   1  13
ATOM     13  CA  UNL     1      36.622 -24.237 -12.273  0.00  0.00    +0.166 C 
BRANCH  13  15
ATOM     14  O   UNL     1      37.527 -22.714 -14.573  0.00  0.00    -0.275 OA
ATOM     15  N   UNL     1      35.853 -23.864 -13.434  0.00  0.00    -0.297 N 
ATOM     16  C   UNL     1      36.375 -23.132 -14.489  0.00  0.00    +0.223 C 
ATOM     17  C   UNL     1      35.366 -22.904 -15.583  0.00  0.00    +0.095 C 
ATOM     18  H   UNL     1      34.911 -24.145 -13.481  0.00  0.00    +0.150 HD
ENDBRANCH  13  15
BRANCH  13  20
ATOM     19  O   UNL     1      35.280 -25.160 -10.482  0.00  0.00    -0.286 OA
ATOM     20  C   UNL     1      35.682 -24.167 -11.085  0.00  0.00    +0.229 C 
ENDBRANCH  13  20
ENDBRANCH   1  13
TORSDOF 10
ENDMDL
MODEL 3
REMARK VINA RESULT:      -6.0      1.956      4.347
REMARK  Name = 1738118
REMARK  10 active torsions:
REMARK  status: ('A' for Active; 'I' for Inactive)
REMARK    1  A    between atoms: C_1  and  O_2
REMARK    2  A    between atoms: C_1  and  C_4
REMARK    3  A    between atoms: C_1  and  CA_13
REMARK    4  A    between atoms: C_4  and  O_5
REMARK    5  A    between atoms: C_4  and  C_7
REMARK    6  A    between atoms: C_7  and  O_8
REMARK    7  A    between atoms: C_7  and  C_10
REMARK    8  A    between atoms: C_10  and  O_11
REMARK    9  A    between atoms: CA_13  and  N_15
REMARK   10  A    between atoms: CA_13  and  C_20
REMARK                            x       y       z     vdW  Elec       q    Type
REMARK                         _______ _______ _______ _____ _____    ______ ____
ROOT
ATOM      1  C   UNL     1      37.452 -25.426 -12.630  0.00  0.00    +0.165 C 
ENDROOT
BRANCH   1   2
ATOM      2  O   UNL     1      36.800 -26.643 -12.239  0.00  0.00    -0.380 OA
ATOM      3  H   UNL     1      36.928 -27.313 -12.928  0.00  0.00    +0.211 HD
ENDBRANCH   1   2
BRANCH   1   4
ATOM      4  C   UNL     1      37.941 -25.599 -14.082  0.00  0.00    +0.168 C 
BRANCH   4   5
ATOM      5  O   UNL     1      38.243 -26.988 -14.266  0.00  0.00    -0.379 OA
ATOM      6  H   UNL     1      38.590 -27.128 -15.161  0.00  0.00    +0.211 HD
ENDBRANCH   4   5
BRANCH   4   7
ATOM      7  C   UNL     1      39.171 -24.762 -14.472  0.00  0.00    +0.169 C 
BRANCH   7   8
ATOM      8  O   UNL     1      38.892 -23.994 -15.644  0.00  0.00    -0.379 OA
ATOM      9  H   UNL     1      37.932 -23.947 -15.779  0.00  0.00    +0.211 HD
ENDBRANCH   7   8
BRANCH   7  10
ATOM     10  C   UNL     1      40.386 -25.636 -14.778  0.00  0.00    +0.169 C 
BRANCH  10  11
ATOM     11  O   UNL     1      40.413 -25.915 -16.175  0.00  0.00    -0.379 OA
ATOM     12  H   UNL     1      39.566 -26.302 -16.444  0.00  0.00    +0.211 HD
ENDBRANCH  10  11
ENDBRANCH   7  10
ENDBRANCH   4   7
ENDBRANCH   1   4
BRANCH   1  13
ATOM     13  CA  UNL     1      36.475 -24.264 -12.403  0.00  0.00    +0.166 C 
BRANCH  13  15
ATOM     14  O   UNL     1      36.089 -22.773 -14.864  0.00  0.00    -0.275 OA
ATOM     15  N   UNL     1      35.331 -24.301 -13.279  0.00  0.00    -0.297 N 
ATOM     16  C   UNL     1      35.237 -23.549 -14.440  0.00  0.00    +0.223 C 
ATOM     17  C   UNL     1      33.949 -23.795 -15.180  0.00  0.00    +0.095 C 
ATOM     18  H   UNL     1      34.579 -24.890 -13.042  0.00  0.00    +0.150 HD
ENDBRANCH  13  15
BRANCH  13  20
ATOM     19  O   UNL     1      35.268 -25.164 -10.508  0.00  0.00    -0.286 OA
ATOM     20  C   UNL     1      35.940 -24.252 -10.984  0.00  0.00    +0.229 C 
ENDBRANCH  13  20
ENDBRANCH   1  13
TORSDOF 10
ENDMDL
MODEL 4
REMARK VINA RESULT:      -6.0      1.856      4.158
REMARK  Name = 1738118
REMARK  10 active torsions:
REMARK  status: ('A' for Active; 'I' for Inactive)
REMARK    1  A    between atoms: C_1  and  O_2
REMARK    2  A    between atoms: C_1  and  C_4
REMARK    3  A    between atoms: C_1  and  CA_13
REMARK    4  A    between atoms: C_4  and  O_5
REMARK    5  A    between atoms: C_4  and  C_7
REMARK    6  A    between atoms: C_7  and  O_8
REMARK    7  A    between atoms: C_7  and  C_10
REMARK    8  A    between atoms: C_10  and  O_11
REMARK    9  A    between atoms: CA_13  and  N_15
REMARK   10  A    between atoms: CA_13  and  C_20
REMARK                            x       y       z     vdW  Elec       q    Type
REMARK                         _______ _______ _______ _____ _____    ______ ____
ROOT
ATOM      1  C   UNL     1      37.566 -25.274 -13.423  0.00  0.00    +0.165 C 
ENDROOT
BRANCH   1   2
ATOM      2  O   UNL     1      36.411 -26.087 -13.174  0.00  0.00    -0.380 OA
ATOM      3  H   UNL     1      36.647 -26.808 -12.570  0.00  0.00    +0.211 HD
ENDBRANCH   1   2
BRANCH   1   4
ATOM      4  C   UNL     1      38.230 -25.782 -14.720  0.00  0.00    +0.168 C 
BRANCH   4   5
ATOM      5  O   UNL     1      38.299 -27.211 -14.629  0.00  0.00    -0.379 OA
ATOM      6  H   UNL     1      39.204 -27.477 -14.400  0.00  0.00    +0.211 HD
ENDBRANCH   4   5
BRANCH   4   7
ATOM      7  C   UNL     1      39.636 -25.229 -15.006  0.00  0.00    +0.169 C 
BRANCH   7   8
ATOM      8  O   UNL     1      40.176 -25.843 -16.178  0.00  0.00    -0.379 OA
ATOM      9  H   UNL     1      41.145 -25.838 -16.129  0.00  0.00    +0.211 HD
ENDBRANCH   7   8
BRANCH   7  10
ATOM     10  C   UNL     1      40.606 -25.504 -13.859  0.00  0.00    +0.169 C 
BRANCH  10  11
ATOM     11  O   UNL     1      41.268 -26.742 -14.101  0.00  0.00    -0.379 OA
ATOM     12  H   UNL     1      42.169 -26.701 -13.746  0.00  0.00    +0.211 HD
ENDBRANCH  10  11
ENDBRANCH   7  10
ENDBRANCH   4   7
ENDBRANCH   1   4
BRANCH   1  13
ATOM     13  CA  UNL     1      37.123 -23.805 -13.449  0.00  0.00    +0.166 C 
BRANCH  13  15
ATOM     14  O   UNL     1      36.120 -23.363 -16.137  0.00  0.00    -0.275 OA
ATOM     15  N   UNL     1      35.750 -23.629 -13.854  0.00  0.00    -0.297 N 
ATOM     16  C   UNL     1      35.365 -23.423 -15.170  0.00  0.00    +0.223 C 
ATOM     17  C   UNL     1      33.873 -23.296 -15.317  0.00  0.00    +0.095 C 
ATOM     18  H   UNL     1      35.051 -23.658 -13.161  0.00  0.00    +0.150 HD
ENDBRANCH  13  15
BRANCH  13  20
ATOM     19  O   UNL     1      38.341 -22.785 -11.623  0.00  0.00    -0.286 OA
ATOM     20  C   UNL     1      37.265 -23.155 -12.086  0.00  0.00    +0.229 C 
ENDBRANCH  13  20
ENDBRANCH   1  13
TORSDOF 10
ENDMDL
MODEL 5
REMARK VINA RESULT:      -5.9      2.184      3.580
REMARK  Name = 1738118
REMARK  10 active torsions:
REMARK  status: ('A' for Active; 'I' for Inactive)
REMARK    1  A    between atoms: C_1  and  O_2
REMARK    2  A    between atoms: C_1  and  C_4
REMARK    3  A    between atoms: C_1  and  CA_13
REMARK    4  A    between atoms: C_4  and  O_5
REMARK    5  A    between atoms: C_4  and  C_7
REMARK    6  A    between atoms: C_7  and  O_8
REMARK    7  A    between atoms: C_7  and  C_10
REMARK    8  A    between atoms: C_10  and  O_11
REMARK    9  A    between atoms: CA_13  and  N_15
REMARK   10  A    between atoms: CA_13  and  C_20
REMARK                            x       y       z     vdW  Elec       q    Type
REMARK                         _______ _______ _______ _____ _____    ______ ____
ROOT
ATOM      1  C   UNL     1      37.725 -24.411 -13.686  0.00  0.00    +0.165 C 
ENDROOT
BRANCH   1   2
ATOM      2  O   UNL     1      39.009 -24.253 -13.066  0.00  0.00    -0.380 OA
ATOM      3  H   UNL     1      39.686 -24.683 -13.612  0.00  0.00    +0.211 HD
ENDBRANCH   1   2
BRANCH   1   4
ATOM      4  C   UNL     1      37.140 -25.761 -13.221  0.00  0.00    +0.168 C 
BRANCH   4   5
ATOM      5  O   UNL     1      37.808 -26.116 -12.004  0.00  0.00    -0.379 OA
ATOM      6  H   UNL     1      38.685 -26.477 -12.211  0.00  0.00    +0.211 HD
ENDBRANCH   4   5
BRANCH   4   7
ATOM      7  C   UNL     1      37.271 -26.921 -14.223  0.00  0.00    +0.169 C 
BRANCH   7   8
ATOM      8  O   UNL     1      38.626 -27.044 -14.657  0.00  0.00    -0.379 OA
ATOM      9  H   UNL     1      39.101 -26.218 -14.474  0.00  0.00    +0.211 HD
ENDBRANCH   7   8
BRANCH   7  10
ATOM     10  C   UNL     1      36.411 -26.705 -15.467  0.00  0.00    +0.169 C 
BRANCH  10  11
ATOM     11  O   UNL     1      36.906 -27.529 -16.519  0.00  0.00    -0.379 OA
ATOM     12  H   UNL     1      36.582 -27.195 -17.369  0.00  0.00    +0.211 HD
ENDBRANCH  10  11
ENDBRANCH   7  10
ENDBRANCH   4   7
ENDBRANCH   1   4
BRANCH   1  13
ATOM     13  CA  UNL     1      36.874 -23.179 -13.347  0.00  0.00    +0.166 C 
BRANCH  13  15
ATOM     14  O   UNL     1      36.205 -23.106 -16.171  0.00  0.00    -0.275 OA
ATOM     15  N   UNL     1      35.559 -23.214 -13.936  0.00  0.00    -0.297 N 
ATOM     16  C   UNL     1      35.337 -23.174 -15.304  0.00  0.00    +0.223 C 
ATOM     17  C   UNL     1      33.874 -23.249 -15.650  0.00  0.00    +0.095 C 
ATOM     18  H   UNL     1      34.779 -23.269 -13.338  0.00  0.00    +0.150 HD
ENDBRANCH  13  15
BRANCH  13  20
ATOM     19  O   UNL     1      37.610 -23.000 -11.048  0.00  0.00    -0.286 OA
ATOM     20  C   UNL     1      36.679 -23.030 -11.850  0.00  0.00    +0.229 C 
ENDBRANCH  13  20
ENDBRANCH   1  13
TORSDOF 10
ENDMDL
MODEL 6
REMARK VINA RESULT:      -5.7      2.109      2.414
REMARK  Name = 1738118
REMARK  10 active torsions:
REMARK  status: ('A' for Active; 'I' for Inactive)
REMARK    1  A    between atoms: C_1  and  O_2
REMARK    2  A    between atoms: C_1  and  C_4
REMARK    3  A    between atoms: C_1  and  CA_13
REMARK    4  A    between atoms: C_4  and  O_5
REMARK    5  A    between atoms: C_4  and  C_7
REMARK    6  A    between atoms: C_7  and  O_8
REMARK    7  A    between atoms: C_7  and  C_10
REMARK    8  A    between atoms: C_10  and  O_11
REMARK    9  A    between atoms: CA_13  and  N_15
REMARK   10  A    between atoms: CA_13  and  C_20
REMARK                            x       y       z     vdW  Elec       q    Type
REMARK                         _______ _______ _______ _____ _____    ______ ____
ROOT
ATOM      1  C   UNL     1      37.867 -24.665 -13.767  0.00  0.00    +0.165 C 
ENDROOT
BRANCH   1   2
ATOM      2  O   UNL     1      37.943 -23.342 -14.317  0.00  0.00    -0.380 OA
ATOM      3  H   UNL     1      37.327 -23.266 -15.062  0.00  0.00    +0.211 HD
ENDBRANCH   1   2
BRANCH   1   4
ATOM      4  C   UNL     1      37.788 -24.533 -12.232  0.00  0.00    +0.168 C 
BRANCH   4   5
ATOM      5  O   UNL     1      37.564 -25.847 -11.705  0.00  0.00    -0.379 OA
ATOM      6  H   UNL     1      37.496 -26.481 -12.437  0.00  0.00    +0.211 HD
ENDBRANCH   4   5
BRANCH   4   7
ATOM      7  C   UNL     1      36.697 -23.587 -11.702  0.00  0.00    +0.169 C 
BRANCH   7   8
ATOM      8  O   UNL     1      37.202 -22.817 -10.611  0.00  0.00    -0.379 OA
ATOM      9  H   UNL     1      36.577 -22.105 -10.400  0.00  0.00    +0.211 HD
ENDBRANCH   7   8
BRANCH   7  10
ATOM     10  C   UNL     1      35.474 -24.349 -11.196  0.00  0.00    +0.169 C 
BRANCH  10  11
ATOM     11  O   UNL     1      35.561 -24.473  -9.779  0.00  0.00    -0.379 OA
ATOM     12  H   UNL     1      35.481 -25.407  -9.532  0.00  0.00    +0.211 HD
ENDBRANCH  10  11
ENDBRANCH   7  10
ENDBRANCH   4   7
ENDBRANCH   1   4
BRANCH   1  13
ATOM     13  CA  UNL     1      36.683 -25.390 -14.422  0.00  0.00    +0.166 C 
BRANCH  13  15
ATOM     14  O   UNL     1      33.912 -24.535 -14.287  0.00  0.00    -0.275 OA
ATOM     15  N   UNL     1      35.970 -24.576 -15.375  0.00  0.00    -0.297 N 
ATOM     16  C   UNL     1      34.640 -24.216 -15.224  0.00  0.00    +0.223 C 
ATOM     17  C   UNL     1      34.151 -23.343 -16.348  0.00  0.00    +0.095 C 
ATOM     18  H   UNL     1      36.453 -24.258 -16.172  0.00  0.00    +0.150 HD
ENDBRANCH  13  15
BRANCH  13  20
ATOM     19  O   UNL     1      38.145 -27.266 -14.869  0.00  0.00    -0.286 OA
ATOM     20  C   UNL     1      37.130 -26.637 -15.159  0.00  0.00    +0.229 C 
ENDBRANCH  13  20
ENDBRANCH   1  13
TORSDOF 10
ENDMDL
MODEL 7
REMARK VINA RESULT:      -5.6      9.613     12.144
REMARK  Name = 1738118
REMARK  10 active torsions:
REMARK  status: ('A' for Active; 'I' for Inactive)
REMARK    1  A    between atoms: C_1  and  O_2
REMARK    2  A    between atoms: C_1  and  C_4
REMARK    3  A    between atoms: C_1  and  CA_13
REMARK    4  A    between atoms: C_4  and  O_5
REMARK    5  A    between atoms: C_4  and  C_7
REMARK    6  A    between atoms: C_7  and  O_8
REMARK    7  A    between atoms: C_7  and  C_10
REMARK    8  A    between atoms: C_10  and  O_11
REMARK    9  A    between atoms: CA_13  and  N_15
REMARK   10  A    between atoms: CA_13  and  C_20
REMARK                            x       y       z     vdW  Elec       q    Type
REMARK                         _______ _______ _______ _____ _____    ______ ____
ROOT
ATOM      1  C   UNL     1      35.329 -16.836 -22.911  0.00  0.00    +0.165 C 
ENDROOT
BRANCH   1   2
ATOM      2  O   UNL     1      35.716 -16.095 -24.077  0.00  0.00    -0.380 OA
ATOM      3  H   UNL     1      36.270 -15.344 -23.814  0.00  0.00    +0.211 HD
ENDBRANCH   1   2
BRANCH   1   4
ATOM      4  C   UNL     1      34.056 -16.181 -22.337  0.00  0.00    +0.168 C 
BRANCH   4   5
ATOM      5  O   UNL     1      33.509 -15.345 -23.365  0.00  0.00    -0.379 OA
ATOM      6  H   UNL     1      33.598 -14.414 -23.107  0.00  0.00    +0.211 HD
ENDBRANCH   4   5
BRANCH   4   7
ATOM      7  C   UNL     1      34.258 -15.341 -21.063  0.00  0.00    +0.169 C 
BRANCH   7   8
ATOM      8  O   UNL     1      34.989 -16.092 -20.092  0.00  0.00    -0.379 OA
ATOM      9  H   UNL     1      34.415 -16.776 -19.713  0.00  0.00    +0.211 HD
ENDBRANCH   7   8
BRANCH   7  10
ATOM     10  C   UNL     1      32.930 -14.939 -20.425  0.00  0.00    +0.169 C 
BRANCH  10  11
ATOM     11  O   UNL     1      32.455 -13.754 -21.058  0.00  0.00    -0.379 OA
ATOM     12  H   UNL     1      31.689 -13.969 -21.613  0.00  0.00    +0.211 HD
ENDBRANCH  10  11
ENDBRANCH   7  10
ENDBRANCH   4   7
ENDBRANCH   1   4
BRANCH   1  13
ATOM     13  CA  UNL     1      35.182 -18.312 -23.306  0.00  0.00    +0.166 C 
BRANCH  13  15
ATOM     14  O   UNL     1      35.457 -19.184 -20.551  0.00  0.00    -0.275 OA
ATOM     15  N   UNL     1      34.212 -19.022 -22.513  0.00  0.00    -0.297 N 
ATOM     16  C   UNL     1      34.434 -19.399 -21.197  0.00  0.00    +0.223 C 
ATOM     17  C   UNL     1      33.248 -20.104 -20.595  0.00  0.00    +0.095 C 
ATOM     18  H   UNL     1      33.347 -19.251 -22.925  0.00  0.00    +0.150 HD
ENDBRANCH  13  15
BRANCH  13  20
ATOM     19  O   UNL     1      33.943 -17.722 -25.301  0.00  0.00    -0.286 OA
ATOM     20  C   UNL     1      34.759 -18.462 -24.755  0.00  0.00    +0.229 C 
ENDBRANCH  13  20
ENDBRANCH   1  13
TORSDOF 10
ENDMDL
MODEL 8
REMARK VINA RESULT:      -5.5      1.942      3.433
REMARK  Name = 1738118
REMARK  10 active torsions:
REMARK  status: ('A' for Active; 'I' for Inactive)
REMARK    1  A    between atoms: C_1  and  O_2
REMARK    2  A    between atoms: C_1  and  C_4
REMARK    3  A    between atoms: C_1  and  CA_13
REMARK    4  A    between atoms: C_4  and  O_5
REMARK    5  A    between atoms: C_4  and  C_7
REMARK    6  A    between atoms: C_7  and  O_8
REMARK    7  A    between atoms: C_7  and  C_10
REMARK    8  A    between atoms: C_10  and  O_11
REMARK    9  A    between atoms: CA_13  and  N_15
REMARK   10  A    between atoms: CA_13  and  C_20
REMARK                            x       y       z     vdW  Elec       q    Type
REMARK                         _______ _______ _______ _____ _____    ______ ____
ROOT
ATOM      1  C   UNL     1      36.719 -23.787 -13.744  0.00  0.00    +0.165 C 
ENDROOT
BRANCH   1   2
ATOM      2  O   UNL     1      37.452 -22.943 -14.643  0.00  0.00    -0.380 OA
ATOM      3  H   UNL     1      37.841 -23.484 -15.348  0.00  0.00    +0.211 HD
ENDBRANCH   1   2
BRANCH   1   4
ATOM      4  C   UNL     1      35.746 -24.639 -14.585  0.00  0.00    +0.168 C 
BRANCH   4   5
ATOM      5  O   UNL     1      36.445 -25.029 -15.775  0.00  0.00    -0.379 OA
ATOM      6  H   UNL     1      36.579 -24.252 -16.340  0.00  0.00    +0.211 HD
ENDBRANCH   4   5
BRANCH   4   7
ATOM      7  C   UNL     1      34.430 -23.949 -14.980  0.00  0.00    +0.169 C 
BRANCH   7   8
ATOM      8  O   UNL     1      34.569 -22.531 -14.878  0.00  0.00    -0.379 OA
ATOM      9  H   UNL     1      33.851 -22.099 -15.368  0.00  0.00    +0.211 HD
ENDBRANCH   7   8
BRANCH   7  10
ATOM     10  C   UNL     1      33.272 -24.361 -14.073  0.00  0.00    +0.169 C 
BRANCH  10  11
ATOM     11  O   UNL     1      33.272 -23.528 -12.917  0.00  0.00    -0.379 OA
ATOM     12  H   UNL     1      32.510 -23.749 -12.360  0.00  0.00    +0.211 HD
ENDBRANCH  10  11
ENDBRANCH   7  10
ENDBRANCH   4   7
ENDBRANCH   1   4
BRANCH   1  13
ATOM     13  CA  UNL     1      37.726 -24.583 -12.903  0.00  0.00    +0.166 C 
BRANCH  13  15
ATOM     14  O   UNL     1      38.412 -26.917 -14.488  0.00  0.00    -0.275 OA
ATOM     15  N   UNL     1      38.967 -24.841 -13.590  0.00  0.00    -0.297 N 
ATOM     16  C   UNL     1      39.203 -25.991 -14.328  0.00  0.00    +0.223 C 
ATOM     17  C   UNL     1      40.569 -25.994 -14.961  0.00  0.00    +0.095 C 
ATOM     18  H   UNL     1      39.681 -24.166 -13.534  0.00  0.00    +0.150 HD
ENDBRANCH  13  15
BRANCH  13  20
ATOM     19  O   UNL     1      38.419 -22.678 -11.581  0.00  0.00    -0.286 OA
ATOM     20  C   UNL     1      38.079 -23.858 -11.619  0.00  0.00    +0.229 C 
ENDBRANCH  13  20
ENDBRANCH   1  13
TORSDOF 10
ENDMDL
MODEL 9
REMARK VINA RESULT:      -5.5      2.031      4.382
REMARK  Name = 1738118
REMARK  10 active torsions:
REMARK  status: ('A' for Active; 'I' for Inactive)
REMARK    1  A    between atoms: C_1  and  O_2
REMARK    2  A    between atoms: C_1  and  C_4
REMARK    3  A    between atoms: C_1  and  CA_13
REMARK    4  A    between atoms: C_4  and  O_5
REMARK    5  A    between atoms: C_4  and  C_7
REMARK    6  A    between atoms: C_7  and  O_8
REMARK    7  A    between atoms: C_7  and  C_10
REMARK    8  A    between atoms: C_10  and  O_11
REMARK    9  A    between atoms: CA_13  and  N_15
REMARK   10  A    between atoms: CA_13  and  C_20
REMARK                            x       y       z     vdW  Elec       q    Type
REMARK                         _______ _______ _______ _____ _____    ______ ____
ROOT
ATOM      1  C   UNL     1      36.479 -25.501 -14.159  0.00  0.00    +0.165 C 
ENDROOT
BRANCH   1   2
ATOM      2  O   UNL     1      35.683 -26.359 -14.988  0.00  0.00    -0.380 OA
ATOM      3  H   UNL     1      35.058 -26.854 -14.435  0.00  0.00    +0.211 HD
ENDBRANCH   1   2
BRANCH   1   4
ATOM      4  C   UNL     1      37.896 -25.442 -14.766  0.00  0.00    +0.168 C 
BRANCH   4   5
ATOM      5  O   UNL     1      38.020 -26.554 -15.661  0.00  0.00    -0.379 OA
ATOM      6  H   UNL     1      38.958 -26.779 -15.769  0.00  0.00    +0.211 HD
ENDBRANCH   4   5
BRANCH   4   7
ATOM      7  C   UNL     1      39.054 -25.481 -13.754  0.00  0.00    +0.169 C 
BRANCH   7   8
ATOM      8  O   UNL     1      38.950 -24.382 -12.847  0.00  0.00    -0.379 OA
ATOM      9  H   UNL     1      39.028 -24.707 -11.935  0.00  0.00    +0.211 HD
ENDBRANCH   7   8
BRANCH   7  10
ATOM     10  C   UNL     1      40.416 -25.382 -14.437  0.00  0.00    +0.169 C 
BRANCH  10  11
ATOM     11  O   UNL     1      40.926 -26.697 -14.643  0.00  0.00    -0.379 OA
ATOM     12  H   UNL     1      41.843 -26.643 -14.952  0.00  0.00    +0.211 HD
ENDBRANCH  10  11
ENDBRANCH   7  10
ENDBRANCH   4   7
ENDBRANCH   1   4
BRANCH   1  13
ATOM     13  CA  UNL     1      35.763 -24.149 -14.040  0.00  0.00    +0.166 C 
BRANCH  13  15
ATOM     14  O   UNL     1      35.833 -22.833 -16.627  0.00  0.00    -0.275 OA
ATOM     15  N   UNL     1      34.675 -23.994 -14.973  0.00  0.00    -0.297 N 
ATOM     16  C   UNL     1      34.805 -23.347 -16.193  0.00  0.00    +0.223 C 
ATOM     17  C   UNL     1      33.524 -23.350 -16.983  0.00  0.00    +0.095 C 
ATOM     18  H   UNL     1      33.797 -24.367 -14.734  0.00  0.00    +0.150 HD
ENDBRANCH  13  15
BRANCH  13  20
ATOM     19  O   UNL     1      33.986 -24.055 -12.399  0.00  0.00    -0.286 OA
ATOM     20  C   UNL     1      35.183 -23.944 -12.654  0.00  0.00    +0.229 C 
ENDBRANCH  13  20
ENDBRANCH   1  13
TORSDOF 10
ENDMDL
