MODEL 1
REMARK VINA RESULT:      -6.3      0.000      0.000
REMARK  Name = 367584
REMARK  6 active torsions:
REMARK  status: ('A' for Active; 'I' for Inactive)
REMARK    1  A    between atoms: C_3  and  C_6
REMARK    2  A    between atoms: C_3  and  C_9
REMARK    3  A    between atoms: C_6  and  O_7
REMARK    4  A    between atoms: C_9  and  P_10
REMARK    5  A    between atoms: P_10  and  O_12
REMARK    6  A    between atoms: P_10  and  O_14
REMARK                            x       y       z     vdW  Elec       q    Type
REMARK                         _______ _______ _______ _____ _____    ______ ____
ROOT
ATOM      1 CL   UNL     1      38.293 -24.148 -11.799  0.00  0.00    -0.070 Cl
ATOM      2 CL   UNL     1      35.643 -23.529 -12.876  0.00  0.00    -0.070 Cl
ATOM      3  C   UNL     1      37.330 -25.329 -14.026  0.00  0.00    +0.087 C 
ATOM      4  C   UNL     1      37.115 -24.434 -13.044  0.00  0.00    +0.118 C 
ENDROOT
BRANCH   3   6
ATOM      5  O   UNL     1      35.903 -24.672 -15.852  0.00  0.00    -0.245 OA
ATOM      6  C   UNL     1      36.294 -25.527 -15.073  0.00  0.00    +0.336 C 
BRANCH   6   7
ATOM      7  O   UNL     1      35.854 -26.806 -15.044  0.00  0.00    -0.477 OA
ATOM      8  H   UNL     1      36.451 -27.502 -14.851  0.00  0.00    +0.295 HD
ENDBRANCH   6   7
ENDBRANCH   3   6
BRANCH   3   9
ATOM      9  C   UNL     1      38.582 -26.142 -14.201  0.00  0.00    +0.150 C 
BRANCH   9  10
ATOM     10  P   UNL     1      39.840 -25.076 -14.923  0.00  0.00    +0.341 P 
ATOM     11  O   UNL     1      40.857 -24.593 -13.946  0.00  0.00    -0.258 OA
BRANCH  10  12
ATOM     12  O   UNL     1      38.962 -23.935 -15.649  0.00  0.00    -0.323 OA
ATOM     13  H   UNL     1      38.172 -24.337 -16.043  0.00  0.00    +0.220 HD
ENDBRANCH  10  12
BRANCH  10  14
ATOM     14  O   UNL     1      40.401 -25.967 -16.143  0.00  0.00    -0.323 OA
ATOM     15  H   UNL     1      41.090 -25.472 -16.614  0.00  0.00    +0.220 HD
ENDBRANCH  10  14
ENDBRANCH   9  10
ENDBRANCH   3   9
TORSDOF 6
ENDMDL
MODEL 2
REMARK VINA RESULT:      -6.3      1.110      1.459
REMARK  Name = 367584
REMARK  6 active torsions:
REMARK  status: ('A' for Active; 'I' for Inactive)
REMARK    1  A    between atoms: C_3  and  C_6
REMARK    2  A    between atoms: C_3  and  C_9
REMARK    3  A    between atoms: C_6  and  O_7
REMARK    4  A    between atoms: C_9  and  P_10
REMARK    5  A    between atoms: P_10  and  O_12
REMARK    6  A    between atoms: P_10  and  O_14
REMARK                            x       y       z     vdW  Elec       q    Type
REMARK                         _______ _______ _______ _____ _____    ______ ____
ROOT
ATOM      1 CL   UNL     1      38.011 -23.598 -11.987  0.00  0.00    -0.070 Cl
ATOM      2 CL   UNL     1      35.314 -24.716 -12.204  0.00  0.00    -0.070 Cl
ATOM      3  C   UNL     1      37.033 -24.565 -14.308  0.00  0.00    +0.087 C 
ATOM      4  C   UNL     1      36.799 -24.311 -13.008  0.00  0.00    +0.118 C 
ENDROOT
BRANCH   3   6
ATOM      5  O   UNL     1      35.196 -24.546 -15.867  0.00  0.00    -0.245 OA
ATOM      6  C   UNL     1      35.958 -25.166 -15.141  0.00  0.00    +0.336 C 
BRANCH   6   7
ATOM      7  O   UNL     1      35.956 -26.509 -14.983  0.00  0.00    -0.477 OA
ATOM      8  H   UNL     1      36.766 -26.980 -14.970  0.00  0.00    +0.295 HD
ENDBRANCH   6   7
ENDBRANCH   3   6
BRANCH   3   9
ATOM      9  C   UNL     1      38.306 -24.244 -15.041  0.00  0.00    +0.150 C 
BRANCH   9  10
ATOM     10  P   UNL     1      39.457 -25.602 -14.777  0.00  0.00    +0.341 P 
ATOM     11  O   UNL     1      38.811 -26.860 -14.304  0.00  0.00    -0.258 OA
BRANCH  10  12
ATOM     12  O   UNL     1      40.548 -24.953 -13.783  0.00  0.00    -0.323 OA
ATOM     13  H   UNL     1      41.341 -24.713 -14.287  0.00  0.00    +0.220 HD
ENDBRANCH  10  12
BRANCH  10  14
ATOM     14  O   UNL     1      40.227 -25.693 -16.189  0.00  0.00    -0.323 OA
ATOM     15  H   UNL     1      40.691 -26.543 -16.250  0.00  0.00    +0.220 HD
ENDBRANCH  10  14
ENDBRANCH   9  10
ENDBRANCH   3   9
TORSDOF 6
ENDMDL
MODEL 3
REMARK VINA RESULT:      -6.2      2.265      2.810
REMARK  Name = 367584
REMARK  6 active torsions:
REMARK  status: ('A' for Active; 'I' for Inactive)
REMARK    1  A    between atoms: C_3  and  C_6
REMARK    2  A    between atoms: C_3  and  C_9
REMARK    3  A    between atoms: C_6  and  O_7
REMARK    4  A    between atoms: C_9  and  P_10
REMARK    5  A    between atoms: P_10  and  O_12
REMARK    6  A    between atoms: P_10  and  O_14
REMARK                            x       y       z     vdW  Elec       q    Type
REMARK                         _______ _______ _______ _____ _____    ______ ____
ROOT
ATOM      1 CL   UNL     1      37.814 -23.196 -15.790  0.00  0.00    -0.070 Cl
ATOM      2 CL   UNL     1      35.480 -23.799 -14.129  0.00  0.00    -0.070 Cl
ATOM      3  C   UNL     1      38.007 -24.572 -13.477  0.00  0.00    +0.087 C 
ATOM      4  C   UNL     1      37.194 -23.956 -14.356  0.00  0.00    +0.118 C 
ENDROOT
BRANCH   3   6
ATOM      5  O   UNL     1      37.452 -24.758 -11.140  0.00  0.00    -0.245 OA
ATOM      6  C   UNL     1      37.424 -25.217 -12.271  0.00  0.00    +0.336 C 
BRANCH   6   7
ATOM      7  O   UNL     1      36.844 -26.389 -12.617  0.00  0.00    -0.477 OA
ATOM      8  H   UNL     1      36.932 -26.716 -13.491  0.00  0.00    +0.295 HD
ENDBRANCH   6   7
ENDBRANCH   3   6
BRANCH   3   9
ATOM      9  C   UNL     1      39.495 -24.720 -13.626  0.00  0.00    +0.150 C 
BRANCH   9  10
ATOM     10  P   UNL     1      39.810 -26.165 -14.651  0.00  0.00    +0.341 P 
ATOM     11  O   UNL     1      38.674 -27.130 -14.703  0.00  0.00    -0.258 OA
BRANCH  10  12
ATOM     12  O   UNL     1      41.192 -26.734 -14.045  0.00  0.00    -0.323 OA
ATOM     13  H   UNL     1      41.821 -26.004 -13.935  0.00  0.00    +0.220 HD
ENDBRANCH  10  12
BRANCH  10  14
ATOM     14  O   UNL     1      40.246 -25.513 -16.059  0.00  0.00    -0.323 OA
ATOM     15  H   UNL     1      39.656 -24.771 -16.267  0.00  0.00    +0.220 HD
ENDBRANCH  10  14
ENDBRANCH   9  10
ENDBRANCH   3   9
TORSDOF 6
ENDMDL
MODEL 4
REMARK VINA RESULT:      -6.1      1.815      2.542
REMARK  Name = 367584
REMARK  6 active torsions:
REMARK  status: ('A' for Active; 'I' for Inactive)
REMARK    1  A    between atoms: C_3  and  C_6
REMARK    2  A    between atoms: C_3  and  C_9
REMARK    3  A    between atoms: C_6  and  O_7
REMARK    4  A    between atoms: C_9  and  P_10
REMARK    5  A    between atoms: P_10  and  O_12
REMARK    6  A    between atoms: P_10  and  O_14
REMARK                            x       y       z     vdW  Elec       q    Type
REMARK                         _______ _______ _______ _____ _____    ______ ____
ROOT
ATOM      1 CL   UNL     1      35.691 -24.073 -15.615  0.00  0.00    -0.070 Cl
ATOM      2 CL   UNL     1      35.141 -23.711 -12.762  0.00  0.00    -0.070 Cl
ATOM      3  C   UNL     1      37.110 -25.339 -13.700  0.00  0.00    +0.087 C 
ATOM      4  C   UNL     1      36.096 -24.499 -13.979  0.00  0.00    +0.118 C 
ENDROOT
BRANCH   3   6
ATOM      5  O   UNL     1      37.082 -26.713 -11.722  0.00  0.00    -0.245 OA
ATOM      6  C   UNL     1      37.407 -25.680 -12.284  0.00  0.00    +0.336 C 
BRANCH   6   7
ATOM      7  O   UNL     1      38.108 -24.674 -11.711  0.00  0.00    -0.477 OA
ATOM      8  H   UNL     1      37.776 -23.798 -11.737  0.00  0.00    +0.295 HD
ENDBRANCH   6   7
ENDBRANCH   3   6
BRANCH   3   9
ATOM      9  C   UNL     1      37.969 -26.032 -14.720  0.00  0.00    +0.150 C 
BRANCH   9  10
ATOM     10  P   UNL     1      39.492 -25.089 -14.895  0.00  0.00    +0.341 P 
ATOM     11  O   UNL     1      40.175 -24.797 -13.603  0.00  0.00    -0.258 OA
BRANCH  10  12
ATOM     12  O   UNL     1      39.017 -23.806 -15.748  0.00  0.00    -0.323 OA
ATOM     13  H   UNL     1      39.449 -23.010 -15.401  0.00  0.00    +0.220 HD
ENDBRANCH  10  12
BRANCH  10  14
ATOM     14  O   UNL     1      40.332 -25.967 -15.954  0.00  0.00    -0.323 OA
ATOM     15  H   UNL     1      39.835 -26.034 -16.785  0.00  0.00    +0.220 HD
ENDBRANCH  10  14
ENDBRANCH   9  10
ENDBRANCH   3   9
TORSDOF 6
ENDMDL
MODEL 5
REMARK VINA RESULT:      -6.1      3.198      4.236
REMARK  Name = 367584
REMARK  6 active torsions:
REMARK  status: ('A' for Active; 'I' for Inactive)
REMARK    1  A    between atoms: C_3  and  C_6
REMARK    2  A    between atoms: C_3  and  C_9
REMARK    3  A    between atoms: C_6  and  O_7
REMARK    4  A    between atoms: C_9  and  P_10
REMARK    5  A    between atoms: P_10  and  O_12
REMARK    6  A    between atoms: P_10  and  O_14
REMARK                            x       y       z     vdW  Elec       q    Type
REMARK                         _______ _______ _______ _____ _____    ______ ____
ROOT
ATOM      1 CL   UNL     1      34.837 -24.904 -14.931  0.00  0.00    -0.070 Cl
ATOM      2 CL   UNL     1      36.853 -26.915 -15.609  0.00  0.00    -0.070 Cl
ATOM      3  C   UNL     1      37.428 -24.645 -14.223  0.00  0.00    +0.087 C 
ATOM      4  C   UNL     1      36.504 -25.389 -14.859  0.00  0.00    +0.118 C 
ENDROOT
BRANCH   3   6
ATOM      5  O   UNL     1      39.738 -24.660 -14.905  0.00  0.00    -0.245 OA
ATOM      6  C   UNL     1      38.843 -25.099 -14.200  0.00  0.00    +0.336 C 
BRANCH   6   7
ATOM      7  O   UNL     1      38.996 -26.069 -13.269  0.00  0.00    -0.477 OA
ATOM      8  H   UNL     1      38.321 -26.706 -13.142  0.00  0.00    +0.295 HD
ENDBRANCH   6   7
ENDBRANCH   3   6
BRANCH   3   9
ATOM      9  C   UNL     1      37.168 -23.326 -13.550  0.00  0.00    +0.150 C 
BRANCH   9  10
ATOM     10  P   UNL     1      36.676 -23.657 -11.850  0.00  0.00    +0.341 P 
ATOM     11  O   UNL     1      37.133 -24.979 -11.335  0.00  0.00    -0.258 OA
BRANCH  10  12
ATOM     12  O   UNL     1      35.081 -23.430 -11.894  0.00  0.00    -0.323 OA
ATOM     13  H   UNL     1      34.801 -22.950 -11.099  0.00  0.00    +0.220 HD
ENDBRANCH  10  12
BRANCH  10  14
ATOM     14  O   UNL     1      37.229 -22.364 -11.064  0.00  0.00    -0.323 OA
ATOM     15  H   UNL     1      37.866 -21.893 -11.623  0.00  0.00    +0.220 HD
ENDBRANCH  10  14
ENDBRANCH   9  10
ENDBRANCH   3   9
TORSDOF 6
ENDMDL
MODEL 6
REMARK VINA RESULT:      -6.0      2.245      3.147
REMARK  Name = 367584
REMARK  6 active torsions:
REMARK  status: ('A' for Active; 'I' for Inactive)
REMARK    1  A    between atoms: C_3  and  C_6
REMARK    2  A    between atoms: C_3  and  C_9
REMARK    3  A    between atoms: C_6  and  O_7
REMARK    4  A    between atoms: C_9  and  P_10
REMARK    5  A    between atoms: P_10  and  O_12
REMARK    6  A    between atoms: P_10  and  O_14
REMARK                            x       y       z     vdW  Elec       q    Type
REMARK                         _______ _______ _______ _____ _____    ______ ____
ROOT
ATOM      1 CL   UNL     1      34.871 -24.647 -14.814  0.00  0.00    -0.070 Cl
ATOM      2 CL   UNL     1      34.771 -23.953 -11.972  0.00  0.00    -0.070 Cl
ATOM      3  C   UNL     1      37.068 -23.912 -13.432  0.00  0.00    +0.087 C 
ATOM      4  C   UNL     1      35.745 -24.156 -13.395  0.00  0.00    +0.118 C 
ENDROOT
BRANCH   3   6
ATOM      5  O   UNL     1      38.179 -22.383 -11.939  0.00  0.00    -0.245 OA
ATOM      6  C   UNL     1      37.771 -23.506 -12.186  0.00  0.00    +0.336 C 
BRANCH   6   7
ATOM      7  O   UNL     1      37.881 -24.570 -11.358  0.00  0.00    -0.477 OA
ATOM      8  H   UNL     1      38.216 -24.456 -10.490  0.00  0.00    +0.295 HD
ENDBRANCH   6   7
ENDBRANCH   3   6
BRANCH   3   9
ATOM      9  C   UNL     1      37.946 -24.062 -14.643  0.00  0.00    +0.150 C 
BRANCH   9  10
ATOM     10  P   UNL     1      38.519 -25.767 -14.705  0.00  0.00    +0.341 P 
ATOM     11  O   UNL     1      38.659 -26.408 -13.367  0.00  0.00    -0.258 OA
BRANCH  10  12
ATOM     12  O   UNL     1      39.869 -25.655 -15.578  0.00  0.00    -0.323 OA
ATOM     13  H   UNL     1      40.637 -25.829 -15.011  0.00  0.00    +0.220 HD
ENDBRANCH  10  12
BRANCH  10  14
ATOM     14  O   UNL     1      37.466 -26.457 -15.711  0.00  0.00    -0.323 OA
ATOM     15  H   UNL     1      37.780 -26.361 -16.624  0.00  0.00    +0.220 HD
ENDBRANCH  10  14
ENDBRANCH   9  10
ENDBRANCH   3   9
TORSDOF 6
ENDMDL
MODEL 7
REMARK VINA RESULT:      -6.0      3.082      4.167
REMARK  Name = 367584
REMARK  6 active torsions:
REMARK  status: ('A' for Active; 'I' for Inactive)
REMARK    1  A    between atoms: C_3  and  C_6
REMARK    2  A    between atoms: C_3  and  C_9
REMARK    3  A    between atoms: C_6  and  O_7
REMARK    4  A    between atoms: C_9  and  P_10
REMARK    5  A    between atoms: P_10  and  O_12
REMARK    6  A    between atoms: P_10  and  O_14
REMARK                            x       y       z     vdW  Elec       q    Type
REMARK                         _______ _______ _______ _____ _____    ______ ____
ROOT
ATOM      1 CL   UNL     1      35.234 -22.755 -15.095  0.00  0.00    -0.070 Cl
ATOM      2 CL   UNL     1      37.904 -22.646 -16.291  0.00  0.00    -0.070 Cl
ATOM      3  C   UNL     1      37.197 -24.470 -14.398  0.00  0.00    +0.087 C 
ATOM      4  C   UNL     1      36.841 -23.414 -15.153  0.00  0.00    +0.118 C 
ENDROOT
BRANCH   3   6
ATOM      5  O   UNL     1      39.523 -24.609 -13.787  0.00  0.00    -0.245 OA
ATOM      6  C   UNL     1      38.589 -24.987 -14.476  0.00  0.00    +0.336 C 
BRANCH   6   7
ATOM      7  O   UNL     1      38.664 -25.953 -15.421  0.00  0.00    -0.477 OA
ATOM      8  H   UNL     1      38.194 -26.755 -15.308  0.00  0.00    +0.295 HD
ENDBRANCH   6   7
ENDBRANCH   3   6
BRANCH   3   9
ATOM      9  C   UNL     1      36.308 -25.172 -13.411  0.00  0.00    +0.150 C 
BRANCH   9  10
ATOM     10  P   UNL     1      36.485 -24.350 -11.820  0.00  0.00    +0.341 P 
ATOM     11  O   UNL     1      36.395 -22.863 -11.894  0.00  0.00    -0.258 OA
BRANCH  10  12
ATOM     12  O   UNL     1      37.877 -24.946 -11.267  0.00  0.00    -0.323 OA
ATOM     13  H   UNL     1      37.704 -25.754 -10.759  0.00  0.00    +0.220 HD
ENDBRANCH  10  12
BRANCH  10  14
ATOM     14  O   UNL     1      35.367 -25.080 -10.918  0.00  0.00    -0.323 OA
ATOM     15  H   UNL     1      35.380 -24.707 -10.022  0.00  0.00    +0.220 HD
ENDBRANCH  10  14
ENDBRANCH   9  10
ENDBRANCH   3   9
TORSDOF 6
ENDMDL
MODEL 8
REMARK VINA RESULT:      -5.9      2.351      3.433
REMARK  Name = 367584
REMARK  6 active torsions:
REMARK  status: ('A' for Active; 'I' for Inactive)
REMARK    1  A    between atoms: C_3  and  C_6
REMARK    2  A    between atoms: C_3  and  C_9
REMARK    3  A    between atoms: C_6  and  O_7
REMARK    4  A    between atoms: C_9  and  P_10
REMARK    5  A    between atoms: P_10  and  O_12
REMARK    6  A    between atoms: P_10  and  O_14
REMARK                            x       y       z     vdW  Elec       q    Type
REMARK                         _______ _______ _______ _____ _____    ______ ____
ROOT
ATOM      1 CL   UNL     1      37.381 -22.592 -15.123  0.00  0.00    -0.070 Cl
ATOM      2 CL   UNL     1      37.610 -22.576 -12.205  0.00  0.00    -0.070 Cl
ATOM      3  C   UNL     1      36.343 -24.551 -13.585  0.00  0.00    +0.087 C 
ATOM      4  C   UNL     1      37.008 -23.380 -13.621  0.00  0.00    +0.118 C 
ENDROOT
BRANCH   3   6
ATOM      5  O   UNL     1      36.822 -25.833 -11.603  0.00  0.00    -0.245 OA
ATOM      6  C   UNL     1      36.039 -25.178 -12.272  0.00  0.00    +0.336 C 
BRANCH   6   7
ATOM      7  O   UNL     1      34.761 -24.903 -11.921  0.00  0.00    -0.477 OA
ATOM      8  H   UNL     1      34.350 -24.119 -12.226  0.00  0.00    +0.295 HD
ENDBRANCH   6   7
ENDBRANCH   3   6
BRANCH   3   9
ATOM      9  C   UNL     1      35.816 -25.287 -14.784  0.00  0.00    +0.150 C 
BRANCH   9  10
ATOM     10  P   UNL     1      36.965 -26.619 -15.168  0.00  0.00    +0.341 P 
ATOM     11  O   UNL     1      36.589 -27.415 -16.370  0.00  0.00    -0.258 OA
BRANCH  10  12
ATOM     12  O   UNL     1      37.040 -27.432 -13.778  0.00  0.00    -0.323 OA
ATOM     13  H   UNL     1      37.891 -27.258 -13.346  0.00  0.00    +0.220 HD
ENDBRANCH  10  12
BRANCH  10  14
ATOM     14  O   UNL     1      38.381 -25.853 -15.243  0.00  0.00    -0.323 OA
ATOM     15  H   UNL     1      38.994 -26.362 -15.797  0.00  0.00    +0.220 HD
ENDBRANCH  10  14
ENDBRANCH   9  10
ENDBRANCH   3   9
TORSDOF 6
ENDMDL
MODEL 9
REMARK VINA RESULT:      -5.9      3.362      3.925
REMARK  Name = 367584
REMARK  6 active torsions:
REMARK  status: ('A' for Active; 'I' for Inactive)
REMARK    1  A    between atoms: C_3  and  C_6
REMARK    2  A    between atoms: C_3  and  C_9
REMARK    3  A    between atoms: C_6  and  O_7
REMARK    4  A    between atoms: C_9  and  P_10
REMARK    5  A    between atoms: P_10  and  O_12
REMARK    6  A    between atoms: P_10  and  O_14
REMARK                            x       y       z     vdW  Elec       q    Type
REMARK                         _______ _______ _______ _____ _____    ______ ____
ROOT
ATOM      1 CL   UNL     1      38.866 -25.914 -13.861  0.00  0.00    -0.070 Cl
ATOM      2 CL   UNL     1      36.873 -27.045 -15.684  0.00  0.00    -0.070 Cl
ATOM      3  C   UNL     1      36.515 -24.690 -14.367  0.00  0.00    +0.087 C 
ATOM      4  C   UNL     1      37.300 -25.759 -14.598  0.00  0.00    +0.118 C 
ENDROOT
BRANCH   3   6
ATOM      5  O   UNL     1      34.950 -24.126 -16.110  0.00  0.00    -0.245 OA
ATOM      6  C   UNL     1      35.178 -24.612 -15.013  0.00  0.00    +0.336 C 
BRANCH   6   7
ATOM      7  O   UNL     1      34.248 -25.173 -14.206  0.00  0.00    -0.477 OA
ATOM      8  H   UNL     1      34.514 -25.730 -13.502  0.00  0.00    +0.295 HD
ENDBRANCH   6   7
ENDBRANCH   3   6
BRANCH   3   9
ATOM      9  C   UNL     1      36.849 -23.549 -13.447  0.00  0.00    +0.150 C 
BRANCH   9  10
ATOM     10  P   UNL     1      36.295 -23.990 -11.792  0.00  0.00    +0.341 P 
ATOM     11  O   UNL     1      36.488 -25.429 -11.453  0.00  0.00    -0.258 OA
BRANCH  10  12
ATOM     12  O   UNL     1      34.773 -23.459 -11.776  0.00  0.00    -0.323 OA
ATOM     13  H   UNL     1      34.268 -23.905 -12.474  0.00  0.00    +0.220 HD
ENDBRANCH  10  12
BRANCH  10  14
ATOM     14  O   UNL     1      37.082 -22.934 -10.863  0.00  0.00    -0.323 OA
ATOM     15  H   UNL     1      37.232 -22.115 -11.360  0.00  0.00    +0.220 HD
ENDBRANCH  10  14
ENDBRANCH   9  10
ENDBRANCH   3   9
TORSDOF 6
ENDMDL
