MODEL 1
REMARK VINA RESULT:      -6.9      0.000      0.000
REMARK  Name = 11400
REMARK  4 active torsions:
REMARK  status: ('A' for Active; 'I' for Inactive)
REMARK    1  A    between atoms: C_1  and  C_11
REMARK    2  A    between atoms: C_3  and  N_7
REMARK    3  A    between atoms: C_11  and  O_12
REMARK    4  A    between atoms: O_12  and  C_13
REMARK                            x       y       z     vdW  Elec       q    Type
REMARK                         _______ _______ _______ _____ _____    ______ ____
ROOT
ATOM      1  C   UNL     1      34.549 -19.916 -20.742  0.00  0.00    +0.077 C 
ATOM      2  C   UNL     1      33.477 -20.569 -20.135  0.00  0.00    +0.021 C 
ATOM      3  C   UNL     1      33.710 -21.630 -19.260  0.00  0.00    +0.042 C 
ATOM      4  C   UNL     1      35.855 -20.324 -20.474  0.00  0.00    +0.007 C 
ATOM      5  C   UNL     1      35.017 -22.037 -18.992  0.00  0.00    +0.014 C 
ATOM      6  C   UNL     1      36.090 -21.385 -19.600  0.00  0.00    +0.001 C 
ENDROOT
BRANCH   3   7
ATOM      7  N   UNL     1      32.626 -22.292 -18.647  0.00  0.00    -0.357 N 
ATOM      8  H   UNL     1      32.562 -23.273 -18.687  0.00  0.00    +0.142 HD
ATOM      9  H   UNL     1      31.932 -21.772 -18.180  0.00  0.00    +0.142 HD
ENDBRANCH   3   7
BRANCH   1  11
ATOM     10  O   UNL     1      34.024 -17.658 -21.297  0.00  0.00    -0.245 OA
ATOM     11  C   UNL     1      34.305 -18.809 -21.653  0.00  0.00    +0.341 C 
BRANCH  11  12
ATOM     12  O   UNL     1      34.427 -19.197 -22.960  0.00  0.00    -0.445 OA
BRANCH  12  13
ATOM     13  C   UNL     1      35.250 -18.382 -23.802  0.00  0.00    +0.209 C 
ATOM     14  C   UNL     1      34.468 -18.012 -25.044  0.00  0.00    +0.051 C 
ENDBRANCH  12  13
ENDBRANCH  11  12
ENDBRANCH   1  11
TORSDOF 4
ENDMDL
MODEL 2
REMARK VINA RESULT:      -6.9      1.226      1.998
REMARK  Name = 11400
REMARK  4 active torsions:
REMARK  status: ('A' for Active; 'I' for Inactive)
REMARK    1  A    between atoms: C_1  and  C_11
REMARK    2  A    between atoms: C_3  and  N_7
REMARK    3  A    between atoms: C_11  and  O_12
REMARK    4  A    between atoms: O_12  and  C_13
REMARK                            x       y       z     vdW  Elec       q    Type
REMARK                         _______ _______ _______ _____ _____    ______ ____
ROOT
ATOM      1  C   UNL     1      34.591 -19.921 -20.862  0.00  0.00    +0.077 C 
ATOM      2  C   UNL     1      33.509 -20.553 -20.251  0.00  0.00    +0.021 C 
ATOM      3  C   UNL     1      33.729 -21.562 -19.313  0.00  0.00    +0.042 C 
ATOM      4  C   UNL     1      35.894 -20.297 -20.536  0.00  0.00    +0.007 C 
ATOM      5  C   UNL     1      35.032 -21.938 -18.987  0.00  0.00    +0.014 C 
ATOM      6  C   UNL     1      36.115 -21.306 -19.599  0.00  0.00    +0.001 C 
ENDROOT
BRANCH   3   7
ATOM      7  N   UNL     1      32.635 -22.203 -18.695  0.00  0.00    -0.357 N 
ATOM      8  H   UNL     1      32.350 -23.093 -19.002  0.00  0.00    +0.142 HD
ATOM      9  H   UNL     1      32.156 -21.758 -17.958  0.00  0.00    +0.142 HD
ENDBRANCH   3   7
BRANCH   1  11
ATOM     10  O   UNL     1      34.507 -19.003 -23.061  0.00  0.00    -0.245 OA
ATOM     11  C   UNL     1      34.362 -18.868 -21.839  0.00  0.00    +0.341 C 
BRANCH  11  12
ATOM     12  O   UNL     1      33.963 -17.704 -21.241  0.00  0.00    -0.445 OA
BRANCH  12  13
ATOM     13  C   UNL     1      34.966 -16.702 -21.041  0.00  0.00    +0.209 C 
ATOM     14  C   UNL     1      34.301 -15.426 -20.572  0.00  0.00    +0.051 C 
ENDBRANCH  12  13
ENDBRANCH  11  12
ENDBRANCH   1  11
TORSDOF 4
ENDMDL
MODEL 3
REMARK VINA RESULT:      -6.8      3.324      5.402
REMARK  Name = 11400
REMARK  4 active torsions:
REMARK  status: ('A' for Active; 'I' for Inactive)
REMARK    1  A    between atoms: C_1  and  C_11
REMARK    2  A    between atoms: C_3  and  N_7
REMARK    3  A    between atoms: C_11  and  O_12
REMARK    4  A    between atoms: O_12  and  C_13
REMARK                            x       y       z     vdW  Elec       q    Type
REMARK                         _______ _______ _______ _____ _____    ______ ____
ROOT
ATOM      1  C   UNL     1      34.419 -21.250 -19.708  0.00  0.00    +0.077 C 
ATOM      2  C   UNL     1      35.498 -20.526 -20.214  0.00  0.00    +0.021 C 
ATOM      3  C   UNL     1      35.273 -19.391 -20.993  0.00  0.00    +0.042 C 
ATOM      4  C   UNL     1      33.115 -20.840 -19.981  0.00  0.00    +0.007 C 
ATOM      5  C   UNL     1      33.968 -18.980 -21.265  0.00  0.00    +0.014 C 
ATOM      6  C   UNL     1      32.888 -19.705 -20.759  0.00  0.00    +0.001 C 
ENDROOT
BRANCH   3   7
ATOM      7  N   UNL     1      36.364 -18.658 -21.506  0.00  0.00    -0.357 N 
ATOM      8  H   UNL     1      36.996 -19.087 -22.126  0.00  0.00    +0.142 HD
ATOM      9  H   UNL     1      36.493 -17.718 -21.242  0.00  0.00    +0.142 HD
ENDBRANCH   3   7
BRANCH   1  11
ATOM     10  O   UNL     1      33.858 -23.374 -18.784  0.00  0.00    -0.245 OA
ATOM     11  C   UNL     1      34.654 -22.433 -18.896  0.00  0.00    +0.341 C 
BRANCH  11  12
ATOM     12  O   UNL     1      35.868 -22.379 -18.267  0.00  0.00    -0.445 OA
BRANCH  12  13
ATOM     13  C   UNL     1      35.860 -22.450 -16.837  0.00  0.00    +0.209 C 
ATOM     14  C   UNL     1      37.214 -22.020 -16.315  0.00  0.00    +0.051 C 
ENDBRANCH  12  13
ENDBRANCH  11  12
ENDBRANCH   1  11
TORSDOF 4
ENDMDL
MODEL 4
REMARK VINA RESULT:      -6.8      3.271      5.521
REMARK  Name = 11400
REMARK  4 active torsions:
REMARK  status: ('A' for Active; 'I' for Inactive)
REMARK    1  A    between atoms: C_1  and  C_11
REMARK    2  A    between atoms: C_3  and  N_7
REMARK    3  A    between atoms: C_11  and  O_12
REMARK    4  A    between atoms: O_12  and  C_13
REMARK                            x       y       z     vdW  Elec       q    Type
REMARK                         _______ _______ _______ _____ _____    ______ ____
ROOT
ATOM      1  C   UNL     1      33.952 -21.320 -19.829  0.00  0.00    +0.077 C 
ATOM      2  C   UNL     1      35.301 -20.990 -19.953  0.00  0.00    +0.021 C 
ATOM      3  C   UNL     1      35.672 -19.793 -20.565  0.00  0.00    +0.042 C 
ATOM      4  C   UNL     1      32.974 -20.454 -20.318  0.00  0.00    +0.007 C 
ATOM      5  C   UNL     1      34.694 -18.926 -21.053  0.00  0.00    +0.014 C 
ATOM      6  C   UNL     1      33.344 -19.257 -20.930  0.00  0.00    +0.001 C 
ENDROOT
BRANCH   3   7
ATOM      7  N   UNL     1      37.037 -19.458 -20.692  0.00  0.00    -0.357 N 
ATOM      8  H   UNL     1      37.633 -20.022 -21.236  0.00  0.00    +0.142 HD
ATOM      9  H   UNL     1      37.393 -18.662 -20.235  0.00  0.00    +0.142 HD
ENDBRANCH   3   7
BRANCH   1  11
ATOM     10  O   UNL     1      34.056 -23.673 -19.456  0.00  0.00    -0.245 OA
ATOM     11  C   UNL     1      33.564 -22.568 -19.191  0.00  0.00    +0.341 C 
BRANCH  11  12
ATOM     12  O   UNL     1      32.585 -22.371 -18.255  0.00  0.00    -0.445 OA
BRANCH  12  13
ATOM     13  C   UNL     1      32.658 -23.165 -17.066  0.00  0.00    +0.209 C 
ATOM     14  C   UNL     1      31.327 -23.099 -16.348  0.00  0.00    +0.051 C 
ENDBRANCH  12  13
ENDBRANCH  11  12
ENDBRANCH   1  11
TORSDOF 4
ENDMDL
MODEL 5
REMARK VINA RESULT:      -6.6      2.126      2.821
REMARK  Name = 11400
REMARK  4 active torsions:
REMARK  status: ('A' for Active; 'I' for Inactive)
REMARK    1  A    between atoms: C_1  and  C_11
REMARK    2  A    between atoms: C_3  and  N_7
REMARK    3  A    between atoms: C_11  and  O_12
REMARK    4  A    between atoms: O_12  and  C_13
REMARK                            x       y       z     vdW  Elec       q    Type
REMARK                         _______ _______ _______ _____ _____    ______ ____
ROOT
ATOM      1  C   UNL     1      35.126 -18.350 -21.131  0.00  0.00    +0.077 C 
ATOM      2  C   UNL     1      33.911 -19.005 -20.931  0.00  0.00    +0.021 C 
ATOM      3  C   UNL     1      33.895 -20.313 -20.447  0.00  0.00    +0.042 C 
ATOM      4  C   UNL     1      36.325 -19.003 -20.848  0.00  0.00    +0.007 C 
ATOM      5  C   UNL     1      35.094 -20.965 -20.162  0.00  0.00    +0.014 C 
ATOM      6  C   UNL     1      36.310 -20.311 -20.363  0.00  0.00    +0.001 C 
ENDROOT
BRANCH   3   7
ATOM      7  N   UNL     1      32.666 -20.976 -20.245  0.00  0.00    -0.357 N 
ATOM      8  H   UNL     1      32.657 -21.910 -19.934  0.00  0.00    +0.142 HD
ATOM      9  H   UNL     1      31.818 -20.505 -20.416  0.00  0.00    +0.142 HD
ENDBRANCH   3   7
BRANCH   1  11
ATOM     10  O   UNL     1      35.240 -16.684 -22.832  0.00  0.00    -0.245 OA
ATOM     11  C   UNL     1      35.143 -16.986 -21.636  0.00  0.00    +0.341 C 
BRANCH  11  12
ATOM     12  O   UNL     1      35.038 -16.073 -20.622  0.00  0.00    -0.445 OA
BRANCH  12  13
ATOM     13  C   UNL     1      34.235 -14.916 -20.876  0.00  0.00    +0.209 C 
ATOM     14  C   UNL     1      32.777 -15.275 -20.683  0.00  0.00    +0.051 C 
ENDBRANCH  12  13
ENDBRANCH  11  12
ENDBRANCH   1  11
TORSDOF 4
ENDMDL
MODEL 6
REMARK VINA RESULT:      -6.6      1.431      2.052
REMARK  Name = 11400
REMARK  4 active torsions:
REMARK  status: ('A' for Active; 'I' for Inactive)
REMARK    1  A    between atoms: C_1  and  C_11
REMARK    2  A    between atoms: C_3  and  N_7
REMARK    3  A    between atoms: C_11  and  O_12
REMARK    4  A    between atoms: O_12  and  C_13
REMARK                            x       y       z     vdW  Elec       q    Type
REMARK                         _______ _______ _______ _____ _____    ______ ____
ROOT
ATOM      1  C   UNL     1      34.787 -19.160 -21.231  0.00  0.00    +0.077 C 
ATOM      2  C   UNL     1      35.756 -19.932 -20.591  0.00  0.00    +0.021 C 
ATOM      3  C   UNL     1      35.373 -20.999 -19.779  0.00  0.00    +0.042 C 
ATOM      4  C   UNL     1      33.434 -19.455 -21.058  0.00  0.00    +0.007 C 
ATOM      5  C   UNL     1      34.021 -21.295 -19.607  0.00  0.00    +0.014 C 
ATOM      6  C   UNL     1      33.051 -20.522 -20.246  0.00  0.00    +0.001 C 
ENDROOT
BRANCH   3   7
ATOM      7  N   UNL     1      36.353 -21.780 -19.131  0.00  0.00    -0.357 N 
ATOM      8  H   UNL     1      36.082 -22.501 -18.518  0.00  0.00    +0.142 HD
ATOM      9  H   UNL     1      37.309 -21.603 -19.291  0.00  0.00    +0.142 HD
ENDBRANCH   3   7
BRANCH   1  11
ATOM     10  O   UNL     1      35.102 -16.856 -21.755  0.00  0.00    -0.245 OA
ATOM     11  C   UNL     1      35.185 -18.048 -22.079  0.00  0.00    +0.341 C 
BRANCH  11  12
ATOM     12  O   UNL     1      35.667 -18.480 -23.284  0.00  0.00    -0.445 OA
BRANCH  12  13
ATOM     13  C   UNL     1      34.707 -18.694 -24.325  0.00  0.00    +0.209 C 
ATOM     14  C   UNL     1      34.604 -17.438 -25.165  0.00  0.00    +0.051 C 
ENDBRANCH  12  13
ENDBRANCH  11  12
ENDBRANCH   1  11
TORSDOF 4
ENDMDL
MODEL 7
REMARK VINA RESULT:      -6.5      3.070      5.379
REMARK  Name = 11400
REMARK  4 active torsions:
REMARK  status: ('A' for Active; 'I' for Inactive)
REMARK    1  A    between atoms: C_1  and  C_11
REMARK    2  A    between atoms: C_3  and  N_7
REMARK    3  A    between atoms: C_11  and  O_12
REMARK    4  A    between atoms: O_12  and  C_13
REMARK                            x       y       z     vdW  Elec       q    Type
REMARK                         _______ _______ _______ _____ _____    ______ ____
ROOT
ATOM      1  C   UNL     1      35.039 -18.154 -22.726  0.00  0.00    +0.077 C 
ATOM      2  C   UNL     1      34.810 -16.780 -22.695  0.00  0.00    +0.021 C 
ATOM      3  C   UNL     1      34.431 -16.109 -23.858  0.00  0.00    +0.042 C 
ATOM      4  C   UNL     1      34.891 -18.859 -23.921  0.00  0.00    +0.007 C 
ATOM      5  C   UNL     1      34.282 -16.814 -25.052  0.00  0.00    +0.014 C 
ATOM      6  C   UNL     1      34.513 -18.190 -25.084  0.00  0.00    +0.001 C 
ENDROOT
BRANCH   3   7
ATOM      7  N   UNL     1      34.200 -14.718 -23.828  0.00  0.00    -0.357 N 
ATOM      8  H   UNL     1      33.331 -14.357 -24.119  0.00  0.00    +0.142 HD
ATOM      9  H   UNL     1      34.907 -14.108 -23.516  0.00  0.00    +0.142 HD
ENDBRANCH   3   7
BRANCH   1  11
ATOM     10  O   UNL     1      36.131 -18.362 -20.617  0.00  0.00    -0.245 OA
ATOM     11  C   UNL     1      35.433 -18.854 -21.514  0.00  0.00    +0.341 C 
BRANCH  11  12
ATOM     12  O   UNL     1      34.936 -20.128 -21.484  0.00  0.00    -0.445 OA
BRANCH  12  13
ATOM     13  C   UNL     1      34.218 -20.514 -20.307  0.00  0.00    +0.209 C 
ATOM     14  C   UNL     1      32.765 -20.116 -20.463  0.00  0.00    +0.051 C 
ENDBRANCH  12  13
ENDBRANCH  11  12
ENDBRANCH   1  11
TORSDOF 4
ENDMDL
MODEL 8
REMARK VINA RESULT:      -6.5      3.326      5.447
REMARK  Name = 11400
REMARK  4 active torsions:
REMARK  status: ('A' for Active; 'I' for Inactive)
REMARK    1  A    between atoms: C_1  and  C_11
REMARK    2  A    between atoms: C_3  and  N_7
REMARK    3  A    between atoms: C_11  and  O_12
REMARK    4  A    between atoms: O_12  and  C_13
REMARK                            x       y       z     vdW  Elec       q    Type
REMARK                         _______ _______ _______ _____ _____    ______ ____
ROOT
ATOM      1  C   UNL     1      34.295 -21.698 -19.120  0.00  0.00    +0.077 C 
ATOM      2  C   UNL     1      33.719 -20.786 -20.002  0.00  0.00    +0.021 C 
ATOM      3  C   UNL     1      34.530 -19.971 -20.792  0.00  0.00    +0.042 C 
ATOM      4  C   UNL     1      35.683 -21.797 -19.027  0.00  0.00    +0.007 C 
ATOM      5  C   UNL     1      35.918 -20.070 -20.699  0.00  0.00    +0.014 C 
ATOM      6  C   UNL     1      36.495 -20.983 -19.816  0.00  0.00    +0.001 C 
ENDROOT
BRANCH   3   7
ATOM      7  N   UNL     1      33.947 -19.046 -21.684  0.00  0.00    -0.357 N 
ATOM      8  H   UNL     1      34.520 -18.447 -22.214  0.00  0.00    +0.142 HD
ATOM      9  H   UNL     1      32.967 -19.000 -21.775  0.00  0.00    +0.142 HD
ENDBRANCH   3   7
BRANCH   1  11
ATOM     10  O   UNL     1      32.217 -22.456 -18.231  0.00  0.00    -0.245 OA
ATOM     11  C   UNL     1      33.450 -22.549 -18.297  0.00  0.00    +0.341 C 
BRANCH  11  12
ATOM     12  O   UNL     1      34.186 -23.469 -17.602  0.00  0.00    -0.445 OA
BRANCH  12  13
ATOM     13  C   UNL     1      33.988 -23.519 -16.185  0.00  0.00    +0.209 C 
ATOM     14  C   UNL     1      35.198 -22.923 -15.497  0.00  0.00    +0.051 C 
ENDBRANCH  12  13
ENDBRANCH  11  12
ENDBRANCH   1  11
TORSDOF 4
ENDMDL
MODEL 9
REMARK VINA RESULT:      -6.4      3.241      5.328
REMARK  Name = 11400
REMARK  4 active torsions:
REMARK  status: ('A' for Active; 'I' for Inactive)
REMARK    1  A    between atoms: C_1  and  C_11
REMARK    2  A    between atoms: C_3  and  N_7
REMARK    3  A    between atoms: C_11  and  O_12
REMARK    4  A    between atoms: O_12  and  C_13
REMARK                            x       y       z     vdW  Elec       q    Type
REMARK                         _______ _______ _______ _____ _____    ______ ____
ROOT
ATOM      1  C   UNL     1      35.168 -17.890 -21.731  0.00  0.00    +0.077 C 
ATOM      2  C   UNL     1      35.221 -17.862 -23.124  0.00  0.00    +0.021 C 
ATOM      3  C   UNL     1      34.968 -16.673 -23.808  0.00  0.00    +0.042 C 
ATOM      4  C   UNL     1      34.863 -16.729 -21.022  0.00  0.00    +0.007 C 
ATOM      5  C   UNL     1      34.664 -15.512 -23.099  0.00  0.00    +0.014 C 
ATOM      6  C   UNL     1      34.610 -15.539 -21.705  0.00  0.00    +0.001 C 
ENDROOT
BRANCH   3   7
ATOM      7  N   UNL     1      35.020 -16.645 -25.218  0.00  0.00    -0.357 N 
ATOM      8  H   UNL     1      35.730 -16.137 -25.674  0.00  0.00    +0.142 HD
ATOM      9  H   UNL     1      34.346 -17.132 -25.745  0.00  0.00    +0.142 HD
ENDBRANCH   3   7
BRANCH   1  11
ATOM     10  O   UNL     1      36.368 -19.294 -20.224  0.00  0.00    -0.245 OA
ATOM     11  C   UNL     1      35.432 -19.129 -21.018  0.00  0.00    +0.341 C 
BRANCH  11  12
ATOM     12  O   UNL     1      34.515 -20.095 -21.330  0.00  0.00    -0.445 OA
BRANCH  12  13
ATOM     13  C   UNL     1      33.316 -20.124 -20.549  0.00  0.00    +0.209 C 
ATOM     14  C   UNL     1      33.396 -21.273 -19.566  0.00  0.00    +0.051 C 
ENDBRANCH  12  13
ENDBRANCH  11  12
ENDBRANCH   1  11
TORSDOF 4
ENDMDL
