MODEL 1
REMARK VINA RESULT:      -8.7      0.000      0.000
REMARK  Name = 5560
REMARK  3 active torsions:
REMARK  status: ('A' for Active; 'I' for Inactive)
REMARK    1  A    between atoms: C_7  and  C_18
REMARK    2  A    between atoms: C_11  and  S_19
REMARK    3  A    between atoms: S_19  and  N_22
REMARK                            x       y       z     vdW  Elec       q    Type
REMARK                         _______ _______ _______ _____ _____    ______ ____
ROOT
ATOM      1 CL   UNL     1      30.279 -23.816 -12.971  0.00  0.00    -0.081 Cl
ATOM      2  S   UNL     1      33.643 -22.904 -18.173  0.00  0.00    +0.063 S 
ATOM      3  O   UNL     1      33.087 -21.735 -18.826  0.00  0.00    -0.153 OA
ATOM      4  O   UNL     1      33.736 -24.184 -18.849  0.00  0.00    -0.153 OA
ATOM      5  N   UNL     1      35.167 -22.486 -17.523  0.00  0.00    -0.160 NA
ATOM      6  N   UNL     1      34.763 -23.472 -15.337  0.00  0.00    -0.318 N 
ATOM      7  C   UNL     1      35.666 -23.399 -16.471  0.00  0.00    +0.178 C 
ATOM      8  C   UNL     1      32.722 -23.190 -16.695  0.00  0.00    +0.136 C 
ATOM      9  C   UNL     1      33.384 -23.441 -15.482  0.00  0.00    +0.065 C 
ATOM     10  C   UNL     1      31.328 -23.133 -16.785  0.00  0.00    +0.042 C 
ATOM     11  C   UNL     1      30.560 -23.329 -15.643  0.00  0.00    +0.134 C 
ATOM     12  C   UNL     1      32.580 -23.621 -14.346  0.00  0.00    +0.028 C 
ATOM     13  C   UNL     1      31.184 -23.572 -14.423  0.00  0.00    +0.078 C 
ATOM     14  H   UNL     1      35.094 -21.551 -17.122  0.00  0.00    +0.151 HD
ATOM     15  H   UNL     1      35.144 -23.544 -14.432  0.00  0.00    +0.148 HD
ENDROOT
BRANCH   7  18
ATOM     16 CL   UNL     1      37.117 -22.927 -14.231  0.00  0.00    -0.094 Cl
ATOM     17 CL   UNL     1      37.323 -21.260 -16.610  0.00  0.00    -0.094 Cl
ATOM     18  C   UNL     1      37.030 -22.904 -16.005  0.00  0.00    +0.193 C 
ENDBRANCH   7  18
BRANCH  11  19
ATOM     19  S   UNL     1      28.816 -23.254 -15.798  0.00  0.00    +0.058 S 
ATOM     20  O   UNL     1      28.303 -24.492 -15.219  0.00  0.00    -0.153 OA
ATOM     21  O   UNL     1      28.436 -21.962 -15.237  0.00  0.00    -0.153 OA
BRANCH  19  22
ATOM     22  N   UNL     1      28.407 -23.254 -17.469  0.00  0.00    -0.203 NA
ATOM     23  H   UNL     1      28.684 -24.142 -17.887  0.00  0.00    +0.144 HD
ATOM     24  H   UNL     1      28.895 -22.491 -17.938  0.00  0.00    +0.144 HD
ENDBRANCH  19  22
ENDBRANCH  11  19
TORSDOF 3
ENDMDL
MODEL 2
REMARK VINA RESULT:      -8.3      3.676      5.371
REMARK  Name = 5560
REMARK  3 active torsions:
REMARK  status: ('A' for Active; 'I' for Inactive)
REMARK    1  A    between atoms: C_7  and  C_18
REMARK    2  A    between atoms: C_11  and  S_19
REMARK    3  A    between atoms: S_19  and  N_22
REMARK                            x       y       z     vdW  Elec       q    Type
REMARK                         _______ _______ _______ _____ _____    ______ ____
ROOT
ATOM      1 CL   UNL     1      37.811 -22.794 -14.360  0.00  0.00    -0.081 Cl
ATOM      2  S   UNL     1      33.570 -22.460 -18.953  0.00  0.00    +0.063 S 
ATOM      3  O   UNL     1      32.287 -22.230 -18.317  0.00  0.00    -0.153 OA
ATOM      4  O   UNL     1      33.796 -23.596 -19.825  0.00  0.00    -0.153 OA
ATOM      5  N   UNL     1      34.043 -21.023 -19.748  0.00  0.00    -0.160 NA
ATOM      6  N   UNL     1      36.313 -21.015 -18.878  0.00  0.00    -0.318 N 
ATOM      7  C   UNL     1      35.486 -20.934 -20.067  0.00  0.00    +0.178 C 
ATOM      8  C   UNL     1      34.795 -22.553 -17.687  0.00  0.00    +0.136 C 
ATOM      9  C   UNL     1      35.997 -21.838 -17.807  0.00  0.00    +0.065 C 
ATOM     10  C   UNL     1      34.506 -23.343 -16.571  0.00  0.00    +0.042 C 
ATOM     11  C   UNL     1      35.431 -23.430 -15.536  0.00  0.00    +0.134 C 
ATOM     12  C   UNL     1      36.904 -21.937 -16.739  0.00  0.00    +0.028 C 
ATOM     13  C   UNL     1      36.629 -22.728 -15.618  0.00  0.00    +0.078 C 
ATOM     14  H   UNL     1      33.803 -20.234 -19.147  0.00  0.00    +0.151 HD
ATOM     15  H   UNL     1      37.127 -20.464 -18.829  0.00  0.00    +0.148 HD
ENDROOT
BRANCH   7  18
ATOM     16 CL   UNL     1      34.921 -19.595 -22.355  0.00  0.00    -0.094 Cl
ATOM     17 CL   UNL     1      37.491 -19.372 -21.003  0.00  0.00    -0.094 Cl
ATOM     18  C   UNL     1      35.745 -19.613 -20.781  0.00  0.00    +0.193 C 
ENDBRANCH   7  18
BRANCH  11  19
ATOM     19  S   UNL     1      35.032 -24.434 -14.155  0.00  0.00    +0.058 S 
ATOM     20  O   UNL     1      33.627 -24.796 -14.309  0.00  0.00    -0.153 OA
ATOM     21  O   UNL     1      36.063 -25.466 -14.122  0.00  0.00    -0.153 OA
BRANCH  19  22
ATOM     22  N   UNL     1      35.172 -23.490 -12.724  0.00  0.00    -0.203 NA
ATOM     23  H   UNL     1      35.471 -22.545 -12.968  0.00  0.00    +0.144 HD
ATOM     24  H   UNL     1      35.860 -23.915 -12.103  0.00  0.00    +0.144 HD
ENDBRANCH  19  22
ENDBRANCH  11  19
TORSDOF 3
ENDMDL
MODEL 3
REMARK VINA RESULT:      -8.3      3.152      6.562
REMARK  Name = 5560
REMARK  3 active torsions:
REMARK  status: ('A' for Active; 'I' for Inactive)
REMARK    1  A    between atoms: C_7  and  C_18
REMARK    2  A    between atoms: C_11  and  S_19
REMARK    3  A    between atoms: S_19  and  N_22
REMARK                            x       y       z     vdW  Elec       q    Type
REMARK                         _______ _______ _______ _____ _____    ______ ____
ROOT
ATOM      1 CL   UNL     1      35.799 -22.606 -17.060  0.00  0.00    -0.081 Cl
ATOM      2  S   UNL     1      30.630 -24.626 -14.162  0.00  0.00    +0.063 S 
ATOM      3  O   UNL     1      30.819 -24.365 -12.749  0.00  0.00    -0.153 OA
ATOM      4  O   UNL     1      30.355 -25.959 -14.662  0.00  0.00    -0.153 OA
ATOM      5  N   UNL     1      29.458 -23.535 -14.760  0.00  0.00    -0.160 NA
ATOM      6  N   UNL     1      30.736 -22.874 -16.719  0.00  0.00    -0.318 N 
ATOM      7  C   UNL     1      29.461 -23.363 -16.230  0.00  0.00    +0.178 C 
ATOM      8  C   UNL     1      32.068 -24.062 -15.016  0.00  0.00    +0.136 C 
ATOM      9  C   UNL     1      31.946 -23.276 -16.172  0.00  0.00    +0.065 C 
ATOM     10  C   UNL     1      33.311 -24.413 -14.480  0.00  0.00    +0.042 C 
ATOM     11  C   UNL     1      34.473 -23.973 -15.104  0.00  0.00    +0.134 C 
ATOM     12  C   UNL     1      33.138 -22.837 -16.770  0.00  0.00    +0.028 C 
ATOM     13  C   UNL     1      34.389 -23.185 -16.248  0.00  0.00    +0.078 C 
ATOM     14  H   UNL     1      29.627 -22.624 -14.334  0.00  0.00    +0.151 HD
ATOM     15  H   UNL     1      30.743 -22.232 -17.466  0.00  0.00    +0.148 HD
ENDROOT
BRANCH   7  18
ATOM     16 CL   UNL     1      27.277 -22.113 -15.222  0.00  0.00    -0.094 Cl
ATOM     17 CL   UNL     1      27.436 -22.996 -17.993  0.00  0.00    -0.094 Cl
ATOM     18  C   UNL     1      28.359 -22.380 -16.606  0.00  0.00    +0.193 C 
ENDBRANCH   7  18
BRANCH  11  19
ATOM     19  S   UNL     1      36.012 -24.437 -14.405  0.00  0.00    +0.058 S 
ATOM     20  O   UNL     1      36.671 -25.280 -15.398  0.00  0.00    -0.153 OA
ATOM     21  O   UNL     1      36.627 -23.188 -13.970  0.00  0.00    -0.153 OA
BRANCH  19  22
ATOM     22  N   UNL     1      35.720 -25.405 -13.014  0.00  0.00    -0.203 NA
ATOM     23  H   UNL     1      34.718 -25.575 -12.921  0.00  0.00    +0.144 HD
ATOM     24  H   UNL     1      36.060 -24.917 -12.184  0.00  0.00    +0.144 HD
ENDBRANCH  19  22
ENDBRANCH  11  19
TORSDOF 3
ENDMDL
MODEL 4
REMARK VINA RESULT:      -7.9      3.171      5.170
REMARK  Name = 5560
REMARK  3 active torsions:
REMARK  status: ('A' for Active; 'I' for Inactive)
REMARK    1  A    between atoms: C_7  and  C_18
REMARK    2  A    between atoms: C_11  and  S_19
REMARK    3  A    between atoms: S_19  and  N_22
REMARK                            x       y       z     vdW  Elec       q    Type
REMARK                         _______ _______ _______ _____ _____    ______ ____
ROOT
ATOM      1 CL   UNL     1      36.788 -21.803 -18.234  0.00  0.00    -0.081 Cl
ATOM      2  S   UNL     1      33.002 -24.235 -13.880  0.00  0.00    +0.063 S 
ATOM      3  O   UNL     1      32.301 -25.337 -14.509  0.00  0.00    -0.153 OA
ATOM      4  O   UNL     1      32.291 -23.129 -13.269  0.00  0.00    -0.153 OA
ATOM      5  N   UNL     1      34.131 -24.877 -12.769  0.00  0.00    -0.160 NA
ATOM      6  N   UNL     1      35.992 -23.500 -13.511  0.00  0.00    -0.318 N 
ATOM      7  C   UNL     1      35.211 -23.947 -12.372  0.00  0.00    +0.178 C 
ATOM      8  C   UNL     1      34.087 -23.526 -15.078  0.00  0.00    +0.136 C 
ATOM      9  C   UNL     1      35.422 -23.245 -14.750  0.00  0.00    +0.065 C 
ATOM     10  C   UNL     1      33.566 -23.284 -16.353  0.00  0.00    +0.042 C 
ATOM     11  C   UNL     1      34.388 -22.748 -17.337  0.00  0.00    +0.134 C 
ATOM     12  C   UNL     1      36.229 -22.716 -15.770  0.00  0.00    +0.028 C 
ATOM     13  C   UNL     1      35.720 -22.464 -17.048  0.00  0.00    +0.078 C 
ATOM     14  H   UNL     1      34.561 -25.699 -13.194  0.00  0.00    +0.151 HD
ATOM     15  H   UNL     1      36.962 -23.376 -13.400  0.00  0.00    +0.148 HD
ENDROOT
BRANCH   7  18
ATOM     16 CL   UNL     1      35.584 -24.324  -9.714  0.00  0.00    -0.094 Cl
ATOM     17 CL   UNL     1      37.800 -24.120 -11.593  0.00  0.00    -0.094 Cl
ATOM     18  C   UNL     1      36.120 -24.655 -11.376  0.00  0.00    +0.193 C 
ENDBRANCH   7  18
BRANCH  11  19
ATOM     19  S   UNL     1      33.697 -22.455 -18.921  0.00  0.00    +0.058 S 
ATOM     20  O   UNL     1      34.000 -23.638 -19.721  0.00  0.00    -0.153 OA
ATOM     21  O   UNL     1      32.313 -22.067 -18.669  0.00  0.00    -0.153 OA
BRANCH  19  22
ATOM     22  N   UNL     1      34.506 -21.119 -19.641  0.00  0.00    -0.203 NA
ATOM     23  H   UNL     1      35.514 -21.242 -19.550  0.00  0.00    +0.144 HD
ATOM     24  H   UNL     1      34.225 -20.258 -19.171  0.00  0.00    +0.144 HD
ENDBRANCH  19  22
ENDBRANCH  11  19
TORSDOF 3
ENDMDL
MODEL 5
REMARK VINA RESULT:      -7.8     10.516     11.896
REMARK  Name = 5560
REMARK  3 active torsions:
REMARK  status: ('A' for Active; 'I' for Inactive)
REMARK    1  A    between atoms: C_7  and  C_18
REMARK    2  A    between atoms: C_11  and  S_19
REMARK    3  A    between atoms: S_19  and  N_22
REMARK                            x       y       z     vdW  Elec       q    Type
REMARK                         _______ _______ _______ _____ _____    ______ ____
ROOT
ATOM      1 CL   UNL     1      33.071 -10.787 -24.593  0.00  0.00    -0.081 Cl
ATOM      2  S   UNL     1      33.475 -15.832 -20.908  0.00  0.00    +0.063 S 
ATOM      3  O   UNL     1      32.135 -16.103 -20.427  0.00  0.00    -0.153 OA
ATOM      4  O   UNL     1      34.581 -15.607 -19.998  0.00  0.00    -0.153 OA
ATOM      5  N   UNL     1      33.898 -17.044 -22.037  0.00  0.00    -0.160 NA
ATOM      6  N   UNL     1      34.741 -15.506 -23.721  0.00  0.00    -0.318 N 
ATOM      7  C   UNL     1      35.021 -16.693 -22.935  0.00  0.00    +0.178 C 
ATOM      8  C   UNL     1      33.401 -14.416 -21.959  0.00  0.00    +0.136 C 
ATOM      9  C   UNL     1      34.037 -14.425 -23.210  0.00  0.00    +0.065 C 
ATOM     10  C   UNL     1      32.672 -13.315 -21.501  0.00  0.00    +0.042 C 
ATOM     11  C   UNL     1      32.565 -12.184 -22.303  0.00  0.00    +0.134 C 
ATOM     12  C   UNL     1      33.899 -13.273 -24.001  0.00  0.00    +0.028 C 
ATOM     13  C   UNL     1      33.177 -12.162 -23.553  0.00  0.00    +0.078 C 
ATOM     14  H   UNL     1      33.079 -17.238 -22.615  0.00  0.00    +0.151 HD
ATOM     15  H   UNL     1      35.060 -15.467 -24.651  0.00  0.00    +0.148 HD
ENDROOT
BRANCH   7  18
ATOM     16 CL   UNL     1      34.279 -17.735 -25.325  0.00  0.00    -0.094 Cl
ATOM     17 CL   UNL     1      34.944 -19.400 -23.029  0.00  0.00    -0.094 Cl
ATOM     18  C   UNL     1      35.285 -17.871 -23.866  0.00  0.00    +0.193 C 
ENDBRANCH   7  18
BRANCH  11  19
ATOM     19  S   UNL     1      31.646 -10.823 -21.692  0.00  0.00    +0.058 S 
ATOM     20  O   UNL     1      32.562  -9.686 -21.681  0.00  0.00    -0.153 OA
ATOM     21  O   UNL     1      30.432 -10.786 -22.500  0.00  0.00    -0.153 OA
BRANCH  19  22
ATOM     22  N   UNL     1      31.196 -11.143 -20.063  0.00  0.00    -0.203 NA
ATOM     23  H   UNL     1      31.497 -12.083 -19.805  0.00  0.00    +0.144 HD
ATOM     24  H   UNL     1      30.183 -11.073 -19.971  0.00  0.00    +0.144 HD
ENDBRANCH  19  22
ENDBRANCH  11  19
TORSDOF 3
ENDMDL
MODEL 6
REMARK VINA RESULT:      -7.6      3.114      6.611
REMARK  Name = 5560
REMARK  3 active torsions:
REMARK  status: ('A' for Active; 'I' for Inactive)
REMARK    1  A    between atoms: C_7  and  C_18
REMARK    2  A    between atoms: C_11  and  S_19
REMARK    3  A    between atoms: S_19  and  N_22
REMARK                            x       y       z     vdW  Elec       q    Type
REMARK                         _______ _______ _______ _____ _____    ______ ____
ROOT
ATOM      1 CL   UNL     1      35.482 -22.486 -18.137  0.00  0.00    -0.081 Cl
ATOM      2  S   UNL     1      30.935 -23.888 -14.068  0.00  0.00    +0.063 S 
ATOM      3  O   UNL     1      31.310 -23.285 -12.804  0.00  0.00    -0.153 OA
ATOM      4  O   UNL     1      30.679 -25.310 -14.189  0.00  0.00    -0.153 OA
ATOM      5  N   UNL     1      29.619 -23.010 -14.715  0.00  0.00    -0.160 NA
ATOM      6  N   UNL     1      30.552 -22.809 -16.950  0.00  0.00    -0.318 N 
ATOM      7  C   UNL     1      29.396 -23.201 -16.165  0.00  0.00    +0.178 C 
ATOM      8  C   UNL     1      32.193 -23.508 -15.245  0.00  0.00    +0.136 C 
ATOM      9  C   UNL     1      31.853 -23.031 -16.521  0.00  0.00    +0.065 C 
ATOM     10  C   UNL     1      33.521 -23.682 -14.845  0.00  0.00    +0.042 C 
ATOM     11  C   UNL     1      34.549 -23.374 -15.730  0.00  0.00    +0.134 C 
ATOM     12  C   UNL     1      32.913 -22.717 -17.386  0.00  0.00    +0.028 C 
ATOM     13  C   UNL     1      34.247 -22.891 -17.000  0.00  0.00    +0.078 C 
ATOM     14  H   UNL     1      29.787 -22.018 -14.548  0.00  0.00    +0.151 HD
ATOM     15  H   UNL     1      30.407 -22.369 -17.819  0.00  0.00    +0.148 HD
ENDROOT
BRANCH   7  18
ATOM     16 CL   UNL     1      27.070 -22.183 -15.218  0.00  0.00    -0.094 Cl
ATOM     17 CL   UNL     1      27.360 -23.146 -17.951  0.00  0.00    -0.094 Cl
ATOM     18  C   UNL     1      28.189 -22.371 -16.585  0.00  0.00    +0.193 C 
ENDBRANCH   7  18
BRANCH  11  19
ATOM     19  S   UNL     1      36.200 -23.609 -15.192  0.00  0.00    +0.058 S 
ATOM     20  O   UNL     1      36.209 -23.302 -13.764  0.00  0.00    -0.153 OA
ATOM     21  O   UNL     1      36.572 -24.938 -15.665  0.00  0.00    -0.153 OA
BRANCH  19  22
ATOM     22  N   UNL     1      37.209 -22.458 -15.976  0.00  0.00    -0.203 NA
ATOM     23  H   UNL     1      38.181 -22.760 -15.915  0.00  0.00    +0.144 HD
ATOM     24  H   UNL     1      37.105 -21.550 -15.522  0.00  0.00    +0.144 HD
ENDBRANCH  19  22
ENDBRANCH  11  19
TORSDOF 3
ENDMDL
MODEL 7
REMARK VINA RESULT:      -7.5      3.926      4.488
REMARK  Name = 5560
REMARK  3 active torsions:
REMARK  status: ('A' for Active; 'I' for Inactive)
REMARK    1  A    between atoms: C_7  and  C_18
REMARK    2  A    between atoms: C_11  and  S_19
REMARK    3  A    between atoms: S_19  and  N_22
REMARK                            x       y       z     vdW  Elec       q    Type
REMARK                         _______ _______ _______ _____ _____    ______ ____
ROOT
ATOM      1 CL   UNL     1      31.946 -23.519 -16.878  0.00  0.00    -0.081 Cl
ATOM      2  S   UNL     1      35.948 -24.321 -12.131  0.00  0.00    +0.063 S 
ATOM      3  O   UNL     1      35.355 -25.310 -11.252  0.00  0.00    -0.153 OA
ATOM      4  O   UNL     1      36.316 -23.001 -11.657  0.00  0.00    -0.153 OA
ATOM      5  N   UNL     1      37.280 -25.038 -12.927  0.00  0.00    -0.160 NA
ATOM      6  N   UNL     1      36.666 -24.262 -15.148  0.00  0.00    -0.318 N 
ATOM      7  C   UNL     1      37.721 -24.338 -14.155  0.00  0.00    +0.178 C 
ATOM      8  C   UNL     1      34.849 -24.073 -13.489  0.00  0.00    +0.136 C 
ATOM      9  C   UNL     1      35.335 -24.067 -14.806  0.00  0.00    +0.065 C 
ATOM     10  C   UNL     1      33.492 -23.907 -13.194  0.00  0.00    +0.042 C 
ATOM     11  C   UNL     1      32.584 -23.731 -14.232  0.00  0.00    +0.134 C 
ATOM     12  C   UNL     1      34.390 -23.899 -15.831  0.00  0.00    +0.028 C 
ATOM     13  C   UNL     1      33.030 -23.728 -15.550  0.00  0.00    +0.078 C 
ATOM     14  H   UNL     1      37.021 -25.991 -13.182  0.00  0.00    +0.151 HD
ATOM     15  H   UNL     1      36.902 -24.353 -16.099  0.00  0.00    +0.148 HD
ENDROOT
BRANCH   7  18
ATOM     16 CL   UNL     1      38.474 -26.770 -15.086  0.00  0.00    -0.094 Cl
ATOM     17 CL   UNL     1      40.280 -25.033 -13.601  0.00  0.00    -0.094 Cl
ATOM     18  C   UNL     1      38.915 -25.084 -14.736  0.00  0.00    +0.193 C 
ENDBRANCH   7  18
BRANCH  11  19
ATOM     19  S   UNL     1      30.893 -23.523 -13.822  0.00  0.00    +0.058 S 
ATOM     20  O   UNL     1      30.842 -23.368 -12.371  0.00  0.00    -0.153 OA
ATOM     21  O   UNL     1      30.414 -22.457 -14.696  0.00  0.00    -0.153 OA
BRANCH  19  22
ATOM     22  N   UNL     1      30.043 -24.965 -14.220  0.00  0.00    -0.203 NA
ATOM     23  H   UNL     1      30.091 -25.615 -13.436  0.00  0.00    +0.144 HD
ATOM     24  H   UNL     1      30.468 -25.393 -15.043  0.00  0.00    +0.144 HD
ENDBRANCH  19  22
ENDBRANCH  11  19
TORSDOF 3
ENDMDL
MODEL 8
REMARK VINA RESULT:      -7.4      3.121      6.087
REMARK  Name = 5560
REMARK  3 active torsions:
REMARK  status: ('A' for Active; 'I' for Inactive)
REMARK    1  A    between atoms: C_7  and  C_18
REMARK    2  A    between atoms: C_11  and  S_19
REMARK    3  A    between atoms: S_19  and  N_22
REMARK                            x       y       z     vdW  Elec       q    Type
REMARK                         _______ _______ _______ _____ _____    ______ ____
ROOT
ATOM      1 CL   UNL     1      35.395 -24.315 -11.862  0.00  0.00    -0.081 Cl
ATOM      2  S   UNL     1      33.100 -23.216 -17.583  0.00  0.00    +0.063 S 
ATOM      3  O   UNL     1      33.745 -24.159 -18.476  0.00  0.00    -0.153 OA
ATOM      4  O   UNL     1      33.174 -21.784 -17.803  0.00  0.00    -0.153 OA
ATOM      5  N   UNL     1      31.468 -23.684 -17.390  0.00  0.00    -0.160 NA
ATOM      6  N   UNL     1      31.457 -23.489 -14.967  0.00  0.00    -0.318 N 
ATOM      7  C   UNL     1      30.794 -23.115 -16.202  0.00  0.00    +0.178 C 
ATOM      8  C   UNL     1      33.719 -23.500 -15.955  0.00  0.00    +0.136 C 
ATOM      9  C   UNL     1      32.837 -23.593 -14.866  0.00  0.00    +0.065 C 
ATOM     10  C   UNL     1      35.101 -23.647 -15.809  0.00  0.00    +0.042 C 
ATOM     11  C   UNL     1      35.634 -23.895 -14.549  0.00  0.00    +0.134 C 
ATOM     12  C   UNL     1      33.406 -23.857 -13.609  0.00  0.00    +0.028 C 
ATOM     13  C   UNL     1      34.788 -24.001 -13.449  0.00  0.00    +0.078 C 
ATOM     14  H   UNL     1      31.438 -24.701 -17.314  0.00  0.00    +0.151 HD
ATOM     15  H   UNL     1      30.908 -23.677 -14.172  0.00  0.00    +0.148 HD
ENDROOT
BRANCH   7  18
ATOM     16 CL   UNL     1      28.252 -22.273 -15.782  0.00  0.00    -0.094 Cl
ATOM     17 CL   UNL     1      29.177 -24.918 -14.987  0.00  0.00    -0.094 Cl
ATOM     18  C   UNL     1      29.353 -23.611 -16.177  0.00  0.00    +0.193 C 
ENDBRANCH   7  18
BRANCH  11  19
ATOM     19  S   UNL     1      37.372 -24.070 -14.408  0.00  0.00    +0.058 S 
ATOM     20  O   UNL     1      37.784 -23.173 -13.332  0.00  0.00    -0.153 OA
ATOM     21  O   UNL     1      37.606 -25.506 -14.303  0.00  0.00    -0.153 OA
BRANCH  19  22
ATOM     22  N   UNL     1      38.106 -23.511 -15.859  0.00  0.00    -0.203 NA
ATOM     23  H   UNL     1      39.108 -23.395 -15.711  0.00  0.00    +0.144 HD
ATOM     24  H   UNL     1      37.696 -22.615 -16.124  0.00  0.00    +0.144 HD
ENDBRANCH  19  22
ENDBRANCH  11  19
TORSDOF 3
ENDMDL
MODEL 9
REMARK VINA RESULT:      -7.1     11.955     13.438
REMARK  Name = 5560
REMARK  3 active torsions:
REMARK  status: ('A' for Active; 'I' for Inactive)
REMARK    1  A    between atoms: C_7  and  C_18
REMARK    2  A    between atoms: C_11  and  S_19
REMARK    3  A    between atoms: S_19  and  N_22
REMARK                            x       y       z     vdW  Elec       q    Type
REMARK                         _______ _______ _______ _____ _____    ______ ____
ROOT
ATOM      1 CL   UNL     1      34.828 -15.264 -24.111  0.00  0.00    -0.081 Cl
ATOM      2  S   UNL     1      31.413 -11.156 -20.847  0.00  0.00    +0.063 S 
ATOM      3  O   UNL     1      31.896 -11.208 -19.481  0.00  0.00    -0.153 OA
ATOM      4  O   UNL     1      30.022 -11.404 -21.173  0.00  0.00    -0.153 OA
ATOM      5  N   UNL     1      31.910  -9.675 -21.539  0.00  0.00    -0.160 NA
ATOM      6  N   UNL     1      32.752 -10.655 -23.599  0.00  0.00    -0.318 N 
ATOM      7  C   UNL     1      31.890  -9.642 -23.019  0.00  0.00    +0.178 C 
ATOM      8  C   UNL     1      32.359 -12.299 -21.802  0.00  0.00    +0.136 C 
ATOM      9  C   UNL     1      32.896 -11.917 -23.041  0.00  0.00    +0.065 C 
ATOM     10  C   UNL     1      32.561 -13.573 -21.263  0.00  0.00    +0.042 C 
ATOM     11  C   UNL     1      33.319 -14.502 -21.968  0.00  0.00    +0.134 C 
ATOM     12  C   UNL     1      33.667 -12.873 -23.721  0.00  0.00    +0.028 C 
ATOM     13  C   UNL     1      33.873 -14.154 -23.196  0.00  0.00    +0.078 C 
ATOM     14  H   UNL     1      32.865  -9.486 -21.232  0.00  0.00    +0.151 HD
ATOM     15  H   UNL     1      33.253 -10.438 -24.417  0.00  0.00    +0.148 HD
ENDROOT
BRANCH   7  18
ATOM     16 CL   UNL     1      33.113  -7.389 -22.138  0.00  0.00    -0.094 Cl
ATOM     17 CL   UNL     1      30.955  -7.337 -24.093  0.00  0.00    -0.094 Cl
ATOM     18  C   UNL     1      32.342  -8.262 -23.480  0.00  0.00    +0.193 C 
ENDBRANCH   7  18
BRANCH  11  19
ATOM     19  S   UNL     1      33.546 -16.089 -21.261  0.00  0.00    +0.058 S 
ATOM     20  O   UNL     1      32.327 -16.379 -20.512  0.00  0.00    -0.153 OA
ATOM     21  O   UNL     1      33.955 -16.947 -22.368  0.00  0.00    -0.153 OA
BRANCH  19  22
ATOM     22  N   UNL     1      34.842 -16.014 -20.133  0.00  0.00    -0.203 NA
ATOM     23  H   UNL     1      35.407 -15.185 -20.318  0.00  0.00    +0.144 HD
ATOM     24  H   UNL     1      35.423 -16.848 -20.227  0.00  0.00    +0.144 HD
ENDBRANCH  19  22
ENDBRANCH  11  19
TORSDOF 3
ENDMDL
