MODEL 1
REMARK VINA RESULT:     -11.2      0.000      0.000
REMARK  Name = 5326887
REMARK  9 active torsions:
REMARK  status: ('A' for Active; 'I' for Inactive)
REMARK    1  A    between atoms: N_3  and  C_19
REMARK    2  A    between atoms: C_6  and  C_11
REMARK    3  A    between atoms: C_17  and  O_24
REMARK    4  A    between atoms: O_24  and  C_25
REMARK    5  A    between atoms: C_25  and  C_26
REMARK    6  A    between atoms: C_26  and  C_27
REMARK    7  A    between atoms: C_27  and  C_28
REMARK    8  A    between atoms: C_28  and  C_30
REMARK    9  A    between atoms: C_30  and  O_31
REMARK                            x       y       z     vdW  Elec       q    Type
REMARK                         _______ _______ _______ _____ _____    ______ ____
ROOT
ATOM      1  O   UNL     1      31.917 -14.299 -21.859  0.00  0.00    -0.252 OA
ATOM      2  O   UNL     1      30.753 -11.903 -21.059  0.00  0.00    -0.270 OA
ATOM      3  N   UNL     1      33.749 -13.985 -23.301  0.00  0.00    -0.268 N 
ATOM      4  N   UNL     1      32.585 -12.160 -22.473  0.00  0.00    -0.236 N 
ATOM      5  C   UNL     1      32.679 -13.566 -22.484  0.00  0.00    +0.310 C 
ATOM      6  C   UNL     1      31.635 -11.424 -21.766  0.00  0.00    +0.253 C 
ATOM      7  H   UNL     1      34.264 -13.266 -23.735  0.00  0.00    +0.156 HD
ATOM      8  H   UNL     1      33.243 -11.658 -23.006  0.00  0.00    +0.159 HD
ENDROOT
BRANCH   6  11
ATOM      9 CL   UNL     1      32.234  -9.821 -19.194  0.00  0.00    -0.082 Cl
ATOM     10 CL   UNL     1      32.084  -5.475 -22.364  0.00  0.00    -0.082 Cl
ATOM     11  C   UNL     1      31.752  -9.948 -21.877  0.00  0.00    +0.064 C 
ATOM     12  C   UNL     1      32.021  -9.143 -20.769  0.00  0.00    +0.063 C 
ATOM     13  C   UNL     1      31.587  -9.369 -23.135  0.00  0.00    +0.006 C 
ATOM     14  C   UNL     1      32.125  -7.761 -20.920  0.00  0.00    +0.023 C 
ATOM     15  C   UNL     1      31.690  -7.987 -23.286  0.00  0.00    +0.012 C 
ATOM     16  C   UNL     1      31.959  -7.182 -22.179  0.00  0.00    +0.059 C 
ENDBRANCH   6  11
BRANCH   3  19
ATOM     17  C   UNL     1      35.119 -17.394 -22.864  0.00  0.00    +0.136 C 
ATOM     18  C   UNL     1      34.702 -16.096 -22.568  0.00  0.00    +0.026 C 
ATOM     19  C   UNL     1      34.173 -15.288 -23.575  0.00  0.00    +0.050 C 
ATOM     20  C   UNL     1      35.008 -17.883 -24.164  0.00  0.00    +0.037 C 
ATOM     21  C   UNL     1      34.062 -15.777 -24.876  0.00  0.00    +0.015 C 
ATOM     22  C   UNL     1      34.826 -15.580 -21.169  0.00  0.00    +0.036 C 
ATOM     23  C   UNL     1      34.479 -17.075 -25.171  0.00  0.00    +0.004 C 
BRANCH  17  24
ATOM     24  O   UNL     1      35.642 -18.203 -21.888  0.00  0.00    -0.476 OA
BRANCH  24  25
ATOM     25  C   UNL     1      34.973 -19.433 -21.649  0.00  0.00    +0.205 C 
BRANCH  25  26
ATOM     26  C   UNL     1      33.602 -19.169 -21.038  0.00  0.00    +0.048 C 
BRANCH  26  27
ATOM     27  C   UNL     1      33.056 -20.393 -20.292  0.00  0.00    +0.015 C 
BRANCH  27  28
ATOM     28  C   UNL     1      34.168 -21.263 -19.705  0.00  0.00    +0.109 C 
BRANCH  28  30
ATOM     29  O   UNL     1      34.110 -23.691 -19.515  0.00  0.00    -0.250 OA
ATOM     30  C   UNL     1      33.674 -22.596 -19.189  0.00  0.00    +0.314 C 
BRANCH  30  31
ATOM     31  O   UNL     1      32.647 -22.439 -18.315  0.00  0.00    -0.480 OA
ATOM     32  H   UNL     1      32.218 -21.609 -18.239  0.00  0.00    +0.295 HD
ENDBRANCH  30  31
ENDBRANCH  28  30
ENDBRANCH  27  28
ENDBRANCH  26  27
ENDBRANCH  25  26
ENDBRANCH  24  25
ENDBRANCH  17  24
ENDBRANCH   3  19
TORSDOF 9
ENDMDL
MODEL 2
REMARK VINA RESULT:     -11.1      4.010      6.270
REMARK  Name = 5326887
REMARK  9 active torsions:
REMARK  status: ('A' for Active; 'I' for Inactive)
REMARK    1  A    between atoms: N_3  and  C_19
REMARK    2  A    between atoms: C_6  and  C_11
REMARK    3  A    between atoms: C_17  and  O_24
REMARK    4  A    between atoms: O_24  and  C_25
REMARK    5  A    between atoms: C_25  and  C_26
REMARK    6  A    between atoms: C_26  and  C_27
REMARK    7  A    between atoms: C_27  and  C_28
REMARK    8  A    between atoms: C_28  and  C_30
REMARK    9  A    between atoms: C_30  and  O_31
REMARK                            x       y       z     vdW  Elec       q    Type
REMARK                         _______ _______ _______ _____ _____    ______ ____
ROOT
ATOM      1  O   UNL     1      35.365 -17.015 -20.295  0.00  0.00    -0.252 OA
ATOM      2  O   UNL     1      35.041 -14.628 -21.684  0.00  0.00    -0.270 OA
ATOM      3  N   UNL     1      34.569 -18.880 -21.489  0.00  0.00    -0.268 N 
ATOM      4  N   UNL     1      34.430 -16.756 -22.406  0.00  0.00    -0.236 N 
ATOM      5  C   UNL     1      34.843 -17.511 -21.290  0.00  0.00    +0.310 C 
ATOM      6  C   UNL     1      34.555 -15.373 -22.531  0.00  0.00    +0.253 C 
ATOM      7  H   UNL     1      34.144 -19.112 -22.346  0.00  0.00    +0.156 HD
ATOM      8  H   UNL     1      34.022 -17.244 -23.158  0.00  0.00    +0.159 HD
ENDROOT
BRANCH   6  11
ATOM      9 CL   UNL     1      34.143 -17.294 -24.915  0.00  0.00    -0.082 Cl
ATOM     10 CL   UNL     1      32.638 -12.911 -27.650  0.00  0.00    -0.082 Cl
ATOM     11  C   UNL     1      34.082 -14.798 -23.815  0.00  0.00    +0.064 C 
ATOM     12  C   UNL     1      33.868 -15.589 -24.945  0.00  0.00    +0.063 C 
ATOM     13  C   UNL     1      33.849 -13.424 -23.872  0.00  0.00    +0.006 C 
ATOM     14  C   UNL     1      33.421 -15.005 -26.130  0.00  0.00    +0.023 C 
ATOM     15  C   UNL     1      33.402 -12.841 -25.057  0.00  0.00    +0.012 C 
ATOM     16  C   UNL     1      33.187 -13.631 -26.186  0.00  0.00    +0.059 C 
ENDBRANCH   6  11
BRANCH   3  19
ATOM     17  C   UNL     1      34.052 -21.712 -19.165  0.00  0.00    +0.136 C 
ATOM     18  C   UNL     1      33.776 -20.648 -20.024  0.00  0.00    +0.026 C 
ATOM     19  C   UNL     1      34.823 -19.950 -20.627  0.00  0.00    +0.050 C 
ATOM     20  C   UNL     1      35.372 -22.078 -18.910  0.00  0.00    +0.037 C 
ATOM     21  C   UNL     1      36.144 -20.315 -20.370  0.00  0.00    +0.015 C 
ATOM     22  C   UNL     1      32.355 -20.262 -20.292  0.00  0.00    +0.036 C 
ATOM     23  C   UNL     1      36.419 -21.380 -19.512  0.00  0.00    +0.004 C 
BRANCH  17  24
ATOM     24  O   UNL     1      33.036 -22.410 -18.563  0.00  0.00    -0.476 OA
BRANCH  24  25
ATOM     25  C   UNL     1      33.403 -23.306 -17.525  0.00  0.00    +0.205 C 
BRANCH  25  26
ATOM     26  C   UNL     1      32.385 -23.234 -16.392  0.00  0.00    +0.048 C 
BRANCH  26  27
ATOM     27  C   UNL     1      31.021 -22.721 -16.873  0.00  0.00    +0.015 C 
BRANCH  27  28
ATOM     28  C   UNL     1      29.858 -23.530 -16.298  0.00  0.00    +0.109 C 
BRANCH  28  30
ATOM     29  O   UNL     1      27.781 -23.974 -17.492  0.00  0.00    -0.250 OA
ATOM     30  C   UNL     1      28.524 -23.187 -16.925  0.00  0.00    +0.314 C 
BRANCH  30  31
ATOM     31  O   UNL     1      28.247 -21.862 -16.805  0.00  0.00    -0.480 OA
ATOM     32  H   UNL     1      28.854 -21.225 -17.127  0.00  0.00    +0.295 HD
ENDBRANCH  30  31
ENDBRANCH  28  30
ENDBRANCH  27  28
ENDBRANCH  26  27
ENDBRANCH  25  26
ENDBRANCH  24  25
ENDBRANCH  17  24
ENDBRANCH   3  19
TORSDOF 9
ENDMDL
MODEL 3
REMARK VINA RESULT:     -10.7      5.201     10.887
REMARK  Name = 5326887
REMARK  9 active torsions:
REMARK  status: ('A' for Active; 'I' for Inactive)
REMARK    1  A    between atoms: N_3  and  C_19
REMARK    2  A    between atoms: C_6  and  C_11
REMARK    3  A    between atoms: C_17  and  O_24
REMARK    4  A    between atoms: O_24  and  C_25
REMARK    5  A    between atoms: C_25  and  C_26
REMARK    6  A    between atoms: C_26  and  C_27
REMARK    7  A    between atoms: C_27  and  C_28
REMARK    8  A    between atoms: C_28  and  C_30
REMARK    9  A    between atoms: C_30  and  O_31
REMARK                            x       y       z     vdW  Elec       q    Type
REMARK                         _______ _______ _______ _____ _____    ______ ____
ROOT
ATOM      1  O   UNL     1      33.105 -20.220 -21.438  0.00  0.00    -0.252 OA
ATOM      2  O   UNL     1      33.033 -22.027 -19.325  0.00  0.00    -0.270 OA
ATOM      3  N   UNL     1      35.115 -19.000 -21.525  0.00  0.00    -0.268 N 
ATOM      4  N   UNL     1      34.777 -20.582 -19.866  0.00  0.00    -0.236 N 
ATOM      5  C   UNL     1      34.220 -19.954 -20.998  0.00  0.00    +0.310 C 
ATOM      6  C   UNL     1      34.152 -21.572 -19.108  0.00  0.00    +0.253 C 
ATOM      7  H   UNL     1      35.972 -18.907 -21.050  0.00  0.00    +0.156 HD
ATOM      8  H   UNL     1      35.679 -20.301 -19.589  0.00  0.00    +0.159 HD
ENDROOT
BRANCH   6  11
ATOM      9 CL   UNL     1      32.696 -23.320 -17.019  0.00  0.00    -0.082 Cl
ATOM     10 CL   UNL     1      37.489 -23.698 -14.603  0.00  0.00    -0.082 Cl
ATOM     11  C   UNL     1      34.948 -22.115 -17.978  0.00  0.00    +0.064 C 
ATOM     12  C   UNL     1      34.374 -22.914 -16.988  0.00  0.00    +0.063 C 
ATOM     13  C   UNL     1      36.307 -21.806 -17.924  0.00  0.00    +0.006 C 
ATOM     14  C   UNL     1      35.160 -23.404 -15.945  0.00  0.00    +0.023 C 
ATOM     15  C   UNL     1      37.093 -22.296 -16.881  0.00  0.00    +0.012 C 
ATOM     16  C   UNL     1      36.520 -23.095 -15.892  0.00  0.00    +0.059 C 
ENDBRANCH   6  11
BRANCH   3  19
ATOM     17  C   UNL     1      34.620 -15.980 -23.603  0.00  0.00    +0.136 C 
ATOM     18  C   UNL     1      34.793 -16.791 -22.482  0.00  0.00    +0.026 C 
ATOM     19  C   UNL     1      34.942 -18.169 -22.635  0.00  0.00    +0.050 C 
ATOM     20  C   UNL     1      34.596 -16.546 -24.877  0.00  0.00    +0.037 C 
ATOM     21  C   UNL     1      34.917 -18.736 -23.909  0.00  0.00    +0.015 C 
ATOM     22  C   UNL     1      34.816 -16.173 -21.119  0.00  0.00    +0.036 C 
ATOM     23  C   UNL     1      34.745 -17.925 -25.030  0.00  0.00    +0.004 C 
BRANCH  17  24
ATOM     24  O   UNL     1      34.472 -14.622 -23.473  0.00  0.00    -0.476 OA
BRANCH  24  25
ATOM     25  C   UNL     1      33.371 -14.030 -24.146  0.00  0.00    +0.205 C 
BRANCH  25  26
ATOM     26  C   UNL     1      32.796 -12.897 -23.304  0.00  0.00    +0.048 C 
BRANCH  26  27
ATOM     27  C   UNL     1      33.510 -11.564 -23.564  0.00  0.00    +0.015 C 
BRANCH  27  28
ATOM     28  C   UNL     1      33.833 -11.353 -25.044  0.00  0.00    +0.109 C 
BRANCH  28  30
ATOM     29  O   UNL     1      35.698 -10.439 -26.317  0.00  0.00    -0.250 OA
ATOM     30  C   UNL     1      35.067 -10.509 -25.272  0.00  0.00    +0.314 C 
BRANCH  30  31
ATOM     31  O   UNL     1      35.421  -9.835 -24.147  0.00  0.00    -0.480 OA
ATOM     32  H   UNL     1      35.295 -10.227 -23.306  0.00  0.00    +0.295 HD
ENDBRANCH  30  31
ENDBRANCH  28  30
ENDBRANCH  27  28
ENDBRANCH  26  27
ENDBRANCH  25  26
ENDBRANCH  24  25
ENDBRANCH  17  24
ENDBRANCH   3  19
TORSDOF 9
ENDMDL
MODEL 4
REMARK VINA RESULT:     -10.6      4.834     10.693
REMARK  Name = 5326887
REMARK  9 active torsions:
REMARK  status: ('A' for Active; 'I' for Inactive)
REMARK    1  A    between atoms: N_3  and  C_19
REMARK    2  A    between atoms: C_6  and  C_11
REMARK    3  A    between atoms: C_17  and  O_24
REMARK    4  A    between atoms: O_24  and  C_25
REMARK    5  A    between atoms: C_25  and  C_26
REMARK    6  A    between atoms: C_26  and  C_27
REMARK    7  A    between atoms: C_27  and  C_28
REMARK    8  A    between atoms: C_28  and  C_30
REMARK    9  A    between atoms: C_30  and  O_31
REMARK                            x       y       z     vdW  Elec       q    Type
REMARK                         _______ _______ _______ _____ _____    ______ ____
ROOT
ATOM      1  O   UNL     1      33.253 -20.043 -21.593  0.00  0.00    -0.252 OA
ATOM      2  O   UNL     1      33.275 -22.114 -19.738  0.00  0.00    -0.270 OA
ATOM      3  N   UNL     1      34.980 -18.484 -21.239  0.00  0.00    -0.268 N 
ATOM      4  N   UNL     1      34.755 -20.320 -19.843  0.00  0.00    -0.236 N 
ATOM      5  C   UNL     1      34.231 -19.647 -20.965  0.00  0.00    +0.310 C 
ATOM      6  C   UNL     1      34.247 -21.502 -19.306  0.00  0.00    +0.253 C 
ATOM      7  H   UNL     1      35.736 -18.308 -20.634  0.00  0.00    +0.156 HD
ATOM      8  H   UNL     1      35.543 -19.924 -19.404  0.00  0.00    +0.159 HD
ENDROOT
BRANCH   6  11
ATOM      9 CL   UNL     1      32.670 -23.179 -17.246  0.00  0.00    -0.082 Cl
ATOM     10 CL   UNL     1      37.362 -23.648 -14.655  0.00  0.00    -0.082 Cl
ATOM     11  C   UNL     1      34.987 -22.049 -18.140  0.00  0.00    +0.064 C 
ATOM     12  C   UNL     1      34.357 -22.817 -17.160  0.00  0.00    +0.063 C 
ATOM     13  C   UNL     1      36.351 -21.776 -18.042  0.00  0.00    +0.006 C 
ATOM     14  C   UNL     1      35.092 -23.312 -16.083  0.00  0.00    +0.023 C 
ATOM     15  C   UNL     1      37.086 -22.271 -16.965  0.00  0.00    +0.012 C 
ATOM     16  C   UNL     1      36.457 -23.039 -15.986  0.00  0.00    +0.059 C 
ENDBRANCH   6  11
BRANCH   3  19
ATOM     17  C   UNL     1      34.377 -15.286 -22.998  0.00  0.00    +0.136 C 
ATOM     18  C   UNL     1      34.569 -16.202 -21.965  0.00  0.00    +0.026 C 
ATOM     19  C   UNL     1      34.786 -17.549 -22.259  0.00  0.00    +0.050 C 
ATOM     20  C   UNL     1      34.402 -15.714 -24.325  0.00  0.00    +0.037 C 
ATOM     21  C   UNL     1      34.810 -17.978 -23.586  0.00  0.00    +0.015 C 
ATOM     22  C   UNL     1      34.540 -15.733 -20.545  0.00  0.00    +0.036 C 
ATOM     23  C   UNL     1      34.619 -17.060 -24.619  0.00  0.00    +0.004 C 
BRANCH  17  24
ATOM     24  O   UNL     1      34.162 -13.958 -22.729  0.00  0.00    -0.476 OA
BRANCH  24  25
ATOM     25  C   UNL     1      32.828 -13.488 -22.846  0.00  0.00    +0.205 C 
BRANCH  25  26
ATOM     26  C   UNL     1      32.298 -13.079 -21.477  0.00  0.00    +0.048 C 
BRANCH  26  27
ATOM     27  C   UNL     1      31.412 -11.828 -21.549  0.00  0.00    +0.015 C 
BRANCH  27  28
ATOM     28  C   UNL     1      31.244 -11.152 -20.188  0.00  0.00    +0.109 C 
BRANCH  28  30
ATOM     29  O   UNL     1      31.876  -8.935 -20.975  0.00  0.00    -0.250 OA
ATOM     30  C   UNL     1      31.909  -9.796 -20.108  0.00  0.00    +0.314 C 
BRANCH  30  31
ATOM     31  O   UNL     1      32.588  -9.645 -18.942  0.00  0.00    -0.480 OA
ATOM     32  H   UNL     1      32.232  -9.985 -18.144  0.00  0.00    +0.295 HD
ENDBRANCH  30  31
ENDBRANCH  28  30
ENDBRANCH  27  28
ENDBRANCH  26  27
ENDBRANCH  25  26
ENDBRANCH  24  25
ENDBRANCH  17  24
ENDBRANCH   3  19
TORSDOF 9
ENDMDL
MODEL 5
REMARK VINA RESULT:     -10.6      3.771      6.121
REMARK  Name = 5326887
REMARK  9 active torsions:
REMARK  status: ('A' for Active; 'I' for Inactive)
REMARK    1  A    between atoms: N_3  and  C_19
REMARK    2  A    between atoms: C_6  and  C_11
REMARK    3  A    between atoms: C_17  and  O_24
REMARK    4  A    between atoms: O_24  and  C_25
REMARK    5  A    between atoms: C_25  and  C_26
REMARK    6  A    between atoms: C_26  and  C_27
REMARK    7  A    between atoms: C_27  and  C_28
REMARK    8  A    between atoms: C_28  and  C_30
REMARK    9  A    between atoms: C_30  and  O_31
REMARK                            x       y       z     vdW  Elec       q    Type
REMARK                         _______ _______ _______ _____ _____    ______ ____
ROOT
ATOM      1  O   UNL     1      34.647 -19.418 -23.604  0.00  0.00    -0.252 OA
ATOM      2  O   UNL     1      34.239 -17.379 -25.450  0.00  0.00    -0.270 OA
ATOM      3  N   UNL     1      34.741 -18.635 -21.387  0.00  0.00    -0.268 N 
ATOM      4  N   UNL     1      34.407 -17.154 -23.138  0.00  0.00    -0.236 N 
ATOM      5  C   UNL     1      34.604 -18.504 -22.784  0.00  0.00    +0.310 C 
ATOM      6  C   UNL     1      34.238 -16.682 -24.439  0.00  0.00    +0.253 C 
ATOM      7  H   UNL     1      34.683 -17.799 -20.870  0.00  0.00    +0.156 HD
ATOM      8  H   UNL     1      34.387 -16.493 -22.409  0.00  0.00    +0.159 HD
ENDROOT
BRANCH   6  11
ATOM      9 CL   UNL     1      34.686 -14.920 -21.942  0.00  0.00    -0.082 Cl
ATOM     10 CL   UNL     1      33.284 -10.801 -25.107  0.00  0.00    -0.082 Cl
ATOM     11  C   UNL     1      34.010 -15.220 -24.568  0.00  0.00    +0.064 C 
ATOM     12  C   UNL     1      34.188 -14.347 -23.493  0.00  0.00    +0.063 C 
ATOM     13  C   UNL     1      33.609 -14.726 -25.808  0.00  0.00    +0.006 C 
ATOM     14  C   UNL     1      33.964 -12.981 -23.661  0.00  0.00    +0.023 C 
ATOM     15  C   UNL     1      33.384 -13.360 -25.975  0.00  0.00    +0.012 C 
ATOM     16  C   UNL     1      33.563 -12.487 -24.902  0.00  0.00    +0.059 C 
ENDBRANCH   6  11
BRANCH   3  19
ATOM     17  C   UNL     1      34.104 -21.689 -19.397  0.00  0.00    +0.136 C 
ATOM     18  C   UNL     1      33.873 -20.531 -20.140  0.00  0.00    +0.026 C 
ATOM     19  C   UNL     1      34.949 -19.798 -20.641  0.00  0.00    +0.050 C 
ATOM     20  C   UNL     1      35.409 -22.114 -19.156  0.00  0.00    +0.037 C 
ATOM     21  C   UNL     1      36.255 -20.223 -20.398  0.00  0.00    +0.015 C 
ATOM     22  C   UNL     1      32.468 -20.083 -20.394  0.00  0.00    +0.036 C 
ATOM     23  C   UNL     1      36.486 -21.381 -19.656  0.00  0.00    +0.004 C 
BRANCH  17  24
ATOM     24  O   UNL     1      33.059 -22.422 -18.897  0.00  0.00    -0.476 OA
BRANCH  24  25
ATOM     25  C   UNL     1      33.291 -23.123 -17.684  0.00  0.00    +0.205 C 
BRANCH  25  26
ATOM     26  C   UNL     1      32.025 -23.125 -16.835  0.00  0.00    +0.048 C 
BRANCH  26  27
ATOM     27  C   UNL     1      32.330 -23.315 -15.343  0.00  0.00    +0.015 C 
BRANCH  27  28
ATOM     28  C   UNL     1      31.064 -23.332 -14.486  0.00  0.00    +0.109 C 
BRANCH  28  30
ATOM     29  O   UNL     1      30.530 -25.695 -14.744  0.00  0.00    -0.250 OA
ATOM     30  C   UNL     1      30.673 -24.718 -14.023  0.00  0.00    +0.314 C 
BRANCH  30  31
ATOM     31  O   UNL     1      30.469 -24.754 -12.681  0.00  0.00    -0.480 OA
ATOM     32  H   UNL     1      29.894 -24.134 -12.277  0.00  0.00    +0.295 HD
ENDBRANCH  30  31
ENDBRANCH  28  30
ENDBRANCH  27  28
ENDBRANCH  26  27
ENDBRANCH  25  26
ENDBRANCH  24  25
ENDBRANCH  17  24
ENDBRANCH   3  19
TORSDOF 9
ENDMDL
MODEL 6
REMARK VINA RESULT:     -10.6      1.904      2.119
REMARK  Name = 5326887
REMARK  9 active torsions:
REMARK  status: ('A' for Active; 'I' for Inactive)
REMARK    1  A    between atoms: N_3  and  C_19
REMARK    2  A    between atoms: C_6  and  C_11
REMARK    3  A    between atoms: C_17  and  O_24
REMARK    4  A    between atoms: O_24  and  C_25
REMARK    5  A    between atoms: C_25  and  C_26
REMARK    6  A    between atoms: C_26  and  C_27
REMARK    7  A    between atoms: C_27  and  C_28
REMARK    8  A    between atoms: C_28  and  C_30
REMARK    9  A    between atoms: C_30  and  O_31
REMARK                            x       y       z     vdW  Elec       q    Type
REMARK                         _______ _______ _______ _____ _____    ______ ____
ROOT
ATOM      1  O   UNL     1      34.014 -13.824 -25.044  0.00  0.00    -0.252 OA
ATOM      2  O   UNL     1      33.367 -11.134 -25.332  0.00  0.00    -0.270 OA
ATOM      3  N   UNL     1      34.286 -14.460 -22.795  0.00  0.00    -0.268 N 
ATOM      4  N   UNL     1      33.741 -12.273 -23.336  0.00  0.00    -0.236 N 
ATOM      5  C   UNL     1      34.016 -13.558 -23.845  0.00  0.00    +0.310 C 
ATOM      6  C   UNL     1      33.436 -11.152 -24.106  0.00  0.00    +0.253 C 
ATOM      7  H   UNL     1      34.249 -14.083 -21.886  0.00  0.00    +0.156 HD
ATOM      8  H   UNL     1      33.766 -12.158 -22.358  0.00  0.00    +0.159 HD
ENDROOT
BRANCH   6  11
ATOM      9 CL   UNL     1      31.110 -11.201 -22.074  0.00  0.00    -0.082 Cl
ATOM     10 CL   UNL     1      32.389  -6.064 -21.113  0.00  0.00    -0.082 Cl
ATOM     11  C   UNL     1      33.148  -9.909 -23.347  0.00  0.00    +0.064 C 
ATOM     12  C   UNL     1      32.117  -9.838 -22.409  0.00  0.00    +0.063 C 
ATOM     13  C   UNL     1      33.944  -8.791 -23.594  0.00  0.00    +0.006 C 
ATOM     14  C   UNL     1      31.884  -8.650 -21.718  0.00  0.00    +0.023 C 
ATOM     15  C   UNL     1      33.710  -7.602 -22.903  0.00  0.00    +0.012 C 
ATOM     16  C   UNL     1      32.680  -7.531 -21.965  0.00  0.00    +0.059 C 
ENDBRANCH   6  11
BRANCH   3  19
ATOM     17  C   UNL     1      35.118 -17.934 -21.833  0.00  0.00    +0.136 C 
ATOM     18  C   UNL     1      34.802 -16.579 -21.727  0.00  0.00    +0.026 C 
ATOM     19  C   UNL     1      34.602 -15.818 -22.879  0.00  0.00    +0.050 C 
ATOM     20  C   UNL     1      35.233 -18.527 -23.090  0.00  0.00    +0.037 C 
ATOM     21  C   UNL     1      34.719 -16.411 -24.136  0.00  0.00    +0.015 C 
ATOM     22  C   UNL     1      34.680 -15.952 -20.374  0.00  0.00    +0.036 C 
ATOM     23  C   UNL     1      35.034 -17.766 -24.242  0.00  0.00    +0.004 C 
BRANCH  17  24
ATOM     24  O   UNL     1      35.318 -18.699 -20.713  0.00  0.00    -0.476 OA
BRANCH  24  25
ATOM     25  C   UNL     1      35.323 -20.108 -20.891  0.00  0.00    +0.205 C 
BRANCH  25  26
ATOM     26  C   UNL     1      36.400 -20.738 -20.016  0.00  0.00    +0.048 C 
BRANCH  26  27
ATOM     27  C   UNL     1      35.810 -21.690 -18.968  0.00  0.00    +0.015 C 
BRANCH  27  28
ATOM     28  C   UNL     1      34.326 -21.973 -19.206  0.00  0.00    +0.109 C 
BRANCH  28  30
ATOM     29  O   UNL     1      34.265 -23.487 -17.298  0.00  0.00    -0.250 OA
ATOM     30  C   UNL     1      33.680 -22.758 -18.086  0.00  0.00    +0.314 C 
BRANCH  30  31
ATOM     31  O   UNL     1      32.334 -22.577 -18.067  0.00  0.00    -0.480 OA
ATOM     32  H   UNL     1      31.947 -21.997 -17.440  0.00  0.00    +0.295 HD
ENDBRANCH  30  31
ENDBRANCH  28  30
ENDBRANCH  27  28
ENDBRANCH  26  27
ENDBRANCH  25  26
ENDBRANCH  24  25
ENDBRANCH  17  24
ENDBRANCH   3  19
TORSDOF 9
ENDMDL
MODEL 7
REMARK VINA RESULT:     -10.4      5.137     10.521
REMARK  Name = 5326887
REMARK  9 active torsions:
REMARK  status: ('A' for Active; 'I' for Inactive)
REMARK    1  A    between atoms: N_3  and  C_19
REMARK    2  A    between atoms: C_6  and  C_11
REMARK    3  A    between atoms: C_17  and  O_24
REMARK    4  A    between atoms: O_24  and  C_25
REMARK    5  A    between atoms: C_25  and  C_26
REMARK    6  A    between atoms: C_26  and  C_27
REMARK    7  A    between atoms: C_27  and  C_28
REMARK    8  A    between atoms: C_28  and  C_30
REMARK    9  A    between atoms: C_30  and  O_31
REMARK                            x       y       z     vdW  Elec       q    Type
REMARK                         _______ _______ _______ _____ _____    ______ ____
ROOT
ATOM      1  O   UNL     1      33.009 -20.281 -21.198  0.00  0.00    -0.252 OA
ATOM      2  O   UNL     1      32.938 -22.017 -19.027  0.00  0.00    -0.270 OA
ATOM      3  N   UNL     1      35.090 -19.210 -21.441  0.00  0.00    -0.268 N 
ATOM      4  N   UNL     1      34.743 -20.716 -19.713  0.00  0.00    -0.236 N 
ATOM      5  C   UNL     1      34.165 -20.082 -20.832  0.00  0.00    +0.310 C 
ATOM      6  C   UNL     1      34.097 -21.636 -18.889  0.00  0.00    +0.253 C 
ATOM      7  H   UNL     1      35.978 -19.165 -21.018  0.00  0.00    +0.156 HD
ATOM      8  H   UNL     1      35.677 -20.491 -19.498  0.00  0.00    +0.159 HD
ENDROOT
BRANCH   6  11
ATOM      9 CL   UNL     1      32.691 -23.436 -16.809  0.00  0.00    -0.082 Cl
ATOM     10 CL   UNL     1      37.537 -23.850 -14.506  0.00  0.00    -0.082 Cl
ATOM     11  C   UNL     1      34.918 -22.201 -17.789  0.00  0.00    +0.064 C 
ATOM     12  C   UNL     1      34.369 -23.025 -16.805  0.00  0.00    +0.063 C 
ATOM     13  C   UNL     1      36.277 -21.889 -17.758  0.00  0.00    +0.006 C 
ATOM     14  C   UNL     1      35.179 -23.535 -15.791  0.00  0.00    +0.023 C 
ATOM     15  C   UNL     1      37.087 -22.399 -16.743  0.00  0.00    +0.012 C 
ATOM     16  C   UNL     1      36.538 -23.222 -15.760  0.00  0.00    +0.059 C 
ENDBRANCH   6  11
BRANCH   3  19
ATOM     17  C   UNL     1      34.672 -16.224 -23.584  0.00  0.00    +0.136 C 
ATOM     18  C   UNL     1      34.854 -17.012 -22.448  0.00  0.00    +0.026 C 
ATOM     19  C   UNL     1      34.910 -18.401 -22.565  0.00  0.00    +0.050 C 
ATOM     20  C   UNL     1      34.546 -16.823 -24.836  0.00  0.00    +0.037 C 
ATOM     21  C   UNL     1      34.783 -19.001 -23.818  0.00  0.00    +0.015 C 
ATOM     22  C   UNL     1      34.988 -16.360 -21.108  0.00  0.00    +0.036 C 
ATOM     23  C   UNL     1      34.601 -18.212 -24.954  0.00  0.00    +0.004 C 
BRANCH  17  24
ATOM     24  O   UNL     1      34.615 -14.857 -23.489  0.00  0.00    -0.476 OA
BRANCH  24  25
ATOM     25  C   UNL     1      33.452 -14.226 -24.004  0.00  0.00    +0.205 C 
BRANCH  25  26
ATOM     26  C   UNL     1      33.048 -13.065 -23.104  0.00  0.00    +0.048 C 
BRANCH  26  27
ATOM     27  C   UNL     1      32.058 -13.495 -22.013  0.00  0.00    +0.015 C 
BRANCH  27  28
ATOM     28  C   UNL     1      32.336 -12.816 -20.672  0.00  0.00    +0.109 C 
BRANCH  28  30
ATOM     29  O   UNL     1      31.400 -10.989 -19.361  0.00  0.00    -0.250 OA
ATOM     30  C   UNL     1      31.368 -11.697 -20.357  0.00  0.00    +0.314 C 
BRANCH  30  31
ATOM     31  O   UNL     1      30.417 -11.579 -21.320  0.00  0.00    -0.480 OA
ATOM     32  H   UNL     1      30.567 -11.934 -22.173  0.00  0.00    +0.295 HD
ENDBRANCH  30  31
ENDBRANCH  28  30
ENDBRANCH  27  28
ENDBRANCH  26  27
ENDBRANCH  25  26
ENDBRANCH  24  25
ENDBRANCH  17  24
ENDBRANCH   3  19
TORSDOF 9
ENDMDL
MODEL 8
REMARK VINA RESULT:     -10.4      5.382     11.018
REMARK  Name = 5326887
REMARK  9 active torsions:
REMARK  status: ('A' for Active; 'I' for Inactive)
REMARK    1  A    between atoms: N_3  and  C_19
REMARK    2  A    between atoms: C_6  and  C_11
REMARK    3  A    between atoms: C_17  and  O_24
REMARK    4  A    between atoms: O_24  and  C_25
REMARK    5  A    between atoms: C_25  and  C_26
REMARK    6  A    between atoms: C_26  and  C_27
REMARK    7  A    between atoms: C_27  and  C_28
REMARK    8  A    between atoms: C_28  and  C_30
REMARK    9  A    between atoms: C_30  and  O_31
REMARK                            x       y       z     vdW  Elec       q    Type
REMARK                         _______ _______ _______ _____ _____    ______ ____
ROOT
ATOM      1  O   UNL     1      36.757 -19.974 -20.853  0.00  0.00    -0.252 OA
ATOM      2  O   UNL     1      36.978 -21.707 -18.690  0.00  0.00    -0.270 OA
ATOM      3  N   UNL     1      34.526 -19.409 -21.343  0.00  0.00    -0.268 N 
ATOM      4  N   UNL     1      35.012 -20.840 -19.586  0.00  0.00    -0.236 N 
ATOM      5  C   UNL     1      35.552 -20.057 -20.626  0.00  0.00    +0.310 C 
ATOM      6  C   UNL     1      35.755 -21.609 -18.691  0.00  0.00    +0.253 C 
ATOM      7  H   UNL     1      33.608 -19.586 -21.032  0.00  0.00    +0.156 HD
ATOM      8  H   UNL     1      34.033 -20.843 -19.482  0.00  0.00    +0.159 HD
ENDROOT
BRANCH   6  11
ATOM      9 CL   UNL     1      37.125 -22.190 -15.984  0.00  0.00    -0.082 Cl
ATOM     10 CL   UNL     1      32.468 -24.498 -14.593  0.00  0.00    -0.082 Cl
ATOM     11  C   UNL     1      34.970 -22.323 -17.652  0.00  0.00    +0.064 C 
ATOM     12  C   UNL     1      35.507 -22.628 -16.400  0.00  0.00    +0.063 C 
ATOM     13  C   UNL     1      33.660 -22.690 -17.957  0.00  0.00    +0.006 C 
ATOM     14  C   UNL     1      34.733 -23.300 -15.455  0.00  0.00    +0.023 C 
ATOM     15  C   UNL     1      32.886 -23.363 -17.011  0.00  0.00    +0.012 C 
ATOM     16  C   UNL     1      33.422 -23.667 -15.760  0.00  0.00    +0.059 C 
ENDBRANCH   6  11
BRANCH   3  19
ATOM     17  C   UNL     1      34.830 -16.331 -23.372  0.00  0.00    +0.136 C 
ATOM     18  C   UNL     1      34.715 -17.169 -22.263  0.00  0.00    +0.026 C 
ATOM     19  C   UNL     1      34.642 -18.551 -22.440  0.00  0.00    +0.050 C 
ATOM     20  C   UNL     1      34.872 -16.873 -24.656  0.00  0.00    +0.037 C 
ATOM     21  C   UNL     1      34.683 -19.094 -23.724  0.00  0.00    +0.015 C 
ATOM     22  C   UNL     1      34.671 -16.578 -20.890  0.00  0.00    +0.036 C 
ATOM     23  C   UNL     1      34.799 -18.255 -24.832  0.00  0.00    +0.004 C 
BRANCH  17  24
ATOM     24  O   UNL     1      34.904 -14.970 -23.219  0.00  0.00    -0.476 OA
BRANCH  24  25
ATOM     25  C   UNL     1      34.105 -14.183 -24.090  0.00  0.00    +0.205 C 
BRANCH  25  26
ATOM     26  C   UNL     1      33.213 -13.251 -23.278  0.00  0.00    +0.048 C 
BRANCH  26  27
ATOM     27  C   UNL     1      33.381 -11.783 -23.692  0.00  0.00    +0.015 C 
BRANCH  27  28
ATOM     28  C   UNL     1      33.925 -11.636 -25.114  0.00  0.00    +0.109 C 
BRANCH  28  30
ATOM     29  O   UNL     1      35.574 -10.265 -26.269  0.00  0.00    -0.250 OA
ATOM     30  C   UNL     1      34.985 -10.565 -25.241  0.00  0.00    +0.314 C 
BRANCH  30  31
ATOM     31  O   UNL     1      35.235  -9.971 -24.045  0.00  0.00    -0.480 OA
ATOM     32  H   UNL     1      34.540  -9.848 -23.428  0.00  0.00    +0.295 HD
ENDBRANCH  30  31
ENDBRANCH  28  30
ENDBRANCH  27  28
ENDBRANCH  26  27
ENDBRANCH  25  26
ENDBRANCH  24  25
ENDBRANCH  17  24
ENDBRANCH   3  19
TORSDOF 9
ENDMDL
MODEL 9
REMARK VINA RESULT:     -10.4      2.405      2.702
REMARK  Name = 5326887
REMARK  9 active torsions:
REMARK  status: ('A' for Active; 'I' for Inactive)
REMARK    1  A    between atoms: N_3  and  C_19
REMARK    2  A    between atoms: C_6  and  C_11
REMARK    3  A    between atoms: C_17  and  O_24
REMARK    4  A    between atoms: O_24  and  C_25
REMARK    5  A    between atoms: C_25  and  C_26
REMARK    6  A    between atoms: C_26  and  C_27
REMARK    7  A    between atoms: C_27  and  C_28
REMARK    8  A    between atoms: C_28  and  C_30
REMARK    9  A    between atoms: C_30  and  O_31
REMARK                            x       y       z     vdW  Elec       q    Type
REMARK                         _______ _______ _______ _____ _____    ______ ____
ROOT
ATOM      1  O   UNL     1      32.369 -14.864 -22.430  0.00  0.00    -0.252 OA
ATOM      2  O   UNL     1      31.658 -12.176 -22.480  0.00  0.00    -0.270 OA
ATOM      3  N   UNL     1      34.513 -15.257 -23.316  0.00  0.00    -0.268 N 
ATOM      4  N   UNL     1      33.658 -13.104 -23.229  0.00  0.00    -0.236 N 
ATOM      5  C   UNL     1      33.411 -14.461 -22.939  0.00  0.00    +0.310 C 
ATOM      6  C   UNL     1      32.772 -12.056 -22.983  0.00  0.00    +0.253 C 
ATOM      7  H   UNL     1      35.273 -14.775 -23.715  0.00  0.00    +0.156 HD
ATOM      8  H   UNL     1      34.525 -12.878 -23.638  0.00  0.00    +0.159 HD
ENDROOT
BRANCH   6  11
ATOM      9 CL   UNL     1      31.577  -9.639 -21.476  0.00  0.00    -0.082 Cl
ATOM     10 CL   UNL     1      34.850  -6.649 -24.525  0.00  0.00    -0.082 Cl
ATOM     11  C   UNL     1      33.263 -10.701 -23.339  0.00  0.00    +0.064 C 
ATOM     12  C   UNL     1      32.781  -9.552 -22.712  0.00  0.00    +0.063 C 
ATOM     13  C   UNL     1      34.236 -10.597 -24.333  0.00  0.00    +0.006 C 
ATOM     14  C   UNL     1      33.272  -8.300 -23.078  0.00  0.00    +0.023 C 
ATOM     15  C   UNL     1      34.727  -9.344 -24.699  0.00  0.00    +0.012 C 
ATOM     16  C   UNL     1      34.246  -8.195 -24.072  0.00  0.00    +0.059 C 
ENDBRANCH   6  11
BRANCH   3  19
ATOM     17  C   UNL     1      35.018 -18.619 -21.858  0.00  0.00    +0.136 C 
ATOM     18  C   UNL     1      34.868 -17.236 -21.953  0.00  0.00    +0.026 C 
ATOM     19  C   UNL     1      34.664 -16.641 -23.198  0.00  0.00    +0.050 C 
ATOM     20  C   UNL     1      34.962 -19.407 -23.007  0.00  0.00    +0.037 C 
ATOM     21  C   UNL     1      34.610 -17.429 -24.348  0.00  0.00    +0.015 C 
ATOM     22  C   UNL     1      34.929 -16.398 -20.715  0.00  0.00    +0.036 C 
ATOM     23  C   UNL     1      34.758 -18.813 -24.252  0.00  0.00    +0.004 C 
BRANCH  17  24
ATOM     24  O   UNL     1      35.219 -19.223 -20.643  0.00  0.00    -0.476 OA
BRANCH  24  25
ATOM     25  C   UNL     1      34.408 -20.349 -20.344  0.00  0.00    +0.205 C 
BRANCH  25  26
ATOM     26  C   UNL     1      35.280 -21.587 -20.173  0.00  0.00    +0.048 C 
BRANCH  26  27
ATOM     27  C   UNL     1      36.401 -21.367 -19.149  0.00  0.00    +0.015 C 
BRANCH  27  28
ATOM     28  C   UNL     1      36.100 -22.026 -17.803  0.00  0.00    +0.109 C 
BRANCH  28  30
ATOM     29  O   UNL     1      37.468 -22.440 -15.829  0.00  0.00    -0.250 OA
ATOM     30  C   UNL     1      37.120 -21.696 -16.735  0.00  0.00    +0.314 C 
BRANCH  30  31
ATOM     31  O   UNL     1      37.604 -20.436 -16.884  0.00  0.00    -0.480 OA
ATOM     32  H   UNL     1      37.066 -19.698 -16.672  0.00  0.00    +0.295 HD
ENDBRANCH  30  31
ENDBRANCH  28  30
ENDBRANCH  27  28
ENDBRANCH  26  27
ENDBRANCH  25  26
ENDBRANCH  24  25
ENDBRANCH  17  24
ENDBRANCH   3  19
TORSDOF 9
ENDMDL
