MODEL 1
REMARK VINA RESULT:     -11.2      0.000      0.000
REMARK  Name = 5289389
REMARK  8 active torsions:
REMARK  status: ('A' for Active; 'I' for Inactive)
REMARK    1  A    between atoms: N_2  and  S_15
REMARK    2  A    between atoms: C_4  and  C_11
REMARK    3  A    between atoms: C_8  and  O_26
REMARK    4  A    between atoms: N_10  and  O_13
REMARK    5  A    between atoms: S_15  and  C_18
REMARK    6  A    between atoms: C_23  and  O_24
REMARK    7  A    between atoms: O_26  and  C_27
REMARK    8  A    between atoms: C_27  and  C_28
REMARK                            x       y       z     vdW  Elec       q    Type
REMARK                         _______ _______ _______ _____ _____    ______ ____
ROOT
ATOM      1  O   UNL     1      37.325 -21.948 -17.044  0.00  0.00    -0.226 OA
ATOM      2  N   UNL     1      33.145 -23.868 -15.047  0.00  0.00    -0.145 NA
ATOM      3  N   UNL     1      35.112 -22.555 -16.664  0.00  0.00    -0.243 N 
ATOM      4  C   UNL     1      34.473 -23.523 -14.462  0.00  0.00    +0.177 C 
ATOM      5  C   UNL     1      35.189 -22.403 -15.212  0.00  0.00    +0.124 C 
ATOM      6  C   UNL     1      32.718 -23.003 -16.178  0.00  0.00    +0.118 C 
ATOM      7  C   UNL     1      33.824 -22.966 -17.223  0.00  0.00    +0.116 C 
ATOM      8  C   UNL     1      36.224 -22.295 -17.468  0.00  0.00    +0.405 C 
ENDROOT
BRANCH   4  11
ATOM      9  O   UNL     1      35.427 -25.386 -15.596  0.00  0.00    -0.271 OA
ATOM     10  N   UNL     1      35.720 -25.207 -13.309  0.00  0.00    -0.196 N 
ATOM     11  C   UNL     1      35.249 -24.801 -14.529  0.00  0.00    +0.262 C 
ATOM     12  H   UNL     1      35.546 -24.697 -12.484  0.00  0.00    +0.182 HD
BRANCH  10  13
ATOM     13  O   UNL     1      36.466 -26.393 -13.309  0.00  0.00    -0.295 OA
ATOM     14  H   UNL     1      36.155 -26.970 -12.594  0.00  0.00    +0.241 HD
ENDBRANCH  10  13
ENDBRANCH   4  11
BRANCH   2  15
ATOM     15  S   UNL     1      31.919 -24.331 -13.949  0.00  0.00    +0.064 S 
ATOM     16  O   UNL     1      31.937 -23.435 -12.813  0.00  0.00    -0.153 OA
ATOM     17  O   UNL     1      31.968 -25.766 -13.767  0.00  0.00    -0.153 OA
BRANCH  15  18
ATOM     18  C   UNL     1      30.485 -23.955 -14.909  0.00  0.00    +0.122 C 
ATOM     19  C   UNL     1      29.930 -24.924 -15.743  0.00  0.00    +0.023 C 
ATOM     20  C   UNL     1      29.908 -22.686 -14.832  0.00  0.00    +0.023 C 
ATOM     21  C   UNL     1      28.798 -24.626 -16.502  0.00  0.00    +0.038 C 
ATOM     22  C   UNL     1      28.776 -22.389 -15.590  0.00  0.00    +0.038 C 
ATOM     23  C   UNL     1      28.222 -23.359 -16.425  0.00  0.00    +0.139 C 
BRANCH  23  24
ATOM     24  O   UNL     1      27.117 -23.068 -17.166  0.00  0.00    -0.471 OA
ATOM     25  C   UNL     1      26.694 -21.705 -17.194  0.00  0.00    +0.252 C 
ENDBRANCH  23  24
ENDBRANCH  15  18
ENDBRANCH   2  15
BRANCH   8  26
ATOM     26  O   UNL     1      35.955 -22.477 -18.800  0.00  0.00    -0.430 OA
BRANCH  26  27
ATOM     27  C   UNL     1      36.526 -21.515 -19.694  0.00  0.00    +0.237 C 
BRANCH  27  28
ATOM     28  C   UNL     1      35.437 -20.624 -20.215  0.00  0.00    +0.021 C 
ATOM     29  C   UNL     1      35.764 -19.470 -20.929  0.00  0.00    -0.001 C 
ATOM     30  C   UNL     1      34.101 -20.947 -19.985  0.00  0.00    -0.001 C 
ATOM     31  C   UNL     1      34.751 -18.641 -21.414  0.00  0.00    -0.000 C 
ATOM     32  C   UNL     1      33.089 -20.118 -20.470  0.00  0.00    -0.000 C 
ATOM     33  C   UNL     1      33.414 -18.965 -21.184  0.00  0.00    -0.000 C 
ENDBRANCH  27  28
ENDBRANCH  26  27
ENDBRANCH   8  26
TORSDOF 8
ENDMDL
MODEL 2
REMARK VINA RESULT:     -10.2      7.121     10.625
REMARK  Name = 5289389
REMARK  8 active torsions:
REMARK  status: ('A' for Active; 'I' for Inactive)
REMARK    1  A    between atoms: N_2  and  S_15
REMARK    2  A    between atoms: C_4  and  C_11
REMARK    3  A    between atoms: C_8  and  O_26
REMARK    4  A    between atoms: N_10  and  O_13
REMARK    5  A    between atoms: S_15  and  C_18
REMARK    6  A    between atoms: C_23  and  O_24
REMARK    7  A    between atoms: O_26  and  C_27
REMARK    8  A    between atoms: C_27  and  C_28
REMARK                            x       y       z     vdW  Elec       q    Type
REMARK                         _______ _______ _______ _____ _____    ______ ____
ROOT
ATOM      1  O   UNL     1      33.194 -12.558 -23.672  0.00  0.00    -0.226 OA
ATOM      2  N   UNL     1      34.830 -17.194 -22.687  0.00  0.00    -0.145 NA
ATOM      3  N   UNL     1      33.771 -14.534 -22.591  0.00  0.00    -0.243 N 
ATOM      4  C   UNL     1      35.100 -16.249 -23.809  0.00  0.00    +0.177 C 
ATOM      5  C   UNL     1      34.955 -14.783 -23.410  0.00  0.00    +0.124 C 
ATOM      6  C   UNL     1      34.570 -16.547 -21.375  0.00  0.00    +0.118 C 
ATOM      7  C   UNL     1      33.471 -15.507 -21.539  0.00  0.00    +0.116 C 
ATOM      8  C   UNL     1      32.981 -13.401 -22.803  0.00  0.00    +0.405 C 
ENDROOT
BRANCH   4  11
ATOM      9  O   UNL     1      33.710 -17.784 -24.983  0.00  0.00    -0.271 OA
ATOM     10  N   UNL     1      33.691 -15.559 -25.614  0.00  0.00    -0.196 N 
ATOM     11  C   UNL     1      34.101 -16.625 -24.857  0.00  0.00    +0.262 C 
ATOM     12  H   UNL     1      34.039 -14.649 -25.469  0.00  0.00    +0.182 HD
BRANCH  10  13
ATOM     13  O   UNL     1      32.745 -15.847 -26.607  0.00  0.00    -0.295 OA
ATOM     14  H   UNL     1      32.861 -15.234 -27.351  0.00  0.00    +0.241 HD
ENDBRANCH  10  13
ENDBRANCH   4  11
BRANCH   2  15
ATOM     15  S   UNL     1      35.762 -18.627 -22.649  0.00  0.00    +0.064 S 
ATOM     16  O   UNL     1      37.045 -18.342 -22.040  0.00  0.00    -0.153 OA
ATOM     17  O   UNL     1      35.678 -19.278 -23.939  0.00  0.00    -0.153 OA
BRANCH  15  18
ATOM     18  C   UNL     1      34.819 -19.578 -21.498  0.00  0.00    +0.122 C 
ATOM     19  C   UNL     1      35.466 -20.421 -20.595  0.00  0.00    +0.023 C 
ATOM     20  C   UNL     1      33.427 -19.485 -21.493  0.00  0.00    +0.023 C 
ATOM     21  C   UNL     1      34.721 -21.173 -19.687  0.00  0.00    +0.038 C 
ATOM     22  C   UNL     1      32.682 -20.237 -20.584  0.00  0.00    +0.038 C 
ATOM     23  C   UNL     1      33.330 -21.081 -19.682  0.00  0.00    +0.139 C 
BRANCH  23  24
ATOM     24  O   UNL     1      32.602 -21.815 -18.795  0.00  0.00    -0.471 OA
ATOM     25  C   UNL     1      33.293 -22.833 -18.072  0.00  0.00    +0.252 C 
ENDBRANCH  23  24
ENDBRANCH  15  18
ENDBRANCH   2  15
BRANCH   8  26
ATOM     26  O   UNL     1      31.927 -13.332 -21.930  0.00  0.00    -0.430 OA
BRANCH  26  27
ATOM     27  C   UNL     1      31.028 -12.233 -22.114  0.00  0.00    +0.237 C 
BRANCH  27  28
ATOM     28  C   UNL     1      31.417 -11.121 -21.186  0.00  0.00    +0.021 C 
ATOM     29  C   UNL     1      31.377 -11.320 -19.805  0.00  0.00    -0.001 C 
ATOM     30  C   UNL     1      31.818  -9.889 -21.701  0.00  0.00    -0.001 C 
ATOM     31  C   UNL     1      31.739 -10.286 -18.941  0.00  0.00    -0.000 C 
ATOM     32  C   UNL     1      32.180  -8.855 -20.837  0.00  0.00    -0.000 C 
ATOM     33  C   UNL     1      32.141  -9.054 -19.457  0.00  0.00    -0.000 C 
ENDBRANCH  27  28
ENDBRANCH  26  27
ENDBRANCH   8  26
TORSDOF 8
ENDMDL
MODEL 3
REMARK VINA RESULT:      -9.4      3.810      8.465
REMARK  Name = 5289389
REMARK  8 active torsions:
REMARK  status: ('A' for Active; 'I' for Inactive)
REMARK    1  A    between atoms: N_2  and  S_15
REMARK    2  A    between atoms: C_4  and  C_11
REMARK    3  A    between atoms: C_8  and  O_26
REMARK    4  A    between atoms: N_10  and  O_13
REMARK    5  A    between atoms: S_15  and  C_18
REMARK    6  A    between atoms: C_23  and  O_24
REMARK    7  A    between atoms: O_26  and  C_27
REMARK    8  A    between atoms: C_27  and  C_28
REMARK                            x       y       z     vdW  Elec       q    Type
REMARK                         _______ _______ _______ _____ _____    ______ ____
ROOT
ATOM      1  O   UNL     1      34.065 -23.678 -18.055  0.00  0.00    -0.226 OA
ATOM      2  N   UNL     1      34.911 -19.793 -21.111  0.00  0.00    -0.145 NA
ATOM      3  N   UNL     1      33.784 -21.873 -19.494  0.00  0.00    -0.243 N 
ATOM      4  C   UNL     1      35.761 -20.943 -20.686  0.00  0.00    +0.177 C 
ATOM      5  C   UNL     1      34.954 -22.184 -20.314  0.00  0.00    +0.124 C 
ATOM      6  C   UNL     1      33.457 -20.088 -21.190  0.00  0.00    +0.118 C 
ATOM      7  C   UNL     1      32.998 -20.698 -19.873  0.00  0.00    +0.116 C 
ATOM      8  C   UNL     1      33.436 -22.683 -18.411  0.00  0.00    +0.405 C 
ENDROOT
BRANCH   4  11
ATOM      9  O   UNL     1      37.108 -19.341 -19.553  0.00  0.00    -0.271 OA
ATOM     10  N   UNL     1      36.485 -21.264 -18.429  0.00  0.00    -0.196 N 
ATOM     11  C   UNL     1      36.526 -20.423 -19.511  0.00  0.00    +0.262 C 
ATOM     12  H   UNL     1      36.001 -22.121 -18.451  0.00  0.00    +0.182 HD
BRANCH  10  13
ATOM     13  O   UNL     1      37.174 -20.825 -17.291  0.00  0.00    -0.295 OA
ATOM     14  H   UNL     1      36.555 -20.381 -16.690  0.00  0.00    +0.241 HD
ENDBRANCH  10  13
ENDBRANCH   4  11
BRANCH   2  15
ATOM     15  S   UNL     1      35.542 -18.782 -22.337  0.00  0.00    +0.064 S 
ATOM     16  O   UNL     1      35.016 -19.206 -23.617  0.00  0.00    -0.153 OA
ATOM     17  O   UNL     1      36.966 -18.626 -22.131  0.00  0.00    -0.153 OA
BRANCH  15  18
ATOM     18  C   UNL     1      34.762 -17.256 -21.912  0.00  0.00    +0.122 C 
ATOM     19  C   UNL     1      34.926 -16.721 -20.635  0.00  0.00    +0.023 C 
ATOM     20  C   UNL     1      33.982 -16.587 -22.855  0.00  0.00    +0.023 C 
ATOM     21  C   UNL     1      34.309 -15.516 -20.300  0.00  0.00    +0.038 C 
ATOM     22  C   UNL     1      33.365 -15.381 -22.520  0.00  0.00    +0.038 C 
ATOM     23  C   UNL     1      33.529 -14.847 -21.241  0.00  0.00    +0.139 C 
BRANCH  23  24
ATOM     24  O   UNL     1      32.926 -13.670 -20.914  0.00  0.00    -0.471 OA
ATOM     25  C   UNL     1      32.153 -13.032 -21.929  0.00  0.00    +0.252 C 
ENDBRANCH  23  24
ENDBRANCH  15  18
ENDBRANCH   2  15
BRANCH   8  26
ATOM     26  O   UNL     1      32.305 -22.242 -17.775  0.00  0.00    -0.430 OA
BRANCH  26  27
ATOM     27  C   UNL     1      32.217 -22.531 -16.375  0.00  0.00    +0.237 C 
BRANCH  27  28
ATOM     28  C   UNL     1      30.915 -23.223 -16.099  0.00  0.00    +0.021 C 
ATOM     29  C   UNL     1      29.720 -22.672 -16.564  0.00  0.00    -0.001 C 
ATOM     30  C   UNL     1      30.898 -24.416 -15.377  0.00  0.00    -0.001 C 
ATOM     31  C   UNL     1      28.509 -23.316 -16.307  0.00  0.00    -0.000 C 
ATOM     32  C   UNL     1      29.688 -25.060 -15.121  0.00  0.00    -0.000 C 
ATOM     33  C   UNL     1      28.493 -24.510 -15.586  0.00  0.00    -0.000 C 
ENDBRANCH  27  28
ENDBRANCH  26  27
ENDBRANCH   8  26
TORSDOF 8
ENDMDL
MODEL 4
REMARK VINA RESULT:      -9.3      2.427      6.034
REMARK  Name = 5289389
REMARK  8 active torsions:
REMARK  status: ('A' for Active; 'I' for Inactive)
REMARK    1  A    between atoms: N_2  and  S_15
REMARK    2  A    between atoms: C_4  and  C_11
REMARK    3  A    between atoms: C_8  and  O_26
REMARK    4  A    between atoms: N_10  and  O_13
REMARK    5  A    between atoms: S_15  and  C_18
REMARK    6  A    between atoms: C_23  and  O_24
REMARK    7  A    between atoms: O_26  and  C_27
REMARK    8  A    between atoms: C_27  and  C_28
REMARK                            x       y       z     vdW  Elec       q    Type
REMARK                         _______ _______ _______ _____ _____    ______ ____
ROOT
ATOM      1  O   UNL     1      33.045 -22.068 -20.202  0.00  0.00    -0.226 OA
ATOM      2  N   UNL     1      34.113 -23.386 -15.484  0.00  0.00    -0.145 NA
ATOM      3  N   UNL     1      34.144 -22.437 -18.187  0.00  0.00    -0.243 N 
ATOM      4  C   UNL     1      33.047 -23.819 -16.433  0.00  0.00    +0.177 C 
ATOM      5  C   UNL     1      33.456 -23.694 -17.898  0.00  0.00    +0.124 C 
ATOM      6  C   UNL     1      35.401 -23.009 -16.123  0.00  0.00    +0.118 C 
ATOM      7  C   UNL     1      35.136 -21.980 -17.212  0.00  0.00    +0.116 C 
ATOM      8  C   UNL     1      33.868 -21.725 -19.357  0.00  0.00    +0.405 C 
ENDROOT
BRANCH   4  11
ATOM      9  O   UNL     1      31.793 -22.359 -15.032  0.00  0.00    -0.271 OA
ATOM     10  N   UNL     1      30.992 -22.826 -17.150  0.00  0.00    -0.196 N 
ATOM     11  C   UNL     1      31.887 -22.928 -16.118  0.00  0.00    +0.262 C 
ATOM     12  H   UNL     1      31.118 -23.307 -18.001  0.00  0.00    +0.182 HD
BRANCH  10  13
ATOM     13  O   UNL     1      29.889 -21.995 -16.919  0.00  0.00    -0.295 OA
ATOM     14  H   UNL     1      30.185 -21.181 -16.480  0.00  0.00    +0.241 HD
ENDBRANCH  10  13
ENDBRANCH   4  11
BRANCH   2  15
ATOM     15  S   UNL     1      34.226 -24.246 -14.011  0.00  0.00    +0.064 S 
ATOM     16  O   UNL     1      33.229 -25.296 -13.997  0.00  0.00    -0.153 OA
ATOM     17  O   UNL     1      34.326 -23.300 -12.920  0.00  0.00    -0.153 OA
BRANCH  15  18
ATOM     18  C   UNL     1      35.806 -25.007 -14.216  0.00  0.00    +0.122 C 
ATOM     19  C   UNL     1      36.912 -24.513 -13.526  0.00  0.00    +0.023 C 
ATOM     20  C   UNL     1      35.947 -26.102 -15.070  0.00  0.00    +0.023 C 
ATOM     21  C   UNL     1      38.161 -25.114 -13.689  0.00  0.00    +0.038 C 
ATOM     22  C   UNL     1      37.195 -26.702 -15.233  0.00  0.00    +0.038 C 
ATOM     23  C   UNL     1      38.302 -26.207 -14.542  0.00  0.00    +0.139 C 
BRANCH  23  24
ATOM     24  O   UNL     1      39.520 -26.794 -14.702  0.00  0.00    -0.471 OA
ATOM     25  C   UNL     1      40.665 -26.017 -14.355  0.00  0.00    +0.252 C 
ENDBRANCH  23  24
ENDBRANCH  15  18
ENDBRANCH   2  15
BRANCH   8  26
ATOM     26  O   UNL     1      34.620 -20.583 -19.460  0.00  0.00    -0.430 OA
BRANCH  26  27
ATOM     27  C   UNL     1      35.583 -20.557 -20.519  0.00  0.00    +0.237 C 
BRANCH  27  28
ATOM     28  C   UNL     1      35.299 -19.386 -21.411  0.00  0.00    +0.021 C 
ATOM     29  C   UNL     1      35.402 -18.087 -20.910  0.00  0.00    -0.001 C 
ATOM     30  C   UNL     1      34.931 -19.593 -22.740  0.00  0.00    -0.001 C 
ATOM     31  C   UNL     1      35.137 -16.997 -21.740  0.00  0.00    -0.000 C 
ATOM     32  C   UNL     1      34.667 -18.503 -23.569  0.00  0.00    -0.000 C 
ATOM     33  C   UNL     1      34.770 -17.205 -23.069  0.00  0.00    -0.000 C 
ENDBRANCH  27  28
ENDBRANCH  26  27
ENDBRANCH   8  26
TORSDOF 8
ENDMDL
MODEL 5
REMARK VINA RESULT:      -8.6      8.502     12.229
REMARK  Name = 5289389
REMARK  8 active torsions:
REMARK  status: ('A' for Active; 'I' for Inactive)
REMARK    1  A    between atoms: N_2  and  S_15
REMARK    2  A    between atoms: C_4  and  C_11
REMARK    3  A    between atoms: C_8  and  O_26
REMARK    4  A    between atoms: N_10  and  O_13
REMARK    5  A    between atoms: S_15  and  C_18
REMARK    6  A    between atoms: C_23  and  O_24
REMARK    7  A    between atoms: O_26  and  C_27
REMARK    8  A    between atoms: C_27  and  C_28
REMARK                            x       y       z     vdW  Elec       q    Type
REMARK                         _______ _______ _______ _____ _____    ______ ____
ROOT
ATOM      1  O   UNL     1      31.679 -11.885 -21.435  0.00  0.00    -0.226 OA
ATOM      2  N   UNL     1      33.906 -15.310 -24.342  0.00  0.00    -0.145 NA
ATOM      3  N   UNL     1      32.603 -13.002 -23.253  0.00  0.00    -0.243 N 
ATOM      4  C   UNL     1      33.203 -15.407 -23.030  0.00  0.00    +0.177 C 
ATOM      5  C   UNL     1      32.145 -14.325 -22.831  0.00  0.00    +0.124 C 
ATOM      6  C   UNL     1      33.389 -14.252 -25.249  0.00  0.00    +0.118 C 
ATOM      7  C   UNL     1      33.358 -12.926 -24.504  0.00  0.00    +0.116 C 
ATOM      8  C   UNL     1      32.308 -11.869 -22.491  0.00  0.00    +0.405 C 
ENDROOT
BRANCH   4  11
ATOM      9  O   UNL     1      35.333 -14.674 -22.260  0.00  0.00    -0.271 OA
ATOM     10  N   UNL     1      33.999 -15.911 -20.832  0.00  0.00    -0.196 N 
ATOM     11  C   UNL     1      34.295 -15.288 -22.015  0.00  0.00    +0.262 C 
ATOM     12  H   UNL     1      33.150 -16.390 -20.690  0.00  0.00    +0.182 HD
BRANCH  10  13
ATOM     13  O   UNL     1      34.981 -15.823 -19.836  0.00  0.00    -0.295 OA
ATOM     14  H   UNL     1      34.686 -15.209 -19.145  0.00  0.00    +0.241 HD
ENDBRANCH  10  13
ENDBRANCH   4  11
BRANCH   2  15
ATOM     15  S   UNL     1      34.359 -16.783 -25.082  0.00  0.00    +0.064 S 
ATOM     16  O   UNL     1      35.564 -16.573 -25.856  0.00  0.00    -0.153 OA
ATOM     17  O   UNL     1      33.187 -17.390 -25.678  0.00  0.00    -0.153 OA
BRANCH  15  18
ATOM     18  C   UNL     1      34.793 -17.726 -23.654  0.00  0.00    +0.122 C 
ATOM     19  C   UNL     1      33.865 -18.598 -23.087  0.00  0.00    +0.023 C 
ATOM     20  C   UNL     1      36.065 -17.599 -23.095  0.00  0.00    +0.023 C 
ATOM     21  C   UNL     1      34.208 -19.343 -21.958  0.00  0.00    +0.038 C 
ATOM     22  C   UNL     1      36.407 -18.344 -21.967  0.00  0.00    +0.038 C 
ATOM     23  C   UNL     1      35.479 -19.216 -21.399  0.00  0.00    +0.139 C 
BRANCH  23  24
ATOM     24  O   UNL     1      35.814 -19.943 -20.297  0.00  0.00    -0.471 OA
ATOM     25  C   UNL     1      34.886 -20.938 -19.868  0.00  0.00    +0.252 C 
ENDBRANCH  23  24
ENDBRANCH  15  18
ENDBRANCH   2  15
BRANCH   8  26
ATOM     26  O   UNL     1      32.806 -10.722 -23.052  0.00  0.00    -0.430 OA
BRANCH  26  27
ATOM     27  C   UNL     1      32.528  -9.505 -22.351  0.00  0.00    +0.237 C 
BRANCH  27  28
ATOM     28  C   UNL     1      32.877  -8.342 -23.231  0.00  0.00    +0.021 C 
ATOM     29  C   UNL     1      34.203  -8.127 -23.608  0.00  0.00    -0.001 C 
ATOM     30  C   UNL     1      31.877  -7.475 -23.672  0.00  0.00    -0.001 C 
ATOM     31  C   UNL     1      34.528  -7.044 -24.427  0.00  0.00    -0.000 C 
ATOM     32  C   UNL     1      32.202  -6.394 -24.491  0.00  0.00    -0.000 C 
ATOM     33  C   UNL     1      33.528  -6.178 -24.868  0.00  0.00    -0.000 C 
ENDBRANCH  27  28
ENDBRANCH  26  27
ENDBRANCH   8  26
TORSDOF 8
ENDMDL
MODEL 6
REMARK VINA RESULT:      -8.5      3.042      6.500
REMARK  Name = 5289389
REMARK  8 active torsions:
REMARK  status: ('A' for Active; 'I' for Inactive)
REMARK    1  A    between atoms: N_2  and  S_15
REMARK    2  A    between atoms: C_4  and  C_11
REMARK    3  A    between atoms: C_8  and  O_26
REMARK    4  A    between atoms: N_10  and  O_13
REMARK    5  A    between atoms: S_15  and  C_18
REMARK    6  A    between atoms: C_23  and  O_24
REMARK    7  A    between atoms: O_26  and  C_27
REMARK    8  A    between atoms: C_27  and  C_28
REMARK                            x       y       z     vdW  Elec       q    Type
REMARK                         _______ _______ _______ _____ _____    ______ ____
ROOT
ATOM      1  O   UNL     1      33.103 -23.933 -18.456  0.00  0.00    -0.226 OA
ATOM      2  N   UNL     1      35.486 -23.617 -14.056  0.00  0.00    -0.145 NA
ATOM      3  N   UNL     1      34.634 -23.415 -16.784  0.00  0.00    -0.243 N 
ATOM      4  C   UNL     1      34.491 -24.589 -14.593  0.00  0.00    +0.177 C 
ATOM      5  C   UNL     1      34.529 -24.711 -16.115  0.00  0.00    +0.124 C 
ATOM      6  C   UNL     1      36.391 -23.023 -15.074  0.00  0.00    +0.118 C 
ATOM      7  C   UNL     1      35.557 -22.439 -16.205  0.00  0.00    +0.116 C 
ATOM      8  C   UNL     1      33.890 -23.145 -17.935  0.00  0.00    +0.405 C 
ENDROOT
BRANCH   4  11
ATOM      9  O   UNL     1      32.841 -22.895 -14.323  0.00  0.00    -0.271 OA
ATOM     10  N   UNL     1      32.409 -25.010 -13.493  0.00  0.00    -0.196 N 
ATOM     11  C   UNL     1      33.170 -24.063 -14.127  0.00  0.00    +0.262 C 
ATOM     12  H   UNL     1      32.725 -25.934 -13.362  0.00  0.00    +0.182 HD
BRANCH  10  13
ATOM     13  O   UNL     1      31.154 -24.579 -13.042  0.00  0.00    -0.295 OA
ATOM     14  H   UNL     1      30.559 -25.342 -12.968  0.00  0.00    +0.241 HD
ENDBRANCH  10  13
ENDBRANCH   4  11
BRANCH   2  15
ATOM     15  S   UNL     1      36.195 -23.998 -12.548  0.00  0.00    +0.064 S 
ATOM     16  O   UNL     1      35.389 -25.003 -11.886  0.00  0.00    -0.153 OA
ATOM     17  O   UNL     1      36.556 -22.770 -11.873  0.00  0.00    -0.153 OA
BRANCH  15  18
ATOM     18  C   UNL     1      37.684 -24.775 -13.093  0.00  0.00    +0.122 C 
ATOM     19  C   UNL     1      37.622 -25.947 -13.846  0.00  0.00    +0.023 C 
ATOM     20  C   UNL     1      38.920 -24.215 -12.771  0.00  0.00    +0.023 C 
ATOM     21  C   UNL     1      38.799 -26.561 -14.276  0.00  0.00    +0.038 C 
ATOM     22  C   UNL     1      40.096 -24.830 -13.201  0.00  0.00    +0.038 C 
ATOM     23  C   UNL     1      40.035 -26.003 -13.954  0.00  0.00    +0.139 C 
BRANCH  23  24
ATOM     24  O   UNL     1      41.183 -26.602 -14.374  0.00  0.00    -0.471 OA
ATOM     25  C   UNL     1      41.711 -27.643 -13.553  0.00  0.00    +0.252 C 
ENDBRANCH  23  24
ENDBRANCH  15  18
ENDBRANCH   2  15
BRANCH   8  26
ATOM     26  O   UNL     1      34.132 -21.889 -18.426  0.00  0.00    -0.430 OA
BRANCH  26  27
ATOM     27  C   UNL     1      35.101 -21.799 -19.477  0.00  0.00    +0.237 C 
BRANCH  27  28
ATOM     28  C   UNL     1      34.902 -20.510 -20.218  0.00  0.00    +0.021 C 
ATOM     29  C   UNL     1      36.007 -19.750 -20.604  0.00  0.00    -0.001 C 
ATOM     30  C   UNL     1      33.614 -20.070 -20.521  0.00  0.00    -0.001 C 
ATOM     31  C   UNL     1      35.822 -18.551 -21.293  0.00  0.00    -0.000 C 
ATOM     32  C   UNL     1      33.429 -18.872 -21.210  0.00  0.00    -0.000 C 
ATOM     33  C   UNL     1      34.533 -18.112 -21.597  0.00  0.00    -0.000 C 
ENDBRANCH  27  28
ENDBRANCH  26  27
ENDBRANCH   8  26
TORSDOF 8
ENDMDL
MODEL 7
REMARK VINA RESULT:      -8.4      8.465     12.459
REMARK  Name = 5289389
REMARK  8 active torsions:
REMARK  status: ('A' for Active; 'I' for Inactive)
REMARK    1  A    between atoms: N_2  and  S_15
REMARK    2  A    between atoms: C_4  and  C_11
REMARK    3  A    between atoms: C_8  and  O_26
REMARK    4  A    between atoms: N_10  and  O_13
REMARK    5  A    between atoms: S_15  and  C_18
REMARK    6  A    between atoms: C_23  and  O_24
REMARK    7  A    between atoms: O_26  and  C_27
REMARK    8  A    between atoms: C_27  and  C_28
REMARK                            x       y       z     vdW  Elec       q    Type
REMARK                         _______ _______ _______ _____ _____    ______ ____
ROOT
ATOM      1  O   UNL     1      33.331 -11.250 -23.825  0.00  0.00    -0.226 OA
ATOM      2  N   UNL     1      33.730 -16.203 -24.498  0.00  0.00    -0.145 NA
ATOM      3  N   UNL     1      33.378 -13.549 -23.477  0.00  0.00    -0.243 N 
ATOM      4  C   UNL     1      34.241 -15.038 -25.275  0.00  0.00    +0.177 C 
ATOM      5  C   UNL     1      34.469 -13.794 -24.419  0.00  0.00    +0.124 C 
ATOM      6  C   UNL     1      33.630 -15.979 -23.032  0.00  0.00    +0.118 C 
ATOM      7  C   UNL     1      32.831 -14.710 -22.773  0.00  0.00    +0.116 C 
ATOM      8  C   UNL     1      32.904 -12.254 -23.258  0.00  0.00    +0.405 C 
ENDROOT
BRANCH   4  11
ATOM      9  O   UNL     1      32.451 -15.698 -26.698  0.00  0.00    -0.271 OA
ATOM     10  N   UNL     1      33.153 -13.495 -26.744  0.00  0.00    -0.196 N 
ATOM     11  C   UNL     1      33.190 -14.795 -26.311  0.00  0.00    +0.262 C 
ATOM     12  H   UNL     1      33.771 -12.811 -26.398  0.00  0.00    +0.182 HD
BRANCH  10  13
ATOM     13  O   UNL     1      32.179 -13.203 -27.708  0.00  0.00    -0.295 OA
ATOM     14  H   UNL     1      31.833 -14.030 -28.078  0.00  0.00    +0.241 HD
ENDBRANCH  10  13
ENDBRANCH   4  11
BRANCH   2  15
ATOM     15  S   UNL     1      34.268 -17.750 -24.988  0.00  0.00    +0.064 S 
ATOM     16  O   UNL     1      35.388 -17.597 -25.893  0.00  0.00    -0.153 OA
ATOM     17  O   UNL     1      33.121 -18.553 -25.353  0.00  0.00    -0.153 OA
BRANCH  15  18
ATOM     18  C   UNL     1      34.894 -18.361 -23.455  0.00  0.00    +0.122 C 
ATOM     19  C   UNL     1      34.100 -19.182 -22.655  0.00  0.00    +0.023 C 
ATOM     20  C   UNL     1      36.184 -18.022 -23.044  0.00  0.00    +0.023 C 
ATOM     21  C   UNL     1      34.595 -19.664 -21.443  0.00  0.00    +0.038 C 
ATOM     22  C   UNL     1      36.678 -18.504 -21.832  0.00  0.00    +0.038 C 
ATOM     23  C   UNL     1      35.883 -19.325 -21.032  0.00  0.00    +0.139 C 
BRANCH  23  24
ATOM     24  O   UNL     1      36.366 -19.796 -19.849  0.00  0.00    -0.471 OA
ATOM     25  C   UNL     1      36.149 -21.176 -19.561  0.00  0.00    +0.252 C 
ENDBRANCH  23  24
ENDBRANCH  15  18
ENDBRANCH   2  15
BRANCH   8  26
ATOM     26  O   UNL     1      31.893 -12.221 -22.332  0.00  0.00    -0.430 OA
BRANCH  26  27
ATOM     27  C   UNL     1      30.983 -11.120 -22.432  0.00  0.00    +0.237 C 
BRANCH  27  28
ATOM     28  C   UNL     1      31.464 -10.006 -21.550  0.00  0.00    +0.021 C 
ATOM     29  C   UNL     1      31.579 -10.208 -20.174  0.00  0.00    -0.001 C 
ATOM     30  C   UNL     1      31.795  -8.770 -22.103  0.00  0.00    -0.001 C 
ATOM     31  C   UNL     1      32.027  -9.172 -19.352  0.00  0.00    -0.000 C 
ATOM     32  C   UNL     1      32.243  -7.735 -21.283  0.00  0.00    -0.000 C 
ATOM     33  C   UNL     1      32.359  -7.936 -19.907  0.00  0.00    -0.000 C 
ENDBRANCH  27  28
ENDBRANCH  26  27
ENDBRANCH   8  26
TORSDOF 8
ENDMDL
MODEL 8
REMARK VINA RESULT:      -8.3      8.344     12.776
REMARK  Name = 5289389
REMARK  8 active torsions:
REMARK  status: ('A' for Active; 'I' for Inactive)
REMARK    1  A    between atoms: N_2  and  S_15
REMARK    2  A    between atoms: C_4  and  C_11
REMARK    3  A    between atoms: C_8  and  O_26
REMARK    4  A    between atoms: N_10  and  O_13
REMARK    5  A    between atoms: S_15  and  C_18
REMARK    6  A    between atoms: C_23  and  O_24
REMARK    7  A    between atoms: O_26  and  C_27
REMARK    8  A    between atoms: C_27  and  C_28
REMARK                            x       y       z     vdW  Elec       q    Type
REMARK                         _______ _______ _______ _____ _____    ______ ____
ROOT
ATOM      1  O   UNL     1      35.116 -16.383 -20.516  0.00  0.00    -0.226 OA
ATOM      2  N   UNL     1      33.581 -14.446 -24.878  0.00  0.00    -0.145 NA
ATOM      3  N   UNL     1      34.624 -16.079 -22.768  0.00  0.00    -0.243 N 
ATOM      4  C   UNL     1      33.959 -13.822 -23.578  0.00  0.00    +0.177 C 
ATOM      5  C   UNL     1      34.955 -14.655 -22.776  0.00  0.00    +0.124 C 
ATOM      6  C   UNL     1      34.307 -15.702 -25.202  0.00  0.00    +0.118 C 
ATOM      7  C   UNL     1      34.182 -16.668 -24.032  0.00  0.00    +0.116 C 
ATOM      8  C   UNL     1      34.749 -16.833 -21.599  0.00  0.00    +0.405 C 
ENDROOT
BRANCH   4  11
ATOM      9  O   UNL     1      31.616 -14.136 -23.300  0.00  0.00    -0.271 OA
ATOM     10  N   UNL     1      32.789 -13.012 -21.655  0.00  0.00    -0.196 N 
ATOM     11  C   UNL     1      32.662 -13.678 -22.846  0.00  0.00    +0.262 C 
ATOM     12  H   UNL     1      33.655 -12.665 -21.339  0.00  0.00    +0.182 HD
BRANCH  10  13
ATOM     13  O   UNL     1      31.609 -12.856 -20.917  0.00  0.00    -0.295 OA
ATOM     14  H   UNL     1      30.864 -12.725 -21.524  0.00  0.00    +0.241 HD
ENDBRANCH  10  13
ENDBRANCH   4  11
BRANCH   2  15
ATOM     15  S   UNL     1      33.293 -13.383 -26.186  0.00  0.00    +0.064 S 
ATOM     16  O   UNL     1      31.866 -13.271 -26.401  0.00  0.00    -0.153 OA
ATOM     17  O   UNL     1      34.186 -13.724 -27.274  0.00  0.00    -0.153 OA
BRANCH  15  18
ATOM     18  C   UNL     1      33.853 -11.865 -25.480  0.00  0.00    +0.122 C 
ATOM     19  C   UNL     1      35.044 -11.289 -25.920  0.00  0.00    +0.023 C 
ATOM     20  C   UNL     1      33.103 -11.242 -24.482  0.00  0.00    +0.023 C 
ATOM     21  C   UNL     1      35.487 -10.090 -25.361  0.00  0.00    +0.038 C 
ATOM     22  C   UNL     1      33.545 -10.043 -23.924  0.00  0.00    +0.038 C 
ATOM     23  C   UNL     1      34.738  -9.467 -24.364  0.00  0.00    +0.139 C 
BRANCH  23  24
ATOM     24  O   UNL     1      35.169  -8.297 -23.818  0.00  0.00    -0.471 OA
ATOM     25  C   UNL     1      34.218  -7.537 -23.074  0.00  0.00    +0.252 C 
ENDBRANCH  23  24
ENDBRANCH  15  18
ENDBRANCH   2  15
BRANCH   8  26
ATOM     26  O   UNL     1      34.409 -18.148 -21.790  0.00  0.00    -0.430 OA
BRANCH  26  27
ATOM     27  C   UNL     1      35.445 -19.107 -21.554  0.00  0.00    +0.237 C 
BRANCH  27  28
ATOM     28  C   UNL     1      34.927 -20.169 -20.630  0.00  0.00    +0.021 C 
ATOM     29  C   UNL     1      35.818 -21.037 -19.997  0.00  0.00    -0.001 C 
ATOM     30  C   UNL     1      33.557 -20.290 -20.402  0.00  0.00    -0.001 C 
ATOM     31  C   UNL     1      35.337 -22.025 -19.137  0.00  0.00    -0.000 C 
ATOM     32  C   UNL     1      33.076 -21.277 -19.542  0.00  0.00    -0.000 C 
ATOM     33  C   UNL     1      33.966 -22.145 -18.909  0.00  0.00    -0.000 C 
ENDBRANCH  27  28
ENDBRANCH  26  27
ENDBRANCH   8  26
TORSDOF 8
ENDMDL
