MODEL 1
REMARK VINA RESULT:      -8.2      0.000      0.000
REMARK  Name = 11117974
REMARK  3 active torsions:
REMARK  status: ('A' for Active; 'I' for Inactive)
REMARK    1  A    between atoms: C_4  and  C_15
REMARK    2  A    between atoms: C_15  and  C_17
REMARK    3  A    between atoms: C_17  and  O_18
REMARK                            x       y       z     vdW  Elec       q    Type
REMARK                         _______ _______ _______ _____ _____    ______ ____
ROOT
ATOM      1  O   UNL     1      32.011 -13.413 -23.050  0.00  0.00    -0.273 OA
ATOM      2  N   UNL     1      33.525 -14.845 -22.026  0.00  0.00    -0.272 N 
ATOM      3  N   UNL     1      33.823 -15.431 -24.949  0.00  0.00    -0.327 N 
ATOM      4  C   UNL     1      33.921 -14.113 -24.344  0.00  0.00    +0.158 C 
ATOM      5  C   UNL     1      34.784 -15.588 -22.095  0.00  0.00    +0.121 C 
ATOM      6  C   UNL     1      34.710 -16.755 -23.049  0.00  0.00    +0.011 C 
ATOM      7  C   UNL     1      33.051 -14.072 -23.089  0.00  0.00    +0.244 C 
ATOM      8  C   UNL     1      34.253 -16.621 -24.378  0.00  0.00    +0.042 C 
ATOM      9  C   UNL     1      35.137 -18.014 -22.581  0.00  0.00    -0.001 C 
ATOM     10  C   UNL     1      32.755 -14.958 -20.795  0.00  0.00    +0.115 C 
ATOM     11  C   UNL     1      34.218 -17.780 -25.183  0.00  0.00    +0.014 C 
ATOM     12  C   UNL     1      35.098 -19.138 -23.400  0.00  0.00    -0.000 C 
ATOM     13  C   UNL     1      34.635 -19.022 -24.703  0.00  0.00    +0.001 C 
ATOM     14  H   UNL     1      33.416 -15.484 -25.844  0.00  0.00    +0.147 HD
ENDROOT
BRANCH   4  15
ATOM     15  C   UNL     1      33.462 -13.068 -25.362  0.00  0.00    +0.138 C 
BRANCH  15  17
ATOM     16  O   UNL     1      33.854 -13.702 -27.682  0.00  0.00    -0.250 OA
ATOM     17  C   UNL     1      33.141 -13.693 -26.690  0.00  0.00    +0.316 C 
BRANCH  17  18
ATOM     18  O   UNL     1      31.911 -14.266 -26.639  0.00  0.00    -0.480 OA
ATOM     19  H   UNL     1      31.197 -13.810 -26.240  0.00  0.00    +0.295 HD
ENDBRANCH  17  18
ENDBRANCH  15  17
ENDBRANCH   4  15
TORSDOF 3
ENDMDL
MODEL 2
REMARK VINA RESULT:      -7.9      2.723      5.390
REMARK  Name = 11117974
REMARK  3 active torsions:
REMARK  status: ('A' for Active; 'I' for Inactive)
REMARK    1  A    between atoms: C_4  and  C_15
REMARK    2  A    between atoms: C_15  and  C_17
REMARK    3  A    between atoms: C_17  and  O_18
REMARK                            x       y       z     vdW  Elec       q    Type
REMARK                         _______ _______ _______ _____ _____    ______ ____
ROOT
ATOM      1  O   UNL     1      33.994 -17.759 -25.370  0.00  0.00    -0.273 OA
ATOM      2  N   UNL     1      33.777 -15.464 -25.102  0.00  0.00    -0.272 N 
ATOM      3  N   UNL     1      34.205 -16.489 -22.319  0.00  0.00    -0.327 N 
ATOM      4  C   UNL     1      35.069 -16.762 -23.456  0.00  0.00    +0.158 C 
ATOM      5  C   UNL     1      34.115 -14.257 -24.346  0.00  0.00    +0.121 C 
ATOM      6  C   UNL     1      33.450 -14.224 -22.991  0.00  0.00    +0.011 C 
ATOM      7  C   UNL     1      34.237 -16.731 -24.736  0.00  0.00    +0.244 C 
ATOM      8  C   UNL     1      33.529 -15.300 -22.081  0.00  0.00    +0.042 C 
ATOM      9  C   UNL     1      32.747 -13.056 -22.634  0.00  0.00    -0.001 C 
ATOM     10  C   UNL     1      32.909 -15.298 -26.260  0.00  0.00    +0.115 C 
ATOM     11  C   UNL     1      32.863 -15.166 -20.844  0.00  0.00    +0.014 C 
ATOM     12  C   UNL     1      32.105 -12.950 -21.403  0.00  0.00    -0.000 C 
ATOM     13  C   UNL     1      32.161 -14.008 -20.507  0.00  0.00    +0.001 C 
ATOM     14  H   UNL     1      34.089 -17.211 -21.660  0.00  0.00    +0.147 HD
ENDROOT
BRANCH   4  15
ATOM     15  C   UNL     1      35.721 -18.132 -23.261  0.00  0.00    +0.138 C 
BRANCH  15  17
ATOM     16  O   UNL     1      35.908 -18.529 -20.863  0.00  0.00    -0.250 OA
ATOM     17  C   UNL     1      35.355 -18.735 -21.933  0.00  0.00    +0.316 C 
BRANCH  17  18
ATOM     18  O   UNL     1      34.293 -19.566 -22.087  0.00  0.00    -0.480 OA
ATOM     19  H   UNL     1      34.385 -20.360 -22.574  0.00  0.00    +0.295 HD
ENDBRANCH  17  18
ENDBRANCH  15  17
ENDBRANCH   4  15
TORSDOF 3
ENDMDL
MODEL 3
REMARK VINA RESULT:      -7.9     12.239     14.291
REMARK  Name = 11117974
REMARK  3 active torsions:
REMARK  status: ('A' for Active; 'I' for Inactive)
REMARK    1  A    between atoms: C_4  and  C_15
REMARK    2  A    between atoms: C_15  and  C_17
REMARK    3  A    between atoms: C_17  and  O_18
REMARK                            x       y       z     vdW  Elec       q    Type
REMARK                         _______ _______ _______ _____ _____    ______ ____
ROOT
ATOM      1  O   UNL     1      37.945 -24.618 -11.608  0.00  0.00    -0.273 OA
ATOM      2  N   UNL     1      36.095 -24.770 -13.001  0.00  0.00    -0.272 N 
ATOM      3  N   UNL     1      38.335 -24.001 -14.838  0.00  0.00    -0.327 N 
ATOM      4  C   UNL     1      38.347 -25.136 -13.928  0.00  0.00    +0.158 C 
ATOM      5  C   UNL     1      35.553 -25.051 -14.332  0.00  0.00    +0.121 C 
ATOM      6  C   UNL     1      35.905 -23.978 -15.334  0.00  0.00    +0.011 C 
ATOM      7  C   UNL     1      37.463 -24.821 -12.723  0.00  0.00    +0.244 C 
ATOM      8  C   UNL     1      37.228 -23.527 -15.530  0.00  0.00    +0.042 C 
ATOM      9  C   UNL     1      34.860 -23.434 -16.106  0.00  0.00    -0.001 C 
ATOM     10  C   UNL     1      35.143 -24.405 -11.962  0.00  0.00    +0.115 C 
ATOM     11  C   UNL     1      37.444 -22.514 -16.488  0.00  0.00    +0.014 C 
ATOM     12  C   UNL     1      35.104 -22.439 -17.050  0.00  0.00    -0.000 C 
ATOM     13  C   UNL     1      36.398 -21.976 -17.239  0.00  0.00    +0.001 C 
ATOM     14  H   UNL     1      39.187 -23.528 -14.976  0.00  0.00    +0.147 HD
ENDROOT
BRANCH   4  15
ATOM     15  C   UNL     1      39.789 -25.402 -13.494  0.00  0.00    +0.138 C 
BRANCH  15  17
ATOM     16  O   UNL     1      40.484 -25.905 -15.775  0.00  0.00    -0.250 OA
ATOM     17  C   UNL     1      40.573 -26.097 -14.571  0.00  0.00    +0.316 C 
BRANCH  17  18
ATOM     18  O   UNL     1      41.421 -26.997 -14.011  0.00  0.00    -0.480 OA
ATOM     19  H   UNL     1      41.479 -27.866 -14.356  0.00  0.00    +0.295 HD
ENDBRANCH  17  18
ENDBRANCH  15  17
ENDBRANCH   4  15
TORSDOF 3
ENDMDL
MODEL 4
REMARK VINA RESULT:      -7.9      1.502      1.787
REMARK  Name = 11117974
REMARK  3 active torsions:
REMARK  status: ('A' for Active; 'I' for Inactive)
REMARK    1  A    between atoms: C_4  and  C_15
REMARK    2  A    between atoms: C_15  and  C_17
REMARK    3  A    between atoms: C_17  and  O_18
REMARK                            x       y       z     vdW  Elec       q    Type
REMARK                         _______ _______ _______ _____ _____    ______ ____
ROOT
ATOM      1  O   UNL     1      31.871 -13.021 -21.840  0.00  0.00    -0.273 OA
ATOM      2  N   UNL     1      33.373 -14.716 -21.333  0.00  0.00    -0.272 N 
ATOM      3  N   UNL     1      33.712 -14.293 -24.280  0.00  0.00    -0.327 N 
ATOM      4  C   UNL     1      33.800 -13.253 -23.268  0.00  0.00    +0.158 C 
ATOM      5  C   UNL     1      34.634 -15.397 -21.630  0.00  0.00    +0.121 C 
ATOM      6  C   UNL     1      34.576 -16.178 -22.920  0.00  0.00    +0.011 C 
ATOM      7  C   UNL     1      32.912 -13.632 -22.084  0.00  0.00    +0.244 C 
ATOM      8  C   UNL     1      34.137 -15.607 -24.134  0.00  0.00    +0.042 C 
ATOM      9  C   UNL     1      34.999 -17.522 -22.894  0.00  0.00    -0.001 C 
ATOM     10  C   UNL     1      32.586 -15.233 -20.222  0.00  0.00    +0.115 C 
ATOM     11  C   UNL     1      34.115 -16.430 -25.280  0.00  0.00    +0.014 C 
ATOM     12  C   UNL     1      34.972 -18.308 -24.042  0.00  0.00    -0.000 C 
ATOM     13  C   UNL     1      34.528 -17.762 -25.237  0.00  0.00    +0.001 C 
ATOM     14  H   UNL     1      33.317 -14.042 -25.147  0.00  0.00    +0.147 HD
ENDROOT
BRANCH   4  15
ATOM     15  C   UNL     1      33.353 -11.927 -23.884  0.00  0.00    +0.138 C 
BRANCH  15  17
ATOM     16  O   UNL     1      33.729 -12.106 -26.285  0.00  0.00    -0.250 OA
ATOM     17  C   UNL     1      34.045 -11.662 -25.191  0.00  0.00    +0.316 C 
BRANCH  17  18
ATOM     18  O   UNL     1      35.105 -10.838 -24.988  0.00  0.00    -0.480 OA
ATOM     19  H   UNL     1      35.181 -10.361 -24.186  0.00  0.00    +0.295 HD
ENDBRANCH  17  18
ENDBRANCH  15  17
ENDBRANCH   4  15
TORSDOF 3
ENDMDL
MODEL 5
REMARK VINA RESULT:      -7.7     11.349     13.544
REMARK  Name = 11117974
REMARK  3 active torsions:
REMARK  status: ('A' for Active; 'I' for Inactive)
REMARK    1  A    between atoms: C_4  and  C_15
REMARK    2  A    between atoms: C_15  and  C_17
REMARK    3  A    between atoms: C_17  and  O_18
REMARK                            x       y       z     vdW  Elec       q    Type
REMARK                         _______ _______ _______ _____ _____    ______ ____
ROOT
ATOM      1  O   UNL     1      34.605 -23.866 -11.871  0.00  0.00    -0.273 OA
ATOM      2  N   UNL     1      33.895 -23.975 -14.078  0.00  0.00    -0.272 N 
ATOM      3  N   UNL     1      36.857 -23.565 -14.279  0.00  0.00    -0.327 N 
ATOM      4  C   UNL     1      36.205 -24.614 -13.511  0.00  0.00    +0.158 C 
ATOM      5  C   UNL     1      34.191 -24.321 -15.469  0.00  0.00    +0.121 C 
ATOM      6  C   UNL     1      35.182 -23.373 -16.099  0.00  0.00    +0.011 C 
ATOM      7  C   UNL     1      34.834 -24.121 -13.054  0.00  0.00    +0.244 C 
ATOM      8  C   UNL     1      36.419 -23.058 -15.495  0.00  0.00    +0.042 C 
ATOM      9  C   UNL     1      34.849 -22.808 -17.346  0.00  0.00    -0.001 C 
ATOM     10  C   UNL     1      32.570 -23.440 -13.795  0.00  0.00    +0.115 C 
ATOM     11  C   UNL     1      37.269 -22.153 -16.167  0.00  0.00    +0.014 C 
ATOM     12  C   UNL     1      35.711 -21.923 -17.988  0.00  0.00    -0.000 C 
ATOM     13  C   UNL     1      36.922 -21.593 -17.397  0.00  0.00    +0.001 C 
ATOM     14  H   UNL     1      37.682 -23.182 -13.904  0.00  0.00    +0.147 HD
ENDROOT
BRANCH   4  15
ATOM     15  C   UNL     1      37.087 -24.967 -12.313  0.00  0.00    +0.138 C 
BRANCH  15  17
ATOM     16  O   UNL     1      38.409 -23.053 -11.589  0.00  0.00    -0.250 OA
ATOM     17  C   UNL     1      38.299 -24.082 -12.238  0.00  0.00    +0.316 C 
BRANCH  17  18
ATOM     18  O   UNL     1      39.288 -24.596 -13.013  0.00  0.00    -0.480 OA
ATOM     19  H   UNL     1      39.770 -24.037 -13.590  0.00  0.00    +0.295 HD
ENDBRANCH  17  18
ENDBRANCH  15  17
ENDBRANCH   4  15
TORSDOF 3
ENDMDL
MODEL 6
REMARK VINA RESULT:      -7.7      3.091      5.639
REMARK  Name = 11117974
REMARK  3 active torsions:
REMARK  status: ('A' for Active; 'I' for Inactive)
REMARK    1  A    between atoms: C_4  and  C_15
REMARK    2  A    between atoms: C_15  and  C_17
REMARK    3  A    between atoms: C_17  and  O_18
REMARK                            x       y       z     vdW  Elec       q    Type
REMARK                         _______ _______ _______ _____ _____    ______ ____
ROOT
ATOM      1  O   UNL     1      32.972 -14.230 -21.429  0.00  0.00    -0.273 OA
ATOM      2  N   UNL     1      31.947 -12.167 -21.710  0.00  0.00    -0.272 N 
ATOM      3  N   UNL     1      33.926 -12.315 -23.955  0.00  0.00    -0.327 N 
ATOM      4  C   UNL     1      32.917 -13.318 -23.660  0.00  0.00    +0.158 C 
ATOM      5  C   UNL     1      31.513 -11.102 -22.615  0.00  0.00    +0.121 C 
ATOM      6  C   UNL     1      32.673 -10.319 -23.181  0.00  0.00    +0.011 C 
ATOM      7  C   UNL     1      32.621 -13.305 -22.161  0.00  0.00    +0.244 C 
ATOM      8  C   UNL     1      33.778 -10.943 -23.801  0.00  0.00    +0.042 C 
ATOM      9  C   UNL     1      32.623  -8.914 -23.094  0.00  0.00    -0.001 C 
ATOM     10  C   UNL     1      31.668 -11.987 -20.292  0.00  0.00    +0.115 C 
ATOM     11  C   UNL     1      34.812 -10.117 -24.289  0.00  0.00    +0.014 C 
ATOM     12  C   UNL     1      33.656  -8.124 -23.591  0.00  0.00    -0.000 C 
ATOM     13  C   UNL     1      34.754  -8.726 -24.187  0.00  0.00    +0.001 C 
ATOM     14  H   UNL     1      34.792 -12.637 -24.296  0.00  0.00    +0.147 HD
ENDROOT
BRANCH   4  15
ATOM     15  C   UNL     1      33.438 -14.686 -24.102  0.00  0.00    +0.138 C 
BRANCH  15  17
ATOM     16  O   UNL     1      33.823 -15.705 -26.282  0.00  0.00    -0.250 OA
ATOM     17  C   UNL     1      33.224 -14.911 -25.572  0.00  0.00    +0.316 C 
BRANCH  17  18
ATOM     18  O   UNL     1      32.243 -14.088 -26.022  0.00  0.00    -0.480 OA
ATOM     19  H   UNL     1      32.455 -13.367 -26.581  0.00  0.00    +0.295 HD
ENDBRANCH  17  18
ENDBRANCH  15  17
ENDBRANCH   4  15
TORSDOF 3
ENDMDL
MODEL 7
REMARK VINA RESULT:      -7.6      2.516      5.548
REMARK  Name = 11117974
REMARK  3 active torsions:
REMARK  status: ('A' for Active; 'I' for Inactive)
REMARK    1  A    between atoms: C_4  and  C_15
REMARK    2  A    between atoms: C_15  and  C_17
REMARK    3  A    between atoms: C_17  and  O_18
REMARK                            x       y       z     vdW  Elec       q    Type
REMARK                         _______ _______ _______ _____ _____    ______ ____
ROOT
ATOM      1  O   UNL     1      33.723 -16.671 -25.099  0.00  0.00    -0.273 OA
ATOM      2  N   UNL     1      33.515 -14.360 -25.049  0.00  0.00    -0.272 N 
ATOM      3  N   UNL     1      33.780 -15.135 -22.167  0.00  0.00    -0.327 N 
ATOM      4  C   UNL     1      34.702 -15.513 -23.226  0.00  0.00    +0.158 C 
ATOM      5  C   UNL     1      33.824 -13.093 -24.386  0.00  0.00    +0.121 C 
ATOM      6  C   UNL     1      33.086 -12.935 -23.078  0.00  0.00    +0.011 C 
ATOM      7  C   UNL     1      33.941 -15.592 -24.547  0.00  0.00    +0.244 C 
ATOM      8  C   UNL     1      33.104 -13.926 -22.072  0.00  0.00    +0.042 C 
ATOM      9  C   UNL     1      32.376 -11.737 -22.865  0.00  0.00    -0.001 C 
ATOM     10  C   UNL     1      32.713 -14.294 -26.263  0.00  0.00    +0.115 C 
ATOM     11  C   UNL     1      32.374 -13.678 -20.891  0.00  0.00    +0.014 C 
ATOM     12  C   UNL     1      31.670 -11.518 -21.685  0.00  0.00    -0.000 C 
ATOM     13  C   UNL     1      31.666 -12.491 -20.697  0.00  0.00    +0.001 C 
ATOM     14  H   UNL     1      33.622 -15.795 -21.453  0.00  0.00    +0.147 HD
ENDROOT
BRANCH   4  15
ATOM     15  C   UNL     1      35.329 -16.863 -22.874  0.00  0.00    +0.138 C 
BRANCH  15  17
ATOM     16  O   UNL     1      35.344 -16.803 -20.438  0.00  0.00    -0.250 OA
ATOM     17  C   UNL     1      34.957 -17.300 -21.484  0.00  0.00    +0.316 C 
BRANCH  17  18
ATOM     18  O   UNL     1      34.108 -18.357 -21.550  0.00  0.00    -0.480 OA
ATOM     19  H   UNL     1      33.485 -18.502 -20.866  0.00  0.00    +0.295 HD
ENDBRANCH  17  18
ENDBRANCH  15  17
ENDBRANCH   4  15
TORSDOF 3
ENDMDL
MODEL 8
REMARK VINA RESULT:      -7.5     10.348     12.546
REMARK  Name = 11117974
REMARK  3 active torsions:
REMARK  status: ('A' for Active; 'I' for Inactive)
REMARK    1  A    between atoms: C_4  and  C_15
REMARK    2  A    between atoms: C_15  and  C_17
REMARK    3  A    between atoms: C_17  and  O_18
REMARK                            x       y       z     vdW  Elec       q    Type
REMARK                         _______ _______ _______ _____ _____    ______ ____
ROOT
ATOM      1  O   UNL     1      36.480 -25.487 -13.772  0.00  0.00    -0.273 OA
ATOM      2  N   UNL     1      37.403 -23.755 -15.011  0.00  0.00    -0.272 N 
ATOM      3  N   UNL     1      34.454 -23.505 -15.485  0.00  0.00    -0.327 N 
ATOM      4  C   UNL     1      35.093 -23.557 -14.180  0.00  0.00    +0.158 C 
ATOM      5  C   UNL     1      37.263 -22.412 -15.577  0.00  0.00    +0.121 C 
ATOM      6  C   UNL     1      36.280 -22.370 -16.722  0.00  0.00    +0.011 C 
ATOM      7  C   UNL     1      36.381 -24.371 -14.285  0.00  0.00    +0.244 C 
ATOM      8  C   UNL     1      34.974 -22.897 -16.620  0.00  0.00    +0.042 C 
ATOM      9  C   UNL     1      36.695 -21.760 -17.922  0.00  0.00    -0.001 C 
ATOM     10  C   UNL     1      38.659 -24.450 -15.255  0.00  0.00    +0.115 C 
ATOM     11  C   UNL     1      34.139 -22.812 -17.754  0.00  0.00    +0.014 C 
ATOM     12  C   UNL     1      35.846 -21.685 -19.023  0.00  0.00    -0.000 C 
ATOM     13  C   UNL     1      34.567 -22.213 -18.940  0.00  0.00    +0.001 C 
ATOM     14  H   UNL     1      33.575 -23.939 -15.572  0.00  0.00    +0.147 HD
ENDROOT
BRANCH   4  15
ATOM     15  C   UNL     1      34.124 -24.194 -13.183  0.00  0.00    +0.138 C 
BRANCH  15  17
ATOM     16  O   UNL     1      32.012 -23.239 -13.937  0.00  0.00    -0.250 OA
ATOM     17  C   UNL     1      32.717 -24.212 -13.712  0.00  0.00    +0.316 C 
BRANCH  17  18
ATOM     18  O   UNL     1      32.321 -25.494 -13.914  0.00  0.00    -0.480 OA
ATOM     19  H   UNL     1      32.512 -26.151 -13.274  0.00  0.00    +0.295 HD
ENDBRANCH  17  18
ENDBRANCH  15  17
ENDBRANCH   4  15
TORSDOF 3
ENDMDL
MODEL 9
REMARK VINA RESULT:      -7.4      2.283      4.642
REMARK  Name = 11117974
REMARK  3 active torsions:
REMARK  status: ('A' for Active; 'I' for Inactive)
REMARK    1  A    between atoms: C_4  and  C_15
REMARK    2  A    between atoms: C_15  and  C_17
REMARK    3  A    between atoms: C_17  and  O_18
REMARK                            x       y       z     vdW  Elec       q    Type
REMARK                         _______ _______ _______ _____ _____    ______ ____
ROOT
ATOM      1  O   UNL     1      35.280 -15.585 -23.243  0.00  0.00    -0.273 OA
ATOM      2  N   UNL     1      33.737 -15.099 -21.578  0.00  0.00    -0.272 N 
ATOM      3  N   UNL     1      33.019 -13.233 -23.811  0.00  0.00    -0.327 N 
ATOM      4  C   UNL     1      33.157 -14.676 -23.934  0.00  0.00    +0.158 C 
ATOM      5  C   UNL     1      32.397 -14.636 -21.214  0.00  0.00    +0.121 C 
ATOM      6  C   UNL     1      32.211 -13.159 -21.467  0.00  0.00    +0.011 C 
ATOM      7  C   UNL     1      34.170 -15.171 -22.904  0.00  0.00    +0.244 C 
ATOM      8  C   UNL     1      32.518 -12.557 -22.706  0.00  0.00    +0.042 C 
ATOM      9  C   UNL     1      31.692 -12.374 -20.418  0.00  0.00    -0.001 C 
ATOM     10  C   UNL     1      34.629 -15.468 -20.488  0.00  0.00    +0.115 C 
ATOM     11  C   UNL     1      32.313 -11.167 -22.832  0.00  0.00    +0.014 C 
ATOM     12  C   UNL     1      31.494 -11.005 -20.573  0.00  0.00    -0.000 C 
ATOM     13  C   UNL     1      31.807 -10.399 -21.781  0.00  0.00    +0.001 C 
ATOM     14  H   UNL     1      33.305 -12.688 -24.579  0.00  0.00    +0.147 HD
ENDROOT
BRANCH   4  15
ATOM     15  C   UNL     1      33.615 -15.006 -25.355  0.00  0.00    +0.138 C 
BRANCH  15  17
ATOM     16  O   UNL     1      33.619 -12.968 -26.691  0.00  0.00    -0.250 OA
ATOM     17  C   UNL     1      33.086 -14.014 -26.352  0.00  0.00    +0.316 C 
BRANCH  17  18
ATOM     18  O   UNL     1      31.897 -14.449 -26.843  0.00  0.00    -0.480 OA
ATOM     19  H   UNL     1      31.870 -14.950 -27.634  0.00  0.00    +0.295 HD
ENDBRANCH  17  18
ENDBRANCH  15  17
ENDBRANCH   4  15
TORSDOF 3
ENDMDL
