MODEL 1
REMARK VINA RESULT:     -10.0      0.000      0.000
REMARK  Name = 5002
REMARK  6 active torsions:
REMARK  status: ('A' for Active; 'I' for Inactive)
REMARK    1  A    between atoms: N_2  and  C_23
REMARK    2  A    between atoms: C_23  and  C_24
REMARK    3  A    between atoms: C_24  and  O_25
REMARK    4  A    between atoms: O_25  and  C_26
REMARK    5  A    between atoms: C_26  and  C_27
REMARK    6  A    between atoms: C_27  and  O_28
REMARK                            x       y       z     vdW  Elec       q    Type
REMARK                         _______ _______ _______ _____ _____    ______ ____
ROOT
ATOM      1  S   UNL     1      36.700 -22.418 -14.949  0.00  0.00    -0.085 S 
ATOM      2  N   UNL     1      29.901 -23.851 -14.736  0.00  0.00    +0.391 N 
ATOM      3  N   UNL     1      32.745 -23.955 -14.764  0.00  0.00    -0.288 N 
ATOM      4  N   UNL     1      34.807 -24.853 -14.319  0.00  0.00    -0.390 NA
ATOM      5  C   UNL     1      30.603 -25.140 -14.659  0.00  0.00    -0.055 C 
ATOM      6  C   UNL     1      30.675 -22.894 -15.539  0.00  0.00    -0.055 C 
ATOM      7  C   UNL     1      31.990 -24.970 -14.037  0.00  0.00    +0.070 C 
ATOM      8  C   UNL     1      32.064 -22.674 -14.937  0.00  0.00    +0.070 C 
ATOM      9  C   UNL     1      34.046 -24.126 -15.093  0.00  0.00    +0.183 C 
ATOM     10  C   UNL     1      34.498 -23.440 -16.342  0.00  0.00    +0.050 C 
ATOM     11  C   UNL     1      35.631 -22.612 -16.367  0.00  0.00    +0.033 C 
ATOM     12  C   UNL     1      33.713 -23.587 -17.494  0.00  0.00    +0.004 C 
ATOM     13  C   UNL     1      36.165 -25.128 -14.562  0.00  0.00    +0.121 C 
ATOM     14  C   UNL     1      37.143 -24.141 -14.776  0.00  0.00    +0.055 C 
ATOM     15  C   UNL     1      35.961 -21.936 -17.550  0.00  0.00    +0.007 C 
ATOM     16  C   UNL     1      34.056 -22.915 -18.666  0.00  0.00    +0.000 C 
ATOM     17  C   UNL     1      35.176 -22.088 -18.693  0.00  0.00    +0.001 C 
ATOM     18  C   UNL     1      36.573 -26.467 -14.479  0.00  0.00    +0.086 C 
ATOM     19  C   UNL     1      38.492 -24.501 -14.910  0.00  0.00    +0.008 C 
ATOM     20  C   UNL     1      37.915 -26.822 -14.621  0.00  0.00    -0.019 C 
ATOM     21  C   UNL     1      38.875 -25.838 -14.834  0.00  0.00    -0.004 C 
ATOM     22  H   UNL     1      29.804 -23.477 -13.792  0.00  0.00    -0.079 HD
ENDROOT
BRANCH   2  23
ATOM     23  C   UNL     1      28.562 -24.028 -15.297  0.00  0.00    -0.045 C 
BRANCH  23  24
ATOM     24  C   UNL     1      28.621 -24.091 -16.815  0.00  0.00    +0.120 C 
BRANCH  24  25
ATOM     25  O   UNL     1      27.413 -23.557 -17.342  0.00  0.00    -0.353 OA
BRANCH  25  26
ATOM     26  C   UNL     1      27.384 -22.140 -17.247  0.00  0.00    +0.174 C 
BRANCH  26  27
ATOM     27  C   UNL     1      26.313 -21.604 -18.177  0.00  0.00    +0.169 C 
BRANCH  27  28
ATOM     28  O   UNL     1      26.037 -20.251 -17.836  0.00  0.00    -0.379 OA
ATOM     29  H   UNL     1      25.586 -20.219 -16.977  0.00  0.00    +0.211 HD
ENDBRANCH  27  28
ENDBRANCH  26  27
ENDBRANCH  25  26
ENDBRANCH  24  25
ENDBRANCH  23  24
ENDBRANCH   2  23
TORSDOF 6
ENDMDL
MODEL 2
REMARK VINA RESULT:      -8.4     13.510     16.329
REMARK  Name = 5002
REMARK  6 active torsions:
REMARK  status: ('A' for Active; 'I' for Inactive)
REMARK    1  A    between atoms: N_2  and  C_23
REMARK    2  A    between atoms: C_23  and  C_24
REMARK    3  A    between atoms: C_24  and  O_25
REMARK    4  A    between atoms: O_25  and  C_26
REMARK    5  A    between atoms: C_26  and  C_27
REMARK    6  A    between atoms: C_27  and  O_28
REMARK                            x       y       z     vdW  Elec       q    Type
REMARK                         _______ _______ _______ _____ _____    ______ ____
ROOT
ATOM      1  S   UNL     1      33.355  -7.929 -21.001  0.00  0.00    -0.085 S 
ATOM      2  N   UNL     1      33.783 -13.551 -25.067  0.00  0.00    +0.391 N 
ATOM      3  N   UNL     1      33.267 -10.985 -23.949  0.00  0.00    -0.288 N 
ATOM      4  N   UNL     1      32.825  -8.735 -23.997  0.00  0.00    -0.390 NA
ATOM      5  C   UNL     1      33.030 -12.542 -25.826  0.00  0.00    -0.055 C 
ATOM      6  C   UNL     1      33.529 -13.401 -23.627  0.00  0.00    -0.055 C 
ATOM      7  C   UNL     1      33.424 -11.128 -25.393  0.00  0.00    +0.070 C 
ATOM      8  C   UNL     1      33.933 -12.007 -23.144  0.00  0.00    +0.070 C 
ATOM      9  C   UNL     1      32.705  -9.888 -23.393  0.00  0.00    +0.183 C 
ATOM     10  C   UNL     1      31.986 -10.108 -22.101  0.00  0.00    +0.050 C 
ATOM     11  C   UNL     1      32.246  -9.329 -20.963  0.00  0.00    +0.033 C 
ATOM     12  C   UNL     1      31.079 -11.174 -22.026  0.00  0.00    +0.004 C 
ATOM     13  C   UNL     1      32.267  -7.529 -23.538  0.00  0.00    +0.121 C 
ATOM     14  C   UNL     1      32.484  -6.999 -22.254  0.00  0.00    +0.055 C 
ATOM     15  C   UNL     1      31.596  -9.632 -19.759  0.00  0.00    +0.007 C 
ATOM     16  C   UNL     1      30.432 -11.461 -20.825  0.00  0.00    +0.000 C 
ATOM     17  C   UNL     1      30.693 -10.694 -19.692  0.00  0.00    +0.001 C 
ATOM     18  C   UNL     1      31.538  -6.767 -24.463  0.00  0.00    +0.086 C 
ATOM     19  C   UNL     1      31.969  -5.739 -21.915  0.00  0.00    +0.008 C 
ATOM     20  C   UNL     1      31.021  -5.517 -24.118  0.00  0.00    -0.019 C 
ATOM     21  C   UNL     1      31.240  -5.002 -22.845  0.00  0.00    -0.004 C 
ATOM     22  H   UNL     1      34.778 -13.410 -25.237  0.00  0.00    -0.079 HD
ENDROOT
BRANCH   2  23
ATOM     23  C   UNL     1      33.429 -14.898 -25.513  0.00  0.00    -0.045 C 
BRANCH  23  24
ATOM     24  C   UNL     1      34.170 -15.945 -24.698  0.00  0.00    +0.120 C 
BRANCH  24  25
ATOM     25  O   UNL     1      34.420 -17.075 -25.524  0.00  0.00    -0.353 OA
BRANCH  25  26
ATOM     26  C   UNL     1      34.569 -18.261 -24.755  0.00  0.00    +0.174 C 
BRANCH  26  27
ATOM     27  C   UNL     1      34.957 -17.886 -23.338  0.00  0.00    +0.169 C 
BRANCH  27  28
ATOM     28  O   UNL     1      36.320 -18.231 -23.123  0.00  0.00    -0.379 OA
ATOM     29  H   UNL     1      36.555 -18.987 -23.684  0.00  0.00    +0.211 HD
ENDBRANCH  27  28
ENDBRANCH  26  27
ENDBRANCH  25  26
ENDBRANCH  24  25
ENDBRANCH  23  24
ENDBRANCH   2  23
TORSDOF 6
ENDMDL
