MODEL 1
REMARK VINA RESULT:     -12.0      0.000      0.000
REMARK  Name = 24941254
REMARK  6 active torsions:
REMARK  status: ('A' for Active; 'I' for Inactive)
REMARK    1  A    between atoms: C_1  and  S_21
REMARK    2  A    between atoms: C_4  and  C_9
REMARK    3  A    between atoms: N_8  and  C_11
REMARK    4  A    between atoms: C_12  and  C_18
REMARK    5  A    between atoms: C_18  and  O_19
REMARK    6  A    between atoms: S_21  and  N_24
REMARK                            x       y       z     vdW  Elec       q    Type
REMARK                         _______ _______ _______ _____ _____    ______ ____
ROOT
ATOM      1  C   UNL     1      34.731 -19.433 -21.713  0.00  0.00    +0.122 C 
ATOM      2  C   UNL     1      35.526 -20.143 -20.814  0.00  0.00    +0.024 C 
ATOM      3  C   UNL     1      33.341 -19.464 -21.589  0.00  0.00    +0.020 C 
ATOM      4  C   UNL     1      34.933 -20.884 -19.792  0.00  0.00    +0.055 C 
ATOM      5  C   UNL     1      32.748 -20.205 -20.568  0.00  0.00    +0.002 C 
ATOM      6  C   UNL     1      33.545 -20.915 -19.669  0.00  0.00    +0.005 C 
ENDROOT
BRANCH   4   9
ATOM      7  O   UNL     1      36.946 -21.856 -19.149  0.00  0.00    -0.270 OA
ATOM      8  N   UNL     1      35.144 -22.000 -17.654  0.00  0.00    -0.280 N 
ATOM      9  C   UNL     1      35.763 -21.624 -18.854  0.00  0.00    +0.250 C 
ATOM     10  H   UNL     1      34.197 -21.745 -17.563  0.00  0.00    +0.155 HD
BRANCH   8  11
ATOM     11  C   UNL     1      35.701 -22.698 -16.555  0.00  0.00    +0.057 C 
ATOM     12  C   UNL     1      34.895 -23.435 -15.688  0.00  0.00    +0.089 C 
ATOM     13  C   UNL     1      37.079 -22.639 -16.346  0.00  0.00    +0.015 C 
ATOM     14  C   UNL     1      35.467 -24.114 -14.611  0.00  0.00    +0.008 C 
ATOM     15  C   UNL     1      37.651 -23.317 -15.269  0.00  0.00    +0.001 C 
ATOM     16  C   UNL     1      36.845 -24.054 -14.402  0.00  0.00    +0.000 C 
BRANCH  12  18
ATOM     17  O   UNL     1      32.875 -23.500 -16.967  0.00  0.00    -0.245 OA
ATOM     18  C   UNL     1      33.452 -23.518 -15.877  0.00  0.00    +0.339 C 
BRANCH  18  19
ATOM     19  O   UNL     1      32.781 -23.620 -14.699  0.00  0.00    -0.477 OA
ATOM     20  H   UNL     1      32.695 -22.871 -14.143  0.00  0.00    +0.295 HD
ENDBRANCH  18  19
ENDBRANCH  12  18
ENDBRANCH   8  11
ENDBRANCH   4   9
BRANCH   1  21
ATOM     21  S   UNL     1      35.480 -18.496 -23.009  0.00  0.00    +0.064 S 
ATOM     22  O   UNL     1      36.824 -18.157 -22.589  0.00  0.00    -0.153 OA
ATOM     23  O   UNL     1      35.243 -19.192 -24.256  0.00  0.00    -0.153 OA
BRANCH  21  24
ATOM     24  N   UNL     1      34.507 -17.089 -22.963  0.00  0.00    -0.151 NA
ATOM     25  C   UNL     1      34.724 -16.113 -24.065  0.00  0.00    +0.101 C 
ATOM     26  C   UNL     1      34.413 -16.416 -21.632  0.00  0.00    +0.122 C 
ATOM     27  C   UNL     1      33.502 -15.205 -24.163  0.00  0.00    +0.045 C 
ATOM     28  C   UNL     1      33.558 -15.172 -21.633  0.00  0.00    -0.008 C 
ATOM     29  C   UNL     1      33.152 -14.575 -22.839  0.00  0.00    -0.023 C 
ATOM     30  C   UNL     1      33.199 -14.580 -20.414  0.00  0.00    -0.003 C 
ATOM     31  C   UNL     1      32.364 -13.417 -22.805  0.00  0.00    -0.004 C 
ATOM     32  C   UNL     1      32.425 -13.421 -20.392  0.00  0.00    -0.000 C 
ATOM     33  C   UNL     1      32.006 -12.841 -21.587  0.00  0.00    -0.000 C 
ENDBRANCH  21  24
ENDBRANCH   1  21
TORSDOF 6
ENDMDL
MODEL 2
REMARK VINA RESULT:     -12.0      4.201     10.869
REMARK  Name = 24941254
REMARK  6 active torsions:
REMARK  status: ('A' for Active; 'I' for Inactive)
REMARK    1  A    between atoms: C_1  and  S_21
REMARK    2  A    between atoms: C_4  and  C_9
REMARK    3  A    between atoms: N_8  and  C_11
REMARK    4  A    between atoms: C_12  and  C_18
REMARK    5  A    between atoms: C_18  and  O_19
REMARK    6  A    between atoms: S_21  and  N_24
REMARK                            x       y       z     vdW  Elec       q    Type
REMARK                         _______ _______ _______ _____ _____    ______ ____
ROOT
ATOM      1  C   UNL     1      33.803 -15.306 -22.692  0.00  0.00    +0.122 C 
ATOM      2  C   UNL     1      33.669 -14.014 -23.200  0.00  0.00    +0.024 C 
ATOM      3  C   UNL     1      33.257 -15.625 -21.448  0.00  0.00    +0.020 C 
ATOM      4  C   UNL     1      32.990 -13.042 -22.466  0.00  0.00    +0.055 C 
ATOM      5  C   UNL     1      32.578 -14.653 -20.714  0.00  0.00    +0.002 C 
ATOM      6  C   UNL     1      32.444 -13.361 -21.224  0.00  0.00    +0.005 C 
ENDROOT
BRANCH   4   9
ATOM      7  O   UNL     1      33.336 -11.430 -24.108  0.00  0.00    -0.270 OA
ATOM      8  N   UNL     1      32.135 -10.792 -22.196  0.00  0.00    -0.280 N 
ATOM      9  C   UNL     1      32.849 -11.695 -22.997  0.00  0.00    +0.250 C 
ATOM     10  H   UNL     1      31.809 -11.148 -21.338  0.00  0.00    +0.155 HD
BRANCH   8  11
ATOM     11  C   UNL     1      31.820  -9.437 -22.460  0.00  0.00    +0.057 C 
ATOM     12  C   UNL     1      31.940  -8.465 -21.467  0.00  0.00    +0.089 C 
ATOM     13  C   UNL     1      31.384  -9.081 -23.736  0.00  0.00    +0.015 C 
ATOM     14  C   UNL     1      31.623  -7.136 -21.751  0.00  0.00    +0.008 C 
ATOM     15  C   UNL     1      31.066  -7.752 -24.019  0.00  0.00    +0.001 C 
ATOM     16  C   UNL     1      31.186  -6.780 -23.027  0.00  0.00    +0.000 C 
BRANCH  12  18
ATOM     17  O   UNL     1      32.112  -9.838 -19.517  0.00  0.00    -0.245 OA
ATOM     18  C   UNL     1      32.393  -8.803 -20.123  0.00  0.00    +0.339 C 
BRANCH  18  19
ATOM     19  O   UNL     1      33.181  -7.834 -19.585  0.00  0.00    -0.477 OA
ATOM     20  H   UNL     1      32.793  -7.064 -19.220  0.00  0.00    +0.295 HD
ENDBRANCH  18  19
ENDBRANCH  12  18
ENDBRANCH   8  11
ENDBRANCH   4   9
BRANCH   1  21
ATOM     21  S   UNL     1      34.665 -16.536 -23.619  0.00  0.00    +0.064 S 
ATOM     22  O   UNL     1      33.747 -17.073 -24.602  0.00  0.00    -0.153 OA
ATOM     23  O   UNL     1      35.941 -15.981 -24.018  0.00  0.00    -0.153 OA
BRANCH  21  24
ATOM     24  N   UNL     1      34.924 -17.706 -22.396  0.00  0.00    -0.151 NA
ATOM     25  C   UNL     1      36.238 -18.402 -22.433  0.00  0.00    +0.101 C 
ATOM     26  C   UNL     1      33.795 -18.658 -22.169  0.00  0.00    +0.122 C 
ATOM     27  C   UNL     1      36.505 -19.016 -21.061  0.00  0.00    +0.045 C 
ATOM     28  C   UNL     1      34.064 -19.683 -21.094  0.00  0.00    -0.008 C 
ATOM     29  C   UNL     1      35.362 -19.877 -20.590  0.00  0.00    -0.023 C 
ATOM     30  C   UNL     1      33.013 -20.481 -20.622  0.00  0.00    -0.003 C 
ATOM     31  C   UNL     1      35.580 -20.842 -19.596  0.00  0.00    -0.004 C 
ATOM     32  C   UNL     1      33.243 -21.446 -19.642  0.00  0.00    -0.000 C 
ATOM     33  C   UNL     1      34.525 -21.625 -19.128  0.00  0.00    -0.000 C 
ENDBRANCH  21  24
ENDBRANCH   1  21
TORSDOF 6
ENDMDL
MODEL 3
REMARK VINA RESULT:     -11.9      5.860      9.554
REMARK  Name = 24941254
REMARK  6 active torsions:
REMARK  status: ('A' for Active; 'I' for Inactive)
REMARK    1  A    between atoms: C_1  and  S_21
REMARK    2  A    between atoms: C_4  and  C_9
REMARK    3  A    between atoms: N_8  and  C_11
REMARK    4  A    between atoms: C_12  and  C_18
REMARK    5  A    between atoms: C_18  and  O_19
REMARK    6  A    between atoms: S_21  and  N_24
REMARK                            x       y       z     vdW  Elec       q    Type
REMARK                         _______ _______ _______ _____ _____    ______ ____
ROOT
ATOM      1  C   UNL     1      32.735 -10.897 -23.275  0.00  0.00    +0.122 C 
ATOM      2  C   UNL     1      32.716 -12.180 -22.729  0.00  0.00    +0.024 C 
ATOM      3  C   UNL     1      33.387 -10.665 -24.486  0.00  0.00    +0.020 C 
ATOM      4  C   UNL     1      33.349 -13.231 -23.393  0.00  0.00    +0.055 C 
ATOM      5  C   UNL     1      34.020 -11.715 -25.151  0.00  0.00    +0.002 C 
ATOM      6  C   UNL     1      34.001 -12.998 -24.604  0.00  0.00    +0.005 C 
ENDROOT
BRANCH   4   9
ATOM      7  O   UNL     1      32.360 -14.915 -22.130  0.00  0.00    -0.270 OA
ATOM      8  N   UNL     1      34.426 -15.384 -23.138  0.00  0.00    -0.280 N 
ATOM      9  C   UNL     1      33.329 -14.569 -22.824  0.00  0.00    +0.250 C 
ATOM     10  H   UNL     1      35.120 -14.970 -23.701  0.00  0.00    +0.155 HD
BRANCH   8  11
ATOM     11  C   UNL     1      34.666 -16.726 -22.753  0.00  0.00    +0.057 C 
ATOM     12  C   UNL     1      34.671 -17.754 -23.696  0.00  0.00    +0.089 C 
ATOM     13  C   UNL     1      34.901 -17.012 -21.409  0.00  0.00    +0.015 C 
ATOM     14  C   UNL     1      34.910 -19.068 -23.293  0.00  0.00    +0.008 C 
ATOM     15  C   UNL     1      35.139 -18.326 -21.006  0.00  0.00    +0.001 C 
ATOM     16  C   UNL     1      35.144 -19.354 -21.948  0.00  0.00    +0.000 C 
BRANCH  12  18
ATOM     17  O   UNL     1      34.959 -16.590 -25.766  0.00  0.00    -0.245 OA
ATOM     18  C   UNL     1      34.430 -17.490 -25.110  0.00  0.00    +0.339 C 
BRANCH  18  19
ATOM     19  O   UNL     1      33.537 -18.360 -25.653  0.00  0.00    -0.477 OA
ATOM     20  H   UNL     1      33.505 -18.479 -26.582  0.00  0.00    +0.295 HD
ENDBRANCH  18  19
ENDBRANCH  12  18
ENDBRANCH   8  11
ENDBRANCH   4   9
BRANCH   1  21
ATOM     21  S   UNL     1      31.936  -9.566 -22.434  0.00  0.00    +0.064 S 
ATOM     22  O   UNL     1      30.507  -9.787 -22.515  0.00  0.00    -0.153 OA
ATOM     23  O   UNL     1      32.591  -9.391 -21.154  0.00  0.00    -0.153 OA
BRANCH  21  24
ATOM     24  N   UNL     1      32.362  -8.264 -23.460  0.00  0.00    -0.151 NA
ATOM     25  C   UNL     1      33.757  -7.765 -23.329  0.00  0.00    +0.101 C 
ATOM     26  C   UNL     1      31.372  -7.146 -23.522  0.00  0.00    +0.122 C 
ATOM     27  C   UNL     1      34.117  -6.984 -24.590  0.00  0.00    +0.045 C 
ATOM     28  C   UNL     1      31.787  -6.010 -24.425  0.00  0.00    -0.008 C 
ATOM     29  C   UNL     1      33.104  -5.914 -24.907  0.00  0.00    -0.023 C 
ATOM     30  C   UNL     1      30.857  -5.015 -24.754  0.00  0.00    -0.003 C 
ATOM     31  C   UNL     1      33.459  -4.843 -25.739  0.00  0.00    -0.004 C 
ATOM     32  C   UNL     1      31.224  -3.946 -25.573  0.00  0.00    -0.000 C 
ATOM     33  C   UNL     1      32.523  -3.862 -26.066  0.00  0.00    -0.000 C 
ENDBRANCH  21  24
ENDBRANCH   1  21
TORSDOF 6
ENDMDL
MODEL 4
REMARK VINA RESULT:     -11.7      2.048      9.682
REMARK  Name = 24941254
REMARK  6 active torsions:
REMARK  status: ('A' for Active; 'I' for Inactive)
REMARK    1  A    between atoms: C_1  and  S_21
REMARK    2  A    between atoms: C_4  and  C_9
REMARK    3  A    between atoms: N_8  and  C_11
REMARK    4  A    between atoms: C_12  and  C_18
REMARK    5  A    between atoms: C_18  and  O_19
REMARK    6  A    between atoms: S_21  and  N_24
REMARK                            x       y       z     vdW  Elec       q    Type
REMARK                         _______ _______ _______ _____ _____    ______ ____
ROOT
ATOM      1  C   UNL     1      34.882 -21.086 -19.844  0.00  0.00    +0.122 C 
ATOM      2  C   UNL     1      34.188 -19.978 -20.332  0.00  0.00    +0.024 C 
ATOM      3  C   UNL     1      36.274 -21.130 -19.930  0.00  0.00    +0.020 C 
ATOM      4  C   UNL     1      34.886 -18.916 -20.905  0.00  0.00    +0.055 C 
ATOM      5  C   UNL     1      36.971 -20.067 -20.504  0.00  0.00    +0.002 C 
ATOM      6  C   UNL     1      36.276 -18.960 -20.991  0.00  0.00    +0.005 C 
ENDROOT
BRANCH   4   9
ATOM      7  O   UNL     1      33.022 -17.525 -20.983  0.00  0.00    -0.270 OA
ATOM      8  N   UNL     1      34.845 -16.976 -22.353  0.00  0.00    -0.280 N 
ATOM      9  C   UNL     1      34.163 -17.760 -21.413  0.00  0.00    +0.250 C 
ATOM     10  H   UNL     1      35.746 -17.288 -22.598  0.00  0.00    +0.155 HD
BRANCH   8  11
ATOM     11  C   UNL     1      34.410 -15.791 -22.996  0.00  0.00    +0.057 C 
ATOM     12  C   UNL     1      34.055 -15.794 -24.345  0.00  0.00    +0.089 C 
ATOM     13  C   UNL     1      34.339 -14.609 -22.258  0.00  0.00    +0.015 C 
ATOM     14  C   UNL     1      33.629 -14.614 -24.956  0.00  0.00    +0.008 C 
ATOM     15  C   UNL     1      33.914 -13.429 -22.870  0.00  0.00    +0.001 C 
ATOM     16  C   UNL     1      33.559 -13.432 -24.218  0.00  0.00    +0.000 C 
BRANCH  12  18
ATOM     17  O   UNL     1      34.932 -17.923 -24.991  0.00  0.00    -0.245 OA
ATOM     18  C   UNL     1      34.117 -17.011 -25.144  0.00  0.00    +0.339 C 
BRANCH  18  19
ATOM     19  O   UNL     1      33.158 -17.045 -26.108  0.00  0.00    -0.477 OA
ATOM     20  H   UNL     1      32.264 -17.201 -25.874  0.00  0.00    +0.295 HD
ENDBRANCH  18  19
ENDBRANCH  12  18
ENDBRANCH   8  11
ENDBRANCH   4   9
BRANCH   1  21
ATOM     21  S   UNL     1      34.000 -22.433 -19.120  0.00  0.00    +0.064 S 
ATOM     22  O   UNL     1      32.617 -22.029 -18.973  0.00  0.00    -0.153 OA
ATOM     23  O   UNL     1      34.350 -23.636 -19.845  0.00  0.00    -0.153 OA
BRANCH  21  24
ATOM     24  N   UNL     1      34.738 -22.479 -17.576  0.00  0.00    -0.151 NA
ATOM     25  C   UNL     1      36.225 -22.530 -17.569  0.00  0.00    +0.101 C 
ATOM     26  C   UNL     1      34.142 -23.450 -16.609  0.00  0.00    +0.122 C 
ATOM     27  C   UNL     1      36.723 -22.082 -16.198  0.00  0.00    +0.045 C 
ATOM     28  C   UNL     1      34.826 -23.473 -15.263  0.00  0.00    -0.008 C 
ATOM     29  C   UNL     1      36.072 -22.850 -15.075  0.00  0.00    -0.023 C 
ATOM     30  C   UNL     1      34.231 -24.161 -14.197  0.00  0.00    -0.003 C 
ATOM     31  C   UNL     1      36.684 -22.895 -13.815  0.00  0.00    -0.004 C 
ATOM     32  C   UNL     1      34.854 -24.210 -12.951  0.00  0.00    -0.000 C 
ATOM     33  C   UNL     1      36.079 -23.575 -12.760  0.00  0.00    -0.000 C 
ENDBRANCH  21  24
ENDBRANCH   1  21
TORSDOF 6
ENDMDL
MODEL 5
REMARK VINA RESULT:     -11.5      2.213      9.571
REMARK  Name = 24941254
REMARK  6 active torsions:
REMARK  status: ('A' for Active; 'I' for Inactive)
REMARK    1  A    between atoms: C_1  and  S_21
REMARK    2  A    between atoms: C_4  and  C_9
REMARK    3  A    between atoms: N_8  and  C_11
REMARK    4  A    between atoms: C_12  and  C_18
REMARK    5  A    between atoms: C_18  and  O_19
REMARK    6  A    between atoms: S_21  and  N_24
REMARK                            x       y       z     vdW  Elec       q    Type
REMARK                         _______ _______ _______ _____ _____    ______ ____
ROOT
ATOM      1  C   UNL     1      34.581 -21.580 -19.365  0.00  0.00    +0.122 C 
ATOM      2  C   UNL     1      33.908 -20.532 -19.993  0.00  0.00    +0.024 C 
ATOM      3  C   UNL     1      35.972 -21.662 -19.446  0.00  0.00    +0.020 C 
ATOM      4  C   UNL     1      34.625 -19.567 -20.700  0.00  0.00    +0.055 C 
ATOM      5  C   UNL     1      36.688 -20.698 -20.153  0.00  0.00    +0.002 C 
ATOM      6  C   UNL     1      36.014 -19.650 -20.781  0.00  0.00    +0.005 C 
ENDROOT
BRANCH   4   9
ATOM      7  O   UNL     1      32.715 -18.306 -21.121  0.00  0.00    -0.270 OA
ATOM      8  N   UNL     1      34.699 -17.665 -22.197  0.00  0.00    -0.280 N 
ATOM      9  C   UNL     1      33.923 -18.474 -21.354  0.00  0.00    +0.250 C 
ATOM     10  H   UNL     1      35.645 -17.923 -22.285  0.00  0.00    +0.155 HD
BRANCH   8  11
ATOM     11  C   UNL     1      34.300 -16.527 -22.939  0.00  0.00    +0.057 C 
ATOM     12  C   UNL     1      33.955 -15.337 -22.298  0.00  0.00    +0.089 C 
ATOM     13  C   UNL     1      34.257 -16.607 -24.331  0.00  0.00    +0.015 C 
ATOM     14  C   UNL     1      33.566 -14.228 -23.050  0.00  0.00    +0.008 C 
ATOM     15  C   UNL     1      33.866 -15.498 -25.082  0.00  0.00    +0.001 C 
ATOM     16  C   UNL     1      33.521 -14.309 -24.441  0.00  0.00    +0.000 C 
BRANCH  12  18
ATOM     17  O   UNL     1      35.013 -15.129 -20.163  0.00  0.00    -0.245 OA
ATOM     18  C   UNL     1      33.990 -15.218 -20.846  0.00  0.00    +0.339 C 
BRANCH  18  19
ATOM     19  O   UNL     1      32.745 -15.214 -20.297  0.00  0.00    -0.477 OA
ATOM     20  H   UNL     1      32.642 -15.119 -19.371  0.00  0.00    +0.295 HD
ENDBRANCH  18  19
ENDBRANCH  12  18
ENDBRANCH   8  11
ENDBRANCH   4   9
BRANCH   1  21
ATOM     21  S   UNL     1      33.675 -22.803 -18.471  0.00  0.00    +0.064 S 
ATOM     22  O   UNL     1      32.338 -22.292 -18.254  0.00  0.00    -0.153 OA
ATOM     23  O   UNL     1      33.889 -24.079 -19.121  0.00  0.00    -0.153 OA
BRANCH  21  24
ATOM     24  N   UNL     1      34.530 -22.785 -16.988  0.00  0.00    -0.151 NA
ATOM     25  C   UNL     1      36.011 -22.874 -17.091  0.00  0.00    +0.101 C 
ATOM     26  C   UNL     1      33.989 -23.685 -15.925  0.00  0.00    +0.122 C 
ATOM     27  C   UNL     1      36.624 -22.365 -15.790  0.00  0.00    +0.045 C 
ATOM     28  C   UNL     1      34.775 -23.653 -14.636  0.00  0.00    -0.008 C 
ATOM     29  C   UNL     1      36.046 -23.053 -14.579  0.00  0.00    -0.023 C 
ATOM     30  C   UNL     1      34.249 -24.265 -13.491  0.00  0.00    -0.003 C 
ATOM     31  C   UNL     1      36.752 -23.046 -13.369  0.00  0.00    -0.004 C 
ATOM     32  C   UNL     1      34.966 -24.263 -12.294  0.00  0.00    -0.000 C 
ATOM     33  C   UNL     1      36.216 -23.651 -12.234  0.00  0.00    -0.000 C 
ENDBRANCH  21  24
ENDBRANCH   1  21
TORSDOF 6
ENDMDL
MODEL 6
REMARK VINA RESULT:     -11.4      2.619      9.940
REMARK  Name = 24941254
REMARK  6 active torsions:
REMARK  status: ('A' for Active; 'I' for Inactive)
REMARK    1  A    between atoms: C_1  and  S_21
REMARK    2  A    between atoms: C_4  and  C_9
REMARK    3  A    between atoms: N_8  and  C_11
REMARK    4  A    between atoms: C_12  and  C_18
REMARK    5  A    between atoms: C_18  and  O_19
REMARK    6  A    between atoms: S_21  and  N_24
REMARK                            x       y       z     vdW  Elec       q    Type
REMARK                         _______ _______ _______ _____ _____    ______ ____
ROOT
ATOM      1  C   UNL     1      34.791 -22.331 -18.086  0.00  0.00    +0.122 C 
ATOM      2  C   UNL     1      34.191 -21.614 -19.122  0.00  0.00    +0.024 C 
ATOM      3  C   UNL     1      36.156 -22.184 -17.837  0.00  0.00    +0.020 C 
ATOM      4  C   UNL     1      34.956 -20.752 -19.907  0.00  0.00    +0.055 C 
ATOM      5  C   UNL     1      36.920 -21.321 -18.622  0.00  0.00    +0.002 C 
ATOM      6  C   UNL     1      36.319 -20.605 -19.657  0.00  0.00    +0.005 C 
ENDROOT
BRANCH   4   9
ATOM      7  O   UNL     1      33.107 -20.114 -21.167  0.00  0.00    -0.270 OA
ATOM      8  N   UNL     1      35.183 -19.181 -21.736  0.00  0.00    -0.280 N 
ATOM      9  C   UNL     1      34.330 -20.004 -20.987  0.00  0.00    +0.250 C 
ATOM     10  H   UNL     1      36.132 -19.198 -21.475  0.00  0.00    +0.155 HD
BRANCH   8  11
ATOM     11  C   UNL     1      34.859 -18.327 -22.818  0.00  0.00    +0.057 C 
ATOM     12  C   UNL     1      34.580 -16.976 -22.609  0.00  0.00    +0.089 C 
ATOM     13  C   UNL     1      34.820 -18.856 -24.108  0.00  0.00    +0.015 C 
ATOM     14  C   UNL     1      34.263 -16.155 -23.692  0.00  0.00    +0.008 C 
ATOM     15  C   UNL     1      34.502 -18.034 -25.190  0.00  0.00    +0.001 C 
ATOM     16  C   UNL     1      34.224 -16.684 -24.981  0.00  0.00    +0.000 C 
BRANCH  12  18
ATOM     17  O   UNL     1      35.360 -16.745 -20.360  0.00  0.00    -0.245 OA
ATOM     18  C   UNL     1      34.612 -16.392 -21.274  0.00  0.00    +0.339 C 
BRANCH  18  19
ATOM     19  O   UNL     1      33.707 -15.386 -21.129  0.00  0.00    -0.477 OA
ATOM     20  H   UNL     1      33.826 -14.743 -20.458  0.00  0.00    +0.295 HD
ENDBRANCH  18  19
ENDBRANCH  12  18
ENDBRANCH   8  11
ENDBRANCH   4   9
BRANCH   1  21
ATOM     21  S   UNL     1      33.825 -23.425 -17.093  0.00  0.00    +0.064 S 
ATOM     22  O   UNL     1      32.869 -22.626 -16.356  0.00  0.00    -0.153 OA
ATOM     23  O   UNL     1      33.388 -24.521 -17.934  0.00  0.00    -0.153 OA
BRANCH  21  24
ATOM     24  N   UNL     1      35.028 -23.995 -16.017  0.00  0.00    -0.151 NA
ATOM     25  C   UNL     1      35.021 -25.458 -15.751  0.00  0.00    +0.101 C 
ATOM     26  C   UNL     1      35.195 -23.200 -14.763  0.00  0.00    +0.122 C 
ATOM     27  C   UNL     1      36.386 -25.863 -15.202  0.00  0.00    +0.045 C 
ATOM     28  C   UNL     1      36.255 -23.739 -13.832  0.00  0.00    -0.008 C 
ATOM     29  C   UNL     1      36.798 -25.022 -14.021  0.00  0.00    -0.023 C 
ATOM     30  C   UNL     1      36.672 -22.966 -12.740  0.00  0.00    -0.003 C 
ATOM     31  C   UNL     1      37.776 -25.495 -13.136  0.00  0.00    -0.004 C 
ATOM     32  C   UNL     1      37.637 -23.452 -11.858  0.00  0.00    -0.000 C 
ATOM     33  C   UNL     1      38.190 -24.715 -12.057  0.00  0.00    -0.000 C 
ENDBRANCH  21  24
ENDBRANCH   1  21
TORSDOF 6
ENDMDL
MODEL 7
REMARK VINA RESULT:     -11.4      1.609      2.199
REMARK  Name = 24941254
REMARK  6 active torsions:
REMARK  status: ('A' for Active; 'I' for Inactive)
REMARK    1  A    between atoms: C_1  and  S_21
REMARK    2  A    between atoms: C_4  and  C_9
REMARK    3  A    between atoms: N_8  and  C_11
REMARK    4  A    between atoms: C_12  and  C_18
REMARK    5  A    between atoms: C_18  and  O_19
REMARK    6  A    between atoms: S_21  and  N_24
REMARK                            x       y       z     vdW  Elec       q    Type
REMARK                         _______ _______ _______ _____ _____    ______ ____
ROOT
ATOM      1  C   UNL     1      34.565 -19.267 -20.846  0.00  0.00    +0.122 C 
ATOM      2  C   UNL     1      34.983 -20.306 -20.015  0.00  0.00    +0.024 C 
ATOM      3  C   UNL     1      33.242 -19.217 -21.287  0.00  0.00    +0.020 C 
ATOM      4  C   UNL     1      34.080 -21.295 -19.626  0.00  0.00    +0.055 C 
ATOM      5  C   UNL     1      32.339 -20.207 -20.898  0.00  0.00    +0.002 C 
ATOM      6  C   UNL     1      32.758 -21.246 -20.067  0.00  0.00    +0.005 C 
ENDROOT
BRANCH   4   9
ATOM      7  O   UNL     1      34.533 -23.538 -19.204  0.00  0.00    -0.270 OA
ATOM      8  N   UNL     1      34.915 -22.007 -17.468  0.00  0.00    -0.280 N 
ATOM      9  C   UNL     1      34.516 -22.379 -18.759  0.00  0.00    +0.250 C 
ATOM     10  H   UNL     1      34.846 -21.047 -17.259  0.00  0.00    +0.155 HD
BRANCH   8  11
ATOM     11  C   UNL     1      35.406 -22.829 -16.425  0.00  0.00    +0.057 C 
ATOM     12  C   UNL     1      34.535 -23.452 -15.530  0.00  0.00    +0.089 C 
ATOM     13  C   UNL     1      36.783 -23.013 -16.300  0.00  0.00    +0.015 C 
ATOM     14  C   UNL     1      35.042 -24.258 -14.510  0.00  0.00    +0.008 C 
ATOM     15  C   UNL     1      37.289 -23.818 -15.279  0.00  0.00    +0.001 C 
ATOM     16  C   UNL     1      36.419 -24.440 -14.385  0.00  0.00    +0.000 C 
BRANCH  12  18
ATOM     17  O   UNL     1      32.413 -23.535 -16.630  0.00  0.00    -0.245 OA
ATOM     18  C   UNL     1      33.091 -23.281 -15.632  0.00  0.00    +0.339 C 
BRANCH  18  19
ATOM     19  O   UNL     1      32.545 -22.800 -14.483  0.00  0.00    -0.477 OA
ATOM     20  H   UNL     1      31.616 -22.697 -14.414  0.00  0.00    +0.295 HD
ENDBRANCH  18  19
ENDBRANCH  12  18
ENDBRANCH   8  11
ENDBRANCH   4   9
BRANCH   1  21
ATOM     21  S   UNL     1      35.707 -18.015 -21.341  0.00  0.00    +0.064 S 
ATOM     22  O   UNL     1      35.714 -16.993 -20.316  0.00  0.00    -0.153 OA
ATOM     23  O   UNL     1      36.934 -18.669 -21.749  0.00  0.00    -0.153 OA
BRANCH  21  24
ATOM     24  N   UNL     1      34.909 -17.412 -22.730  0.00  0.00    -0.151 NA
ATOM     25  C   UNL     1      35.332 -18.002 -24.028  0.00  0.00    +0.101 C 
ATOM     26  C   UNL     1      34.788 -15.925 -22.805  0.00  0.00    +0.122 C 
ATOM     27  C   UNL     1      34.240 -17.744 -25.062  0.00  0.00    +0.045 C 
ATOM     28  C   UNL     1      34.091 -15.429 -24.049  0.00  0.00    -0.008 C 
ATOM     29  C   UNL     1      33.860 -16.287 -25.139  0.00  0.00    -0.023 C 
ATOM     30  C   UNL     1      33.706 -14.084 -24.135  0.00  0.00    -0.003 C 
ATOM     31  C   UNL     1      33.216 -15.794 -26.282  0.00  0.00    -0.004 C 
ATOM     32  C   UNL     1      33.077 -13.601 -25.282  0.00  0.00    -0.000 C 
ATOM     33  C   UNL     1      32.830 -14.456 -26.353  0.00  0.00    -0.000 C 
ENDBRANCH  21  24
ENDBRANCH   1  21
TORSDOF 6
ENDMDL
MODEL 8
REMARK VINA RESULT:     -11.4      4.576      7.808
REMARK  Name = 24941254
REMARK  6 active torsions:
REMARK  status: ('A' for Active; 'I' for Inactive)
REMARK    1  A    between atoms: C_1  and  S_21
REMARK    2  A    between atoms: C_4  and  C_9
REMARK    3  A    between atoms: N_8  and  C_11
REMARK    4  A    between atoms: C_12  and  C_18
REMARK    5  A    between atoms: C_18  and  O_19
REMARK    6  A    between atoms: S_21  and  N_24
REMARK                            x       y       z     vdW  Elec       q    Type
REMARK                         _______ _______ _______ _____ _____    ______ ____
ROOT
ATOM      1  C   UNL     1      32.430 -12.557 -21.707  0.00  0.00    +0.122 C 
ATOM      2  C   UNL     1      32.850 -13.735 -21.089  0.00  0.00    +0.024 C 
ATOM      3  C   UNL     1      32.858 -12.260 -23.001  0.00  0.00    +0.020 C 
ATOM      4  C   UNL     1      33.697 -14.614 -21.763  0.00  0.00    +0.055 C 
ATOM      5  C   UNL     1      33.705 -13.138 -23.676  0.00  0.00    +0.002 C 
ATOM      6  C   UNL     1      34.125 -14.316 -23.056  0.00  0.00    +0.005 C 
ENDROOT
BRANCH   4   9
ATOM      7  O   UNL     1      34.877 -15.771 -20.126  0.00  0.00    -0.270 OA
ATOM      8  N   UNL     1      33.645 -17.033 -21.674  0.00  0.00    -0.280 N 
ATOM      9  C   UNL     1      34.134 -15.842 -21.118  0.00  0.00    +0.250 C 
ATOM     10  H   UNL     1      33.064 -16.930 -22.462  0.00  0.00    +0.155 HD
BRANCH   8  11
ATOM     11  C   UNL     1      33.876 -18.364 -21.249  0.00  0.00    +0.057 C 
ATOM     12  C   UNL     1      35.073 -19.016 -21.545  0.00  0.00    +0.089 C 
ATOM     13  C   UNL     1      32.883 -19.024 -20.524  0.00  0.00    +0.015 C 
ATOM     14  C   UNL     1      35.277 -20.328 -21.115  0.00  0.00    +0.008 C 
ATOM     15  C   UNL     1      33.087 -20.336 -20.096  0.00  0.00    +0.001 C 
ATOM     16  C   UNL     1      34.284 -20.987 -20.392  0.00  0.00    +0.000 C 
BRANCH  12  18
ATOM     17  O   UNL     1      37.316 -18.297 -21.963  0.00  0.00    -0.245 OA
ATOM     18  C   UNL     1      36.131 -18.356 -22.300  0.00  0.00    +0.339 C 
BRANCH  18  19
ATOM     19  O   UNL     1      35.672 -17.793 -23.450  0.00  0.00    -0.477 OA
ATOM     20  H   UNL     1      34.784 -17.498 -23.504  0.00  0.00    +0.295 HD
ENDBRANCH  18  19
ENDBRANCH  12  18
ENDBRANCH   8  11
ENDBRANCH   4   9
BRANCH   1  21
ATOM     21  S   UNL     1      31.359 -11.443 -20.854  0.00  0.00    +0.064 S 
ATOM     22  O   UNL     1      30.004 -11.716 -21.283  0.00  0.00    -0.153 OA
ATOM     23  O   UNL     1      31.715 -11.471 -19.450  0.00  0.00    -0.153 OA
BRANCH  21  24
ATOM     24  N   UNL     1      31.873  -9.957 -21.529  0.00  0.00    -0.151 NA
ATOM     25  C   UNL     1      32.338  -8.929 -20.559  0.00  0.00    +0.101 C 
ATOM     26  C   UNL     1      30.968  -9.376 -22.566  0.00  0.00    +0.122 C 
ATOM     27  C   UNL     1      33.189  -7.904 -21.301  0.00  0.00    +0.045 C 
ATOM     28  C   UNL     1      31.445  -8.059 -23.129  0.00  0.00    -0.008 C 
ATOM     29  C   UNL     1      32.482  -7.341 -22.508  0.00  0.00    -0.023 C 
ATOM     30  C   UNL     1      30.820  -7.526 -24.264  0.00  0.00    -0.003 C 
ATOM     31  C   UNL     1      32.898  -6.118 -23.052  0.00  0.00    -0.004 C 
ATOM     32  C   UNL     1      31.233  -6.302 -24.791  0.00  0.00    -0.000 C 
ATOM     33  C   UNL     1      32.273  -5.600 -24.186  0.00  0.00    -0.000 C 
ENDBRANCH  21  24
ENDBRANCH   1  21
TORSDOF 6
ENDMDL
MODEL 9
REMARK VINA RESULT:     -11.3      3.325     10.466
REMARK  Name = 24941254
REMARK  6 active torsions:
REMARK  status: ('A' for Active; 'I' for Inactive)
REMARK    1  A    between atoms: C_1  and  S_21
REMARK    2  A    between atoms: C_4  and  C_9
REMARK    3  A    between atoms: N_8  and  C_11
REMARK    4  A    between atoms: C_12  and  C_18
REMARK    5  A    between atoms: C_18  and  O_19
REMARK    6  A    between atoms: S_21  and  N_24
REMARK                            x       y       z     vdW  Elec       q    Type
REMARK                         _______ _______ _______ _____ _____    ______ ____
ROOT
ATOM      1  C   UNL     1      34.602 -16.747 -22.264  0.00  0.00    +0.122 C 
ATOM      2  C   UNL     1      33.953 -15.710 -22.934  0.00  0.00    +0.024 C 
ATOM      3  C   UNL     1      34.940 -16.602 -20.918  0.00  0.00    +0.020 C 
ATOM      4  C   UNL     1      33.642 -14.530 -22.259  0.00  0.00    +0.055 C 
ATOM      5  C   UNL     1      34.629 -15.422 -20.243  0.00  0.00    +0.002 C 
ATOM      6  C   UNL     1      33.979 -14.386 -20.914  0.00  0.00    +0.005 C 
ENDROOT
BRANCH   4   9
ATOM      7  O   UNL     1      32.300 -13.710 -23.974  0.00  0.00    -0.270 OA
ATOM      8  N   UNL     1      33.102 -12.173 -22.394  0.00  0.00    -0.280 N 
ATOM      9  C   UNL     1      32.964 -13.449 -22.958  0.00  0.00    +0.250 C 
ATOM     10  H   UNL     1      33.662 -12.122 -21.585  0.00  0.00    +0.155 HD
BRANCH   8  11
ATOM     11  C   UNL     1      32.542 -10.949 -22.833  0.00  0.00    +0.057 C 
ATOM     12  C   UNL     1      33.148 -10.204 -23.845  0.00  0.00    +0.089 C 
ATOM     13  C   UNL     1      31.367 -10.491 -22.237  0.00  0.00    +0.015 C 
ATOM     14  C   UNL     1      32.577  -9.000 -24.261  0.00  0.00    +0.008 C 
ATOM     15  C   UNL     1      30.798  -9.287 -22.652  0.00  0.00    +0.001 C 
ATOM     16  C   UNL     1      31.402  -8.543 -23.664  0.00  0.00    +0.000 C 
BRANCH  12  18
ATOM     17  O   UNL     1      34.449 -11.546 -25.336  0.00  0.00    -0.245 OA
ATOM     18  C   UNL     1      34.375 -10.653 -24.489  0.00  0.00    +0.339 C 
BRANCH  18  19
ATOM     19  O   UNL     1      35.468  -9.972 -24.052  0.00  0.00    -0.477 OA
ATOM     20  H   UNL     1      35.546  -9.054 -24.221  0.00  0.00    +0.295 HD
ENDBRANCH  18  19
ENDBRANCH  12  18
ENDBRANCH   8  11
ENDBRANCH   4   9
BRANCH   1  21
ATOM     21  S   UNL     1      34.999 -18.240 -23.118  0.00  0.00    +0.064 S 
ATOM     22  O   UNL     1      34.130 -18.334 -24.272  0.00  0.00    -0.153 OA
ATOM     23  O   UNL     1      36.439 -18.301 -23.263  0.00  0.00    -0.153 OA
BRANCH  21  24
ATOM     24  N   UNL     1      34.508 -19.393 -21.951  0.00  0.00    -0.151 NA
ATOM     25  C   UNL     1      33.196 -19.136 -21.299  0.00  0.00    +0.101 C 
ATOM     26  C   UNL     1      35.555 -19.791 -20.962  0.00  0.00    +0.122 C 
ATOM     27  C   UNL     1      32.690 -20.440 -20.687  0.00  0.00    +0.045 C 
ATOM     28  C   UNL     1      35.082 -20.798 -19.941  0.00  0.00    -0.008 C 
ATOM     29  C   UNL     1      33.714 -21.082 -19.787  0.00  0.00    -0.023 C 
ATOM     30  C   UNL     1      36.017 -21.426 -19.108  0.00  0.00    -0.003 C 
ATOM     31  C   UNL     1      33.307 -22.017 -18.825  0.00  0.00    -0.004 C 
ATOM     32  C   UNL     1      35.600 -22.346 -18.146  0.00  0.00    -0.000 C 
ATOM     33  C   UNL     1      34.247 -22.643 -18.006  0.00  0.00    -0.000 C 
ENDBRANCH  21  24
ENDBRANCH   1  21
TORSDOF 6
ENDMDL
