MODEL 1
REMARK VINA RESULT:      -6.3      0.000      0.000
REMARK  Name = 7608
REMARK  3 active torsions:
REMARK  status: ('A' for Active; 'I' for Inactive)
REMARK    1  A    between atoms: C_1  and  C_2
REMARK    2  A    between atoms: C_1  and  C_7
REMARK    3  A    between atoms: C_7  and  N_9
REMARK                            x       y       z     vdW  Elec       q    Type
REMARK                         _______ _______ _______ _____ _____    ______ ____
ROOT
ATOM      1  C   UNL     1      34.634 -18.262 -22.030  0.00  0.00    -0.021 C 
ENDROOT
BRANCH   1   2
ATOM      2  C   UNL     1      34.362 -19.652 -21.480  0.00  0.00    -0.002 C 
ATOM      3  C   UNL     1      35.430 -20.131 -20.501  0.00  0.00    -0.000 C 
ATOM      4  C   UNL     1      33.092 -19.727 -20.638  0.00  0.00    -0.000 C 
ATOM      5  C   UNL     1      34.758 -21.275 -19.749  0.00  0.00    -0.000 C 
ATOM      6  C   UNL     1      33.251 -21.022 -19.847  0.00  0.00    -0.000 C 
ENDBRANCH   1   2
BRANCH   1   7
ATOM      7  C   UNL     1      35.397 -18.262 -23.367  0.00  0.00    -0.062 C 
ATOM      8  C   UNL     1      34.705 -19.173 -24.379  0.00  0.00    -0.023 C 
BRANCH   7   9
ATOM      9  N   UNL     1      35.484 -16.914 -23.928  0.00  0.00    +0.384 N 
ATOM     10  C   UNL     1      34.701 -16.813 -25.150  0.00  0.00    -0.106 C 
ATOM     11  H   UNL     1      36.459 -16.701 -24.137  0.00  0.00    -0.085 HD
ATOM     12  H   UNL     1      35.115 -16.251 -23.246  0.00  0.00    -0.085 HD
ENDBRANCH   7   9
ENDBRANCH   1   7
TORSDOF 3
ENDMDL
MODEL 2
REMARK VINA RESULT:      -6.2      0.901      1.945
REMARK  Name = 7608
REMARK  3 active torsions:
REMARK  status: ('A' for Active; 'I' for Inactive)
REMARK    1  A    between atoms: C_1  and  C_2
REMARK    2  A    between atoms: C_1  and  C_7
REMARK    3  A    between atoms: C_7  and  N_9
REMARK                            x       y       z     vdW  Elec       q    Type
REMARK                         _______ _______ _______ _____ _____    ______ ____
ROOT
ATOM      1  C   UNL     1      35.093 -18.736 -22.286  0.00  0.00    -0.021 C 
ENDROOT
BRANCH   1   2
ATOM      2  C   UNL     1      34.684 -19.371 -20.968  0.00  0.00    -0.002 C 
ATOM      3  C   UNL     1      33.266 -19.933 -20.984  0.00  0.00    -0.000 C 
ATOM      4  C   UNL     1      35.516 -20.598 -20.608  0.00  0.00    -0.000 C 
ATOM      5  C   UNL     1      33.232 -20.890 -19.797  0.00  0.00    -0.000 C 
ATOM      6  C   UNL     1      34.683 -21.309 -19.547  0.00  0.00    -0.000 C 
ENDBRANCH   1   2
BRANCH   1   7
ATOM      7  C   UNL     1      34.657 -17.267 -22.429  0.00  0.00    -0.062 C 
ATOM      8  C   UNL     1      34.852 -16.519 -21.112  0.00  0.00    -0.023 C 
BRANCH   7   9
ATOM      9  N   UNL     1      35.420 -16.587 -23.476  0.00  0.00    +0.384 N 
ATOM     10  C   UNL     1      34.809 -16.801 -24.779  0.00  0.00    -0.106 C 
ATOM     11  H   UNL     1      36.371 -16.952 -23.488  0.00  0.00    -0.085 HD
ATOM     12  H   UNL     1      35.427 -15.586 -23.277  0.00  0.00    -0.085 HD
ENDBRANCH   7   9
ENDBRANCH   1   7
TORSDOF 3
ENDMDL
MODEL 3
REMARK VINA RESULT:      -6.1      1.616      2.459
REMARK  Name = 7608
REMARK  3 active torsions:
REMARK  status: ('A' for Active; 'I' for Inactive)
REMARK    1  A    between atoms: C_1  and  C_2
REMARK    2  A    between atoms: C_1  and  C_7
REMARK    3  A    between atoms: C_7  and  N_9
REMARK                            x       y       z     vdW  Elec       q    Type
REMARK                         _______ _______ _______ _____ _____    ______ ____
ROOT
ATOM      1  C   UNL     1      34.752 -18.858 -22.125  0.00  0.00    -0.021 C 
ENDROOT
BRANCH   1   2
ATOM      2  C   UNL     1      34.501 -19.550 -20.796  0.00  0.00    -0.002 C 
ATOM      3  C   UNL     1      33.140 -20.235 -20.721  0.00  0.00    -0.000 C 
ATOM      4  C   UNL     1      35.461 -20.705 -20.530  0.00  0.00    -0.000 C 
ATOM      5  C   UNL     1      33.280 -21.213 -19.559  0.00  0.00    -0.000 C 
ATOM      6  C   UNL     1      34.776 -21.507 -19.428  0.00  0.00    -0.000 C 
ENDBRANCH   1   2
BRANCH   1   7
ATOM      7  C   UNL     1      35.370 -17.455 -21.988  0.00  0.00    -0.062 C 
ATOM      8  C   UNL     1      34.813 -16.516 -23.056  0.00  0.00    -0.023 C 
BRANCH   7   9
ATOM      9  N   UNL     1      35.100 -16.883 -20.669  0.00  0.00    +0.384 N 
ATOM     10  C   UNL     1      34.543 -15.545 -20.793  0.00  0.00    -0.106 C 
ATOM     11  H   UNL     1      35.970 -16.835 -20.140  0.00  0.00    -0.085 HD
ATOM     12  H   UNL     1      34.425 -17.477 -20.187  0.00  0.00    -0.085 HD
ENDBRANCH   7   9
ENDBRANCH   1   7
TORSDOF 3
ENDMDL
MODEL 4
REMARK VINA RESULT:      -5.9      1.712      4.799
REMARK  Name = 7608
REMARK  3 active torsions:
REMARK  status: ('A' for Active; 'I' for Inactive)
REMARK    1  A    between atoms: C_1  and  C_2
REMARK    2  A    between atoms: C_1  and  C_7
REMARK    3  A    between atoms: C_7  and  N_9
REMARK                            x       y       z     vdW  Elec       q    Type
REMARK                         _______ _______ _______ _____ _____    ______ ____
ROOT
ATOM      1  C   UNL     1      34.850 -19.528 -22.629  0.00  0.00    -0.021 C 
ENDROOT
BRANCH   1   2
ATOM      2  C   UNL     1      35.233 -18.294 -23.428  0.00  0.00    -0.002 C 
ATOM      3  C   UNL     1      34.524 -18.206 -24.777  0.00  0.00    -0.000 C 
ATOM      4  C   UNL     1      34.815 -16.990 -22.757  0.00  0.00    -0.000 C 
ATOM      5  C   UNL     1      34.675 -16.743 -25.181  0.00  0.00    -0.000 C 
ATOM      6  C   UNL     1      34.875 -15.961 -23.881  0.00  0.00    -0.000 C 
ENDBRANCH   1   2
BRANCH   1   7
ATOM      7  C   UNL     1      34.629 -19.254 -21.131  0.00  0.00    -0.062 C 
ATOM      8  C   UNL     1      33.394 -19.997 -20.626  0.00  0.00    -0.023 C 
BRANCH   7   9
ATOM      9  N   UNL     1      35.787 -19.669 -20.339  0.00  0.00    +0.384 N 
ATOM     10  C   UNL     1      35.682 -21.073 -19.973  0.00  0.00    -0.106 C 
ATOM     11  H   UNL     1      35.833 -19.105 -19.492  0.00  0.00    -0.085 HD
ATOM     12  H   UNL     1      36.630 -19.539 -20.899  0.00  0.00    -0.085 HD
ENDBRANCH   7   9
ENDBRANCH   1   7
TORSDOF 3
ENDMDL
MODEL 5
REMARK VINA RESULT:      -5.8      2.187      4.781
REMARK  Name = 7608
REMARK  3 active torsions:
REMARK  status: ('A' for Active; 'I' for Inactive)
REMARK    1  A    between atoms: C_1  and  C_2
REMARK    2  A    between atoms: C_1  and  C_7
REMARK    3  A    between atoms: C_7  and  N_9
REMARK                            x       y       z     vdW  Elec       q    Type
REMARK                         _______ _______ _______ _____ _____    ______ ____
ROOT
ATOM      1  C   UNL     1      35.272 -19.735 -21.498  0.00  0.00    -0.021 C 
ENDROOT
BRANCH   1   2
ATOM      2  C   UNL     1      34.657 -18.786 -22.512  0.00  0.00    -0.002 C 
ATOM      3  C   UNL     1      35.293 -17.399 -22.500  0.00  0.00    -0.000 C 
ATOM      4  C   UNL     1      34.871 -19.228 -23.956  0.00  0.00    -0.000 C 
ATOM      5  C   UNL     1      34.882 -16.790 -23.837  0.00  0.00    -0.000 C 
ATOM      6  C   UNL     1      34.599 -17.968 -24.772  0.00  0.00    -0.000 C 
ENDBRANCH   1   2
BRANCH   1   7
ATOM      7  C   UNL     1      34.332 -20.089 -20.331  0.00  0.00    -0.062 C 
ATOM      8  C   UNL     1      32.880 -20.127 -20.804  0.00  0.00    -0.023 C 
BRANCH   7   9
ATOM      9  N   UNL     1      34.674 -21.388 -19.750  0.00  0.00    +0.384 N 
ATOM     10  C   UNL     1      36.068 -21.417 -19.338  0.00  0.00    -0.106 C 
ATOM     11  H   UNL     1      34.514 -22.117 -20.444  0.00  0.00    -0.085 HD
ATOM     12  H   UNL     1      34.086 -21.544 -18.931  0.00  0.00    -0.085 HD
ENDBRANCH   7   9
ENDBRANCH   1   7
TORSDOF 3
ENDMDL
MODEL 6
REMARK VINA RESULT:      -5.6      1.973      2.805
REMARK  Name = 7608
REMARK  3 active torsions:
REMARK  status: ('A' for Active; 'I' for Inactive)
REMARK    1  A    between atoms: C_1  and  C_2
REMARK    2  A    between atoms: C_1  and  C_7
REMARK    3  A    between atoms: C_7  and  N_9
REMARK                            x       y       z     vdW  Elec       q    Type
REMARK                         _______ _______ _______ _____ _____    ______ ____
ROOT
ATOM      1  C   UNL     1      35.255 -17.375 -22.229  0.00  0.00    -0.021 C 
ENDROOT
BRANCH   1   2
ATOM      2  C   UNL     1      35.094 -18.376 -21.097  0.00  0.00    -0.002 C 
ATOM      3  C   UNL     1      33.927 -19.337 -21.306  0.00  0.00    -0.000 C 
ATOM      4  C   UNL     1      36.278 -19.327 -20.963  0.00  0.00    -0.000 C 
ATOM      5  C   UNL     1      34.220 -20.490 -20.352  0.00  0.00    -0.000 C 
ATOM      6  C   UNL     1      35.733 -20.477 -20.121  0.00  0.00    -0.000 C 
ENDBRANCH   1   2
BRANCH   1   7
ATOM      7  C   UNL     1      34.373 -16.122 -22.080  0.00  0.00    -0.062 C 
ATOM      8  C   UNL     1      34.548 -15.504 -20.694  0.00  0.00    -0.023 C 
BRANCH   7   9
ATOM      9  N   UNL     1      34.704 -15.117 -23.090  0.00  0.00    +0.384 N 
ATOM     10  C   UNL     1      33.996 -13.873 -22.829  0.00  0.00    -0.106 C 
ATOM     11  H   UNL     1      34.439 -15.467 -24.010  0.00  0.00    -0.085 HD
ATOM     12  H   UNL     1      35.708 -14.937 -23.056  0.00  0.00    -0.085 HD
ENDBRANCH   7   9
ENDBRANCH   1   7
TORSDOF 3
ENDMDL
MODEL 7
REMARK VINA RESULT:      -5.5      9.784     12.179
REMARK  Name = 7608
REMARK  3 active torsions:
REMARK  status: ('A' for Active; 'I' for Inactive)
REMARK    1  A    between atoms: C_1  and  C_2
REMARK    2  A    between atoms: C_1  and  C_7
REMARK    3  A    between atoms: C_7  and  N_9
REMARK                            x       y       z     vdW  Elec       q    Type
REMARK                         _______ _______ _______ _____ _____    ______ ____
ROOT
ATOM      1  C   UNL     1      32.991  -7.700 -21.108  0.00  0.00    -0.021 C 
ENDROOT
BRANCH   1   2
ATOM      2  C   UNL     1      33.109  -7.599 -22.619  0.00  0.00    -0.002 C 
ATOM      3  C   UNL     1      32.520  -6.310 -23.184  0.00  0.00    -0.000 C 
ATOM      4  C   UNL     1      34.553  -7.536 -23.106  0.00  0.00    -0.000 C 
ATOM      5  C   UNL     1      33.135  -6.199 -24.575  0.00  0.00    -0.000 C 
ATOM      6  C   UNL     1      34.439  -6.998 -24.529  0.00  0.00    -0.000 C 
ENDBRANCH   1   2
BRANCH   1   7
ATOM      7  C   UNL     1      32.025  -8.800 -20.633  0.00  0.00    -0.062 C 
ATOM      8  C   UNL     1      31.899  -9.895 -21.691  0.00  0.00    -0.023 C 
BRANCH   7   9
ATOM      9  N   UNL     1      32.483  -9.404 -19.382  0.00  0.00    +0.384 N 
ATOM     10  C   UNL     1      31.599 -10.487 -18.980  0.00  0.00    -0.106 C 
ATOM     11  H   UNL     1      32.494  -8.693 -18.651  0.00  0.00    -0.085 HD
ATOM     12  H   UNL     1      33.420  -9.781 -19.523  0.00  0.00    -0.085 HD
ENDBRANCH   7   9
ENDBRANCH   1   7
TORSDOF 3
ENDMDL
MODEL 8
REMARK VINA RESULT:      -5.5      2.359      4.802
REMARK  Name = 7608
REMARK  3 active torsions:
REMARK  status: ('A' for Active; 'I' for Inactive)
REMARK    1  A    between atoms: C_1  and  C_2
REMARK    2  A    between atoms: C_1  and  C_7
REMARK    3  A    between atoms: C_7  and  N_9
REMARK                            x       y       z     vdW  Elec       q    Type
REMARK                         _______ _______ _______ _____ _____    ______ ____
ROOT
ATOM      1  C   UNL     1      35.536 -18.156 -21.154  0.00  0.00    -0.021 C 
ENDROOT
BRANCH   1   2
ATOM      2  C   UNL     1      34.677 -17.015 -21.670  0.00  0.00    -0.002 C 
ATOM      3  C   UNL     1      34.675 -15.798 -20.750  0.00  0.00    -0.000 C 
ATOM      4  C   UNL     1      35.182 -16.428 -22.984  0.00  0.00    -0.000 C 
ATOM      5  C   UNL     1      34.170 -14.663 -21.635  0.00  0.00    -0.000 C 
ATOM      6  C   UNL     1      34.486 -15.074 -23.075  0.00  0.00    -0.000 C 
ENDBRANCH   1   2
BRANCH   1   7
ATOM      7  C   UNL     1      34.886 -19.542 -21.309  0.00  0.00    -0.062 C 
ATOM      8  C   UNL     1      35.587 -20.566 -20.418  0.00  0.00    -0.023 C 
BRANCH   7   9
ATOM      9  N   UNL     1      33.466 -19.505 -20.959  0.00  0.00    +0.384 N 
ATOM     10  C   UNL     1      33.131 -20.593 -20.054  0.00  0.00    -0.106 C 
ATOM     11  H   UNL     1      32.910 -19.593 -21.809  0.00  0.00    -0.085 HD
ATOM     12  H   UNL     1      33.267 -18.618 -20.496  0.00  0.00    -0.085 HD
ENDBRANCH   7   9
ENDBRANCH   1   7
TORSDOF 3
ENDMDL
MODEL 9
REMARK VINA RESULT:      -5.5      2.521      4.885
REMARK  Name = 7608
REMARK  3 active torsions:
REMARK  status: ('A' for Active; 'I' for Inactive)
REMARK    1  A    between atoms: C_1  and  C_2
REMARK    2  A    between atoms: C_1  and  C_7
REMARK    3  A    between atoms: C_7  and  N_9
REMARK                            x       y       z     vdW  Elec       q    Type
REMARK                         _______ _______ _______ _____ _____    ______ ____
ROOT
ATOM      1  C   UNL     1      34.480 -20.122 -20.600  0.00  0.00    -0.021 C 
ENDROOT
BRANCH   1   2
ATOM      2  C   UNL     1      35.162 -19.123 -21.519  0.00  0.00    -0.002 C 
ATOM      3  C   UNL     1      34.783 -19.299 -22.986  0.00  0.00    -0.000 C 
ATOM      4  C   UNL     1      34.750 -17.679 -21.248  0.00  0.00    -0.000 C 
ATOM      5  C   UNL     1      35.178 -17.976 -23.633  0.00  0.00    -0.000 C 
ATOM      6  C   UNL     1      35.168 -16.934 -22.512  0.00  0.00    -0.000 C 
ENDBRANCH   1   2
BRANCH   1   7
ATOM      7  C   UNL     1      35.401 -21.262 -20.130  0.00  0.00    -0.062 C 
ATOM      8  C   UNL     1      36.801 -20.730 -19.827  0.00  0.00    -0.023 C 
BRANCH   7   9
ATOM      9  N   UNL     1      34.873 -21.911 -18.930  0.00  0.00    +0.384 N 
ATOM     10  C   UNL     1      33.425 -22.029 -19.004  0.00  0.00    -0.106 C 
ATOM     11  H   UNL     1      35.122 -21.355 -18.112  0.00  0.00    -0.085 HD
ATOM     12  H   UNL     1      35.276 -22.845 -18.859  0.00  0.00    -0.085 HD
ENDBRANCH   7   9
ENDBRANCH   1   7
TORSDOF 3
ENDMDL
