MODEL 1
REMARK VINA RESULT:      -9.0      0.000      0.000
REMARK  Name = 446934
REMARK  2 active torsions:
REMARK  status: ('A' for Active; 'I' for Inactive)
REMARK    1  A    between atoms: C_11  and  O_20
REMARK    2  A    between atoms: C_19  and  O_22
REMARK                            x       y       z     vdW  Elec       q    Type
REMARK                         _______ _______ _______ _____ _____    ______ ____
ROOT
ATOM      1  C   UNL     1      34.418 -24.503 -14.540  0.00  0.00    +0.000 C 
ATOM      2  C   UNL     1      33.859 -23.315 -15.389  0.00  0.00    +0.000 C 
ATOM      3  C   UNL     1      32.419 -23.643 -15.803  0.00  0.00    +0.002 C 
ATOM      4  C   UNL     1      35.917 -24.269 -14.118  0.00  0.00    +0.000 C 
ATOM      5  C   UNL     1      31.486 -23.858 -14.594  0.00  0.00    +0.025 C 
ATOM      6  C   UNL     1      36.738 -24.027 -15.426  0.00  0.00    +0.002 C 
ATOM      7  C   UNL     1      33.472 -24.876 -13.369  0.00  0.00    +0.000 C 
ATOM      8  C   UNL     1      32.009 -25.069 -13.807  0.00  0.00    +0.002 C 
ATOM      9  C   UNL     1      34.745 -23.036 -16.611  0.00  0.00    +0.000 C 
ATOM     10  C   UNL     1      31.659 -22.644 -16.671  0.00  0.00    +0.003 C 
ATOM     11  C   UNL     1      30.133 -24.039 -15.316  0.00  0.00    +0.110 C 
ATOM     12  C   UNL     1      36.211 -22.836 -16.235  0.00  0.00    +0.000 C 
ATOM     13  C   UNL     1      36.495 -25.537 -13.425  0.00  0.00    +0.002 C 
ATOM     14  C   UNL     1      30.175 -23.010 -16.465  0.00  0.00    +0.029 C 
ATOM     15  C   UNL     1      38.245 -23.908 -15.170  0.00  0.00    +0.029 C 
ATOM     16  C   UNL     1      36.031 -23.078 -13.131  0.00  0.00    +0.000 C 
ATOM     17  C   UNL     1      31.370 -22.633 -13.651  0.00  0.00    +0.002 C 
ATOM     18  C   UNL     1      38.005 -25.466 -13.187  0.00  0.00    +0.029 C 
ATOM     19  C   UNL     1      38.781 -25.150 -14.459  0.00  0.00    +0.111 C 
ENDROOT
BRANCH  11  20
ATOM     20  O   UNL     1      30.017 -25.346 -15.869  0.00  0.00    -0.384 OA
ATOM     21  H   UNL     1      30.609 -25.952 -15.395  0.00  0.00    +0.210 HD
ENDBRANCH  11  20
BRANCH  19  22
ATOM     22  O   UNL     1      40.150 -24.954 -14.120  0.00  0.00    -0.384 OA
ATOM     23  H   UNL     1      40.222 -24.246 -13.460  0.00  0.00    +0.210 HD
ENDBRANCH  19  22
TORSDOF 2
ENDMDL
MODEL 2
REMARK VINA RESULT:      -8.2      3.465      6.204
REMARK  Name = 446934
REMARK  2 active torsions:
REMARK  status: ('A' for Active; 'I' for Inactive)
REMARK    1  A    between atoms: C_11  and  O_20
REMARK    2  A    between atoms: C_19  and  O_22
REMARK                            x       y       z     vdW  Elec       q    Type
REMARK                         _______ _______ _______ _____ _____    ______ ____
ROOT
ATOM      1  C   UNL     1      34.503 -22.375 -17.268  0.00  0.00    +0.000 C 
ATOM      2  C   UNL     1      35.942 -22.870 -16.908  0.00  0.00    +0.000 C 
ATOM      3  C   UNL     1      36.006 -23.133 -15.398  0.00  0.00    +0.002 C 
ATOM      4  C   UNL     1      34.366 -22.029 -18.798  0.00  0.00    +0.000 C 
ATOM      5  C   UNL     1      34.994 -24.202 -14.936  0.00  0.00    +0.025 C 
ATOM      6  C   UNL     1      35.468 -20.972 -19.138  0.00  0.00    +0.002 C 
ATOM      7  C   UNL     1      33.408 -23.328 -16.726  0.00  0.00    +0.000 C 
ATOM      8  C   UNL     1      33.583 -23.673 -15.235  0.00  0.00    +0.002 C 
ATOM      9  C   UNL     1      37.008 -21.857 -17.348  0.00  0.00    +0.000 C 
ATOM     10  C   UNL     1      37.325 -23.601 -14.791  0.00  0.00    +0.003 C 
ATOM     11  C   UNL     1      35.381 -24.326 -13.447  0.00  0.00    +0.110 C 
ATOM     12  C   UNL     1      36.880 -21.478 -18.821  0.00  0.00    +0.000 C 
ATOM     13  C   UNL     1      32.984 -21.379 -19.091  0.00  0.00    +0.002 C 
ATOM     14  C   UNL     1      36.922 -24.240 -13.447  0.00  0.00    +0.029 C 
ATOM     15  C   UNL     1      35.369 -20.450 -20.576  0.00  0.00    +0.029 C 
ATOM     16  C   UNL     1      34.500 -23.307 -19.665  0.00  0.00    +0.000 C 
ATOM     17  C   UNL     1      35.182 -25.590 -15.601  0.00  0.00    +0.002 C 
ATOM     18  C   UNL     1      32.863 -20.815 -20.508  0.00  0.00    +0.029 C 
ATOM     19  C   UNL     1      33.991 -19.848 -20.848  0.00  0.00    +0.111 C 
ENDROOT
BRANCH  11  20
ATOM     20  O   UNL     1      34.858 -23.240 -12.689  0.00  0.00    -0.384 OA
ATOM     21  H   UNL     1      34.400 -22.623 -13.281  0.00  0.00    +0.210 HD
ENDBRANCH  11  20
BRANCH  19  22
ATOM     22  O   UNL     1      33.887 -19.493 -22.223  0.00  0.00    -0.384 OA
ATOM     23  H   UNL     1      32.955 -19.347 -22.450  0.00  0.00    +0.210 HD
ENDBRANCH  19  22
TORSDOF 2
ENDMDL
MODEL 3
REMARK VINA RESULT:      -8.1      1.468      6.323
REMARK  Name = 446934
REMARK  2 active torsions:
REMARK  status: ('A' for Active; 'I' for Inactive)
REMARK    1  A    between atoms: C_11  and  O_20
REMARK    2  A    between atoms: C_19  and  O_22
REMARK                            x       y       z     vdW  Elec       q    Type
REMARK                         _______ _______ _______ _____ _____    ______ ____
ROOT
ATOM      1  C   UNL     1      34.418 -23.747 -13.610  0.00  0.00    +0.000 C 
ATOM      2  C   UNL     1      35.537 -24.237 -14.585  0.00  0.00    +0.000 C 
ATOM      3  C   UNL     1      36.901 -23.995 -13.928  0.00  0.00    +0.002 C 
ATOM      4  C   UNL     1      32.981 -23.911 -14.233  0.00  0.00    +0.000 C 
ATOM      5  C   UNL     1      37.059 -24.747 -12.590  0.00  0.00    +0.025 C 
ATOM      6  C   UNL     1      32.972 -23.138 -15.592  0.00  0.00    +0.002 C 
ATOM      7  C   UNL     1      34.575 -24.357 -12.193  0.00  0.00    +0.000 C 
ATOM      8  C   UNL     1      35.997 -24.209 -11.620  0.00  0.00    +0.002 C 
ATOM      9  C   UNL     1      35.437 -23.534 -15.947  0.00  0.00    +0.000 C 
ATOM     10  C   UNL     1      38.164 -24.365 -14.700  0.00  0.00    +0.003 C 
ATOM     11  C   UNL     1      38.529 -24.413 -12.256  0.00  0.00    +0.110 C 
ATOM     12  C   UNL     1      34.045 -23.649 -16.562  0.00  0.00    +0.000 C 
ATOM     13  C   UNL     1      31.908 -23.260 -13.314  0.00  0.00    +0.002 C 
ATOM     14  C   UNL     1      39.254 -24.485 -13.616  0.00  0.00    +0.029 C 
ATOM     15  C   UNL     1      31.588 -23.110 -16.253  0.00  0.00    +0.029 C 
ATOM     16  C   UNL     1      32.627 -25.409 -14.414  0.00  0.00    +0.000 C 
ATOM     17  C   UNL     1      36.929 -26.288 -12.705  0.00  0.00    +0.002 C 
ATOM     18  C   UNL     1      30.521 -23.183 -13.956  0.00  0.00    +0.029 C 
ATOM     19  C   UNL     1      30.546 -22.498 -15.317  0.00  0.00    +0.111 C 
ENDROOT
BRANCH  11  20
ATOM     20  O   UNL     1      38.649 -23.093 -11.736  0.00  0.00    -0.384 OA
ATOM     21  H   UNL     1      39.308 -23.084 -11.024  0.00  0.00    +0.210 HD
ENDBRANCH  11  20
BRANCH  19  22
ATOM     22  O   UNL     1      29.254 -22.606 -15.905  0.00  0.00    -0.384 OA
ATOM     23  H   UNL     1      29.087 -21.830 -16.463  0.00  0.00    +0.210 HD
ENDBRANCH  19  22
TORSDOF 2
ENDMDL
MODEL 4
REMARK VINA RESULT:      -7.4     19.845     21.894
REMARK  Name = 446934
REMARK  2 active torsions:
REMARK  status: ('A' for Active; 'I' for Inactive)
REMARK    1  A    between atoms: C_11  and  O_20
REMARK    2  A    between atoms: C_19  and  O_22
REMARK                            x       y       z     vdW  Elec       q    Type
REMARK                         _______ _______ _______ _____ _____    ______ ____
ROOT
ATOM      1  C   UNL     1      33.244  -5.433 -24.622  0.00  0.00    +0.000 C 
ATOM      2  C   UNL     1      32.179  -4.421 -25.158  0.00  0.00    +0.000 C 
ATOM      3  C   UNL     1      32.873  -3.436 -26.108  0.00  0.00    +0.002 C 
ATOM      4  C   UNL     1      32.623  -6.451 -23.594  0.00  0.00    +0.000 C 
ATOM      5  C   UNL     1      33.528  -4.137 -27.316  0.00  0.00    +0.025 C 
ATOM      6  C   UNL     1      31.963  -5.614 -22.450  0.00  0.00    +0.002 C 
ATOM      7  C   UNL     1      34.047  -6.094 -25.773  0.00  0.00    +0.000 C 
ATOM      8  C   UNL     1      34.617  -5.078 -26.780  0.00  0.00    +0.002 C 
ATOM      9  C   UNL     1      31.476  -3.689 -24.005  0.00  0.00    +0.000 C 
ATOM     10  C   UNL     1      32.045  -2.323 -26.742  0.00  0.00    +0.003 C 
ATOM     11  C   UNL     1      34.013  -2.910 -28.118  0.00  0.00    +0.110 C 
ATOM     12  C   UNL     1      30.891  -4.651 -22.974  0.00  0.00    +0.000 C 
ATOM     13  C   UNL     1      33.735  -7.330 -22.954  0.00  0.00    +0.002 C 
ATOM     14  C   UNL     1      32.872  -1.881 -27.966  0.00  0.00    +0.029 C 
ATOM     15  C   UNL     1      31.424  -6.484 -21.309  0.00  0.00    +0.029 C 
ATOM     16  C   UNL     1      31.603  -7.386 -24.292  0.00  0.00    +0.000 C 
ATOM     17  C   UNL     1      32.540  -4.935 -28.205  0.00  0.00    +0.002 C 
ATOM     18  C   UNL     1      33.239  -8.186 -21.786  0.00  0.00    +0.029 C 
ATOM     19  C   UNL     1      32.528  -7.362 -20.720  0.00  0.00    +0.111 C 
ENDROOT
BRANCH  11  20
ATOM     20  O   UNL     1      35.203  -2.367 -27.555  0.00  0.00    -0.384 OA
ATOM     21  H   UNL     1      34.997  -1.532 -27.105  0.00  0.00    +0.210 HD
ENDBRANCH  11  20
BRANCH  19  22
ATOM     22  O   UNL     1      31.970  -8.249 -19.756  0.00  0.00    -0.384 OA
ATOM     23  H   UNL     1      31.226  -8.730 -20.151  0.00  0.00    +0.210 HD
ENDBRANCH  19  22
TORSDOF 2
ENDMDL
MODEL 5
REMARK VINA RESULT:      -6.9     10.018     12.663
REMARK  Name = 446934
REMARK  2 active torsions:
REMARK  status: ('A' for Active; 'I' for Inactive)
REMARK    1  A    between atoms: C_11  and  O_20
REMARK    2  A    between atoms: C_19  and  O_22
REMARK                            x       y       z     vdW  Elec       q    Type
REMARK                         _______ _______ _______ _____ _____    ______ ____
ROOT
ATOM      1  C   UNL     1      33.694 -15.396 -22.771  0.00  0.00    +0.000 C 
ATOM      2  C   UNL     1      33.783 -16.385 -21.563  0.00  0.00    +0.000 C 
ATOM      3  C   UNL     1      33.916 -17.813 -22.107  0.00  0.00    +0.002 C 
ATOM      4  C   UNL     1      33.500 -13.907 -22.298  0.00  0.00    +0.000 C 
ATOM      5  C   UNL     1      35.172 -18.001 -22.983  0.00  0.00    +0.025 C 
ATOM      6  C   UNL     1      32.225 -13.866 -21.394  0.00  0.00    +0.002 C 
ATOM      7  C   UNL     1      34.854 -15.604 -23.778  0.00  0.00    +0.000 C 
ATOM      8  C   UNL     1      35.040 -17.073 -24.200  0.00  0.00    +0.002 C 
ATOM      9  C   UNL     1      32.565 -16.248 -20.638  0.00  0.00    +0.000 C 
ATOM     10  C   UNL     1      33.991 -18.971 -21.117  0.00  0.00    +0.003 C 
ATOM     11  C   UNL     1      35.091 -19.517 -23.262  0.00  0.00    +0.110 C 
ATOM     12  C   UNL     1      32.333 -14.807 -20.189  0.00  0.00    +0.000 C 
ATOM     13  C   UNL     1      33.244 -12.974 -23.517  0.00  0.00    +0.002 C 
ATOM     14  C   UNL     1      34.618 -20.125 -21.925  0.00  0.00    +0.029 C 
ATOM     15  C   UNL     1      31.845 -12.445 -20.963  0.00  0.00    +0.029 C 
ATOM     16  C   UNL     1      34.759 -13.399 -21.550  0.00  0.00    +0.000 C 
ATOM     17  C   UNL     1      36.509 -17.716 -22.252  0.00  0.00    +0.002 C 
ATOM     18  C   UNL     1      32.828 -11.555 -23.122  0.00  0.00    +0.029 C 
ATOM     19  C   UNL     1      31.632 -11.541 -22.177  0.00  0.00    +0.111 C 
ENDROOT
BRANCH  11  20
ATOM     20  O   UNL     1      34.124 -19.803 -24.268  0.00  0.00    -0.384 OA
ATOM     21  H   UNL     1      33.928 -18.994 -24.767  0.00  0.00    +0.210 HD
ENDBRANCH  11  20
BRANCH  19  22
ATOM     22  O   UNL     1      31.411 -10.203 -21.744  0.00  0.00    -0.384 OA
ATOM     23  H   UNL     1      32.139  -9.926 -21.164  0.00  0.00    +0.210 HD
ENDBRANCH  19  22
TORSDOF 2
ENDMDL
MODEL 6
REMARK VINA RESULT:      -6.8      1.231      6.637
REMARK  Name = 446934
REMARK  2 active torsions:
REMARK  status: ('A' for Active; 'I' for Inactive)
REMARK    1  A    between atoms: C_11  and  O_20
REMARK    2  A    between atoms: C_19  and  O_22
REMARK                            x       y       z     vdW  Elec       q    Type
REMARK                         _______ _______ _______ _____ _____    ______ ____
ROOT
ATOM      1  C   UNL     1      33.344 -23.902 -15.342  0.00  0.00    +0.000 C 
ATOM      2  C   UNL     1      33.864 -24.337 -13.932  0.00  0.00    +0.000 C 
ATOM      3  C   UNL     1      35.288 -24.885 -14.082  0.00  0.00    +0.002 C 
ATOM      4  C   UNL     1      31.862 -23.375 -15.286  0.00  0.00    +0.000 C 
ATOM      5  C   UNL     1      36.268 -23.845 -14.662  0.00  0.00    +0.025 C 
ATOM      6  C   UNL     1      30.989 -24.504 -14.646  0.00  0.00    +0.002 C 
ATOM      7  C   UNL     1      34.337 -22.950 -16.058  0.00  0.00    +0.000 C 
ATOM      8  C   UNL     1      35.784 -23.477 -16.072  0.00  0.00    +0.002 C 
ATOM      9  C   UNL     1      32.929 -25.370 -13.287  0.00  0.00    +0.000 C 
ATOM     10  C   UNL     1      36.008 -25.406 -12.842  0.00  0.00    +0.003 C 
ATOM     11  C   UNL     1      37.593 -24.633 -14.574  0.00  0.00    +0.110 C 
ATOM     12  C   UNL     1      31.477 -24.899 -13.248  0.00  0.00    +0.000 C 
ATOM     13  C   UNL     1      31.318 -23.114 -16.719  0.00  0.00    +0.002 C 
ATOM     14  C   UNL     1      37.501 -25.382 -13.228  0.00  0.00    +0.029 C 
ATOM     15  C   UNL     1      29.492 -24.172 -14.644  0.00  0.00    +0.029 C 
ATOM     16  C   UNL     1      31.779 -22.052 -14.483  0.00  0.00    +0.000 C 
ATOM     17  C   UNL     1      36.414 -22.559 -13.808  0.00  0.00    +0.002 C 
ATOM     18  C   UNL     1      29.818 -22.813 -16.758  0.00  0.00    +0.029 C 
ATOM     19  C   UNL     1      28.991 -23.886 -16.059  0.00  0.00    +0.111 C 
ENDROOT
BRANCH  11  20
ATOM     20  O   UNL     1      37.695 -25.585 -15.628  0.00  0.00    -0.384 OA
ATOM     21  H   UNL     1      38.425 -26.197 -15.441  0.00  0.00    +0.210 HD
ENDBRANCH  11  20
BRANCH  19  22
ATOM     22  O   UNL     1      27.636 -23.454 -16.009  0.00  0.00    -0.384 OA
ATOM     23  H   UNL     1      27.603 -22.518 -15.753  0.00  0.00    +0.210 HD
ENDBRANCH  19  22
TORSDOF 2
ENDMDL
MODEL 7
REMARK VINA RESULT:      -6.8     19.607     21.619
REMARK  Name = 446934
REMARK  2 active torsions:
REMARK  status: ('A' for Active; 'I' for Inactive)
REMARK    1  A    between atoms: C_11  and  O_20
REMARK    2  A    between atoms: C_19  and  O_22
REMARK                            x       y       z     vdW  Elec       q    Type
REMARK                         _______ _______ _______ _____ _____    ______ ____
ROOT
ATOM      1  C   UNL     1      31.966  -5.678 -24.999  0.00  0.00    +0.000 C 
ATOM      2  C   UNL     1      33.294  -4.937 -25.363  0.00  0.00    +0.000 C 
ATOM      3  C   UNL     1      33.009  -3.953 -26.505  0.00  0.00    +0.002 C 
ATOM      4  C   UNL     1      32.182  -6.750 -23.867  0.00  0.00    +0.000 C 
ATOM      5  C   UNL     1      31.950  -2.896 -26.130  0.00  0.00    +0.025 C 
ATOM      6  C   UNL     1      33.300  -7.727 -24.357  0.00  0.00    +0.002 C 
ATOM      7  C   UNL     1      30.803  -4.687 -24.731  0.00  0.00    +0.000 C 
ATOM      8  C   UNL     1      30.634  -3.632 -25.840  0.00  0.00    +0.002 C 
ATOM      9  C   UNL     1      34.402  -5.930 -25.741  0.00  0.00    +0.000 C 
ATOM     10  C   UNL     1      34.163  -3.124 -27.064  0.00  0.00    +0.003 C 
ATOM     11  C   UNL     1      31.980  -2.012 -27.396  0.00  0.00    +0.110 C 
ATOM     12  C   UNL     1      34.613  -7.002 -24.674  0.00  0.00    +0.000 C 
ATOM     13  C   UNL     1      30.888  -7.584 -23.649  0.00  0.00    +0.002 C 
ATOM     14  C   UNL     1      33.474  -1.942 -27.775  0.00  0.00    +0.029 C 
ATOM     15  C   UNL     1      33.526  -8.903 -23.399  0.00  0.00    +0.029 C 
ATOM     16  C   UNL     1      32.555  -6.067 -22.526  0.00  0.00    +0.000 C 
ATOM     17  C   UNL     1      32.332  -2.012 -24.915  0.00  0.00    +0.002 C 
ATOM     18  C   UNL     1      31.087  -8.788 -22.724  0.00  0.00    +0.029 C 
ATOM     19  C   UNL     1      32.233  -9.685 -23.174  0.00  0.00    +0.111 C 
ENDROOT
BRANCH  11  20
ATOM     20  O   UNL     1      31.260  -2.620 -28.463  0.00  0.00    -0.384 OA
ATOM     21  H   UNL     1      30.373  -2.869 -28.155  0.00  0.00    +0.210 HD
ENDBRANCH  11  20
BRANCH  19  22
ATOM     22  O   UNL     1      32.445 -10.685 -22.183  0.00  0.00    -0.384 OA
ATOM     23  H   UNL     1      32.470 -10.270 -21.306  0.00  0.00    +0.210 HD
ENDBRANCH  19  22
TORSDOF 2
ENDMDL
MODEL 8
REMARK VINA RESULT:      -6.7     10.551     12.900
REMARK  Name = 446934
REMARK  2 active torsions:
REMARK  status: ('A' for Active; 'I' for Inactive)
REMARK    1  A    between atoms: C_11  and  O_20
REMARK    2  A    between atoms: C_19  and  O_22
REMARK                            x       y       z     vdW  Elec       q    Type
REMARK                         _______ _______ _______ _____ _____    ______ ____
ROOT
ATOM      1  C   UNL     1      34.479 -15.428 -22.827  0.00  0.00    +0.000 C 
ATOM      2  C   UNL     1      34.086 -16.786 -23.496  0.00  0.00    +0.000 C 
ATOM      3  C   UNL     1      34.904 -17.908 -22.844  0.00  0.00    +0.002 C 
ATOM      4  C   UNL     1      33.720 -14.212 -23.477  0.00  0.00    +0.000 C 
ATOM      5  C   UNL     1      34.654 -18.024 -21.327  0.00  0.00    +0.025 C 
ATOM      6  C   UNL     1      34.026 -14.236 -25.010  0.00  0.00    +0.002 C 
ATOM      7  C   UNL     1      34.381 -15.493 -21.281  0.00  0.00    +0.000 C 
ATOM      8  C   UNL     1      35.107 -16.708 -20.675  0.00  0.00    +0.002 C 
ATOM      9  C   UNL     1      34.301 -16.743 -25.015  0.00  0.00    +0.000 C 
ATOM     10  C   UNL     1      34.722 -19.337 -23.349  0.00  0.00    +0.003 C 
ATOM     11  C   UNL     1      35.494 -19.277 -21.001  0.00  0.00    +0.110 C 
ATOM     12  C   UNL     1      33.603 -15.554 -25.670  0.00  0.00    +0.000 C 
ATOM     13  C   UNL     1      34.256 -12.866 -22.911  0.00  0.00    +0.002 C 
ATOM     14  C   UNL     1      35.253 -20.218 -22.200  0.00  0.00    +0.029 C 
ATOM     15  C   UNL     1      33.448 -13.027 -25.754  0.00  0.00    +0.029 C 
ATOM     16  C   UNL     1      32.199 -14.293 -23.187  0.00  0.00    +0.000 C 
ATOM     17  C   UNL     1      33.181 -18.317 -20.942  0.00  0.00    +0.002 C 
ATOM     18  C   UNL     1      33.726 -11.637 -23.653  0.00  0.00    +0.029 C 
ATOM     19  C   UNL     1      33.963 -11.717 -25.156  0.00  0.00    +0.111 C 
ENDROOT
BRANCH  11  20
ATOM     20  O   UNL     1      36.881 -18.962 -20.933  0.00  0.00    -0.384 OA
ATOM     21  H   UNL     1      37.277 -19.406 -20.166  0.00  0.00    +0.210 HD
ENDBRANCH  11  20
BRANCH  19  22
ATOM     22  O   UNL     1      33.309 -10.617 -25.779  0.00  0.00    -0.384 OA
ATOM     23  H   UNL     1      33.168 -10.814 -26.719  0.00  0.00    +0.210 HD
ENDBRANCH  19  22
TORSDOF 2
ENDMDL
MODEL 9
REMARK VINA RESULT:      -6.4     13.244     15.343
REMARK  Name = 446934
REMARK  2 active torsions:
REMARK  status: ('A' for Active; 'I' for Inactive)
REMARK    1  A    between atoms: C_11  and  O_20
REMARK    2  A    between atoms: C_19  and  O_22
REMARK                            x       y       z     vdW  Elec       q    Type
REMARK                         _______ _______ _______ _____ _____    ______ ____
ROOT
ATOM      1  C   UNL     1      33.520 -11.817 -22.745  0.00  0.00    +0.000 C 
ATOM      2  C   UNL     1      32.351 -10.945 -22.179  0.00  0.00    +0.000 C 
ATOM      3  C   UNL     1      32.777  -9.472 -22.215  0.00  0.00    +0.002 C 
ATOM      4  C   UNL     1      33.185 -13.354 -22.693  0.00  0.00    +0.000 C 
ATOM      5  C   UNL     1      33.104  -8.981 -23.640  0.00  0.00    +0.025 C 
ATOM      6  C   UNL     1      32.837 -13.707 -21.210  0.00  0.00    +0.002 C 
ATOM      7  C   UNL     1      34.004 -11.312 -24.128  0.00  0.00    +0.000 C 
ATOM      8  C   UNL     1      34.296  -9.800 -24.158  0.00  0.00    +0.002 C 
ATOM      9  C   UNL     1      31.964 -11.384 -20.759  0.00  0.00    +0.000 C 
ATOM     10  C   UNL     1      31.811  -8.417 -21.684  0.00  0.00    +0.003 C 
ATOM     11  C   UNL     1      33.364  -7.485 -23.366  0.00  0.00    +0.110 C 
ATOM     12  C   UNL     1      31.664 -12.878 -20.672  0.00  0.00    +0.000 C 
ATOM     13  C   UNL     1      34.426 -14.199 -23.100  0.00  0.00    +0.002 C 
ATOM     14  C   UNL     1      32.298  -7.099 -22.319  0.00  0.00    +0.029 C 
ATOM     15  C   UNL     1      32.610 -15.207 -20.991  0.00  0.00    +0.029 C 
ATOM     16  C   UNL     1      32.023 -13.697 -23.660  0.00  0.00    +0.000 C 
ATOM     17  C   UNL     1      31.923  -9.090 -24.640  0.00  0.00    +0.002 C 
ATOM     18  C   UNL     1      34.247 -15.700 -22.861  0.00  0.00    +0.029 C 
ATOM     19  C   UNL     1      33.830 -16.017 -21.429  0.00  0.00    +0.111 C 
ENDROOT
BRANCH  11  20
ATOM     20  O   UNL     1      34.657  -7.284 -22.804  0.00  0.00    -0.384 OA
ATOM     21  H   UNL     1      34.777  -7.879 -22.047  0.00  0.00    +0.210 HD
ENDBRANCH  11  20
BRANCH  19  22
ATOM     22  O   UNL     1      33.539 -17.407 -21.337  0.00  0.00    -0.384 OA
ATOM     23  H   UNL     1      32.598 -17.555 -21.525  0.00  0.00    +0.210 HD
ENDBRANCH  19  22
TORSDOF 2
ENDMDL
