MODEL 1
REMARK VINA RESULT:      -4.6      0.000      0.000
REMARK  Name = 5977
REMARK  2 active torsions:
REMARK  status: ('A' for Active; 'I' for Inactive)
REMARK    1  A    between atoms: C_1  and  C_7
REMARK    2  A    between atoms: C_1  and  O_8
REMARK                            x       y       z     vdW  Elec       q    Type
REMARK                         _______ _______ _______ _____ _____    ______ ____
ROOT
ATOM      1  C   UNL     1      34.469 -16.976 -21.448  0.00  0.00    +0.127 C 
ATOM      2  C   UNL     1      33.030 -16.528 -21.134  0.00  0.00    +0.033 C 
ATOM      3  C   UNL     1      34.965 -16.176 -22.664  0.00  0.00    +0.033 C 
ENDROOT
BRANCH   1   7
ATOM      4 CL   UNL     1      34.616 -18.991 -23.365  0.00  0.00    -0.080 Cl
ATOM      5 CL   UNL     1      33.278 -19.418 -20.823  0.00  0.00    -0.080 Cl
ATOM      6 CL   UNL     1      36.165 -19.119 -20.924  0.00  0.00    -0.080 Cl
ATOM      7  C   UNL     1      34.615 -18.519 -21.624  0.00  0.00    +0.220 C 
ENDBRANCH   1   7
BRANCH   1   8
ATOM      8  O   UNL     1      35.284 -16.557 -20.342  0.00  0.00    -0.383 OA
ATOM      9  H   UNL     1      35.018 -15.668 -20.061  0.00  0.00    +0.210 HD
ENDBRANCH   1   8
TORSDOF 2
ENDMDL
MODEL 2
REMARK VINA RESULT:      -4.6      0.036      1.775
REMARK  Name = 5977
REMARK  2 active torsions:
REMARK  status: ('A' for Active; 'I' for Inactive)
REMARK    1  A    between atoms: C_1  and  C_7
REMARK    2  A    between atoms: C_1  and  O_8
REMARK                            x       y       z     vdW  Elec       q    Type
REMARK                         _______ _______ _______ _____ _____    ______ ____
ROOT
ATOM      1  C   UNL     1      34.487 -17.005 -21.447  0.00  0.00    +0.127 C 
ATOM      2  C   UNL     1      33.048 -16.552 -21.138  0.00  0.00    +0.033 C 
ATOM      3  C   UNL     1      34.988 -16.209 -22.663  0.00  0.00    +0.033 C 
ENDROOT
BRANCH   1   7
ATOM      4 CL   UNL     1      33.269 -19.432 -20.825  0.00  0.00    -0.080 Cl
ATOM      5 CL   UNL     1      36.160 -19.169 -20.911  0.00  0.00    -0.080 Cl
ATOM      6 CL   UNL     1      34.605 -19.023 -23.359  0.00  0.00    -0.080 Cl
ATOM      7  C   UNL     1      34.628 -18.549 -21.619  0.00  0.00    +0.220 C 
ENDBRANCH   1   7
BRANCH   1   8
ATOM      8  O   UNL     1      35.299 -16.587 -20.339  0.00  0.00    -0.383 OA
ATOM      9  H   UNL     1      35.164 -17.190 -19.592  0.00  0.00    +0.210 HD
ENDBRANCH   1   8
TORSDOF 2
ENDMDL
MODEL 3
REMARK VINA RESULT:      -4.5      1.952      2.612
REMARK  Name = 5977
REMARK  2 active torsions:
REMARK  status: ('A' for Active; 'I' for Inactive)
REMARK    1  A    between atoms: C_1  and  C_7
REMARK    2  A    between atoms: C_1  and  O_8
REMARK                            x       y       z     vdW  Elec       q    Type
REMARK                         _______ _______ _______ _____ _____    ______ ____
ROOT
ATOM      1  C   UNL     1      35.308 -18.120 -22.954  0.00  0.00    +0.127 C 
ATOM      2  C   UNL     1      34.917 -16.744 -23.522  0.00  0.00    +0.033 C 
ATOM      3  C   UNL     1      34.598 -19.201 -23.785  0.00  0.00    +0.033 C 
ENDROOT
BRANCH   1   7
ATOM      4 CL   UNL     1      33.539 -19.175 -21.079  0.00  0.00    -0.080 Cl
ATOM      5 CL   UNL     1      34.900 -16.651 -20.620  0.00  0.00    -0.080 Cl
ATOM      6 CL   UNL     1      36.393 -19.142 -20.603  0.00  0.00    -0.080 Cl
ATOM      7  C   UNL     1      35.052 -18.254 -21.421  0.00  0.00    +0.220 C 
ENDBRANCH   1   7
BRANCH   1   8
ATOM      8  O   UNL     1      36.712 -18.289 -23.205  0.00  0.00    -0.383 OA
ATOM      9  H   UNL     1      36.839 -18.671 -24.086  0.00  0.00    +0.210 HD
ENDBRANCH   1   8
TORSDOF 2
ENDMDL
MODEL 4
REMARK VINA RESULT:      -4.4     10.826     11.437
REMARK  Name = 5977
REMARK  2 active torsions:
REMARK  status: ('A' for Active; 'I' for Inactive)
REMARK    1  A    between atoms: C_1  and  C_7
REMARK    2  A    between atoms: C_1  and  O_8
REMARK                            x       y       z     vdW  Elec       q    Type
REMARK                         _______ _______ _______ _____ _____    ______ ____
ROOT
ATOM      1  C   UNL     1      36.754 -25.162 -12.609  0.00  0.00    +0.127 C 
ATOM      2  C   UNL     1      35.501 -24.514 -11.992  0.00  0.00    +0.033 C 
ATOM      3  C   UNL     1      37.989 -24.410 -12.085  0.00  0.00    +0.033 C 
ENDROOT
BRANCH   1   7
ATOM      4 CL   UNL     1      35.070 -24.827 -14.801  0.00  0.00    -0.080 Cl
ATOM      5 CL   UNL     1      37.096 -26.908 -14.755  0.00  0.00    -0.080 Cl
ATOM      6 CL   UNL     1      37.872 -24.115 -14.932  0.00  0.00    -0.080 Cl
ATOM      7  C   UNL     1      36.703 -25.255 -14.165  0.00  0.00    +0.220 C 
ENDBRANCH   1   7
BRANCH   1   8
ATOM      8  O   UNL     1      36.843 -26.490 -12.068  0.00  0.00    -0.383 OA
ATOM      9  H   UNL     1      36.966 -27.125 -12.790  0.00  0.00    +0.210 HD
ENDBRANCH   1   8
TORSDOF 2
ENDMDL
MODEL 5
REMARK VINA RESULT:      -4.4     10.827     11.428
REMARK  Name = 5977
REMARK  2 active torsions:
REMARK  status: ('A' for Active; 'I' for Inactive)
REMARK    1  A    between atoms: C_1  and  C_7
REMARK    2  A    between atoms: C_1  and  O_8
REMARK                            x       y       z     vdW  Elec       q    Type
REMARK                         _______ _______ _______ _____ _____    ______ ____
ROOT
ATOM      1  C   UNL     1      36.754 -25.161 -12.605  0.00  0.00    +0.127 C 
ATOM      2  C   UNL     1      35.501 -24.515 -11.987  0.00  0.00    +0.033 C 
ATOM      3  C   UNL     1      37.989 -24.409 -12.080  0.00  0.00    +0.033 C 
ENDROOT
BRANCH   1   7
ATOM      4 CL   UNL     1      37.890 -24.132 -14.931  0.00  0.00    -0.080 Cl
ATOM      5 CL   UNL     1      35.076 -24.838 -14.807  0.00  0.00    -0.080 Cl
ATOM      6 CL   UNL     1      37.108 -26.911 -14.739  0.00  0.00    -0.080 Cl
ATOM      7  C   UNL     1      36.703 -25.251 -14.161  0.00  0.00    +0.220 C 
ENDBRANCH   1   7
BRANCH   1   8
ATOM      8  O   UNL     1      36.844 -26.490 -12.067  0.00  0.00    -0.383 OA
ATOM      9  H   UNL     1      37.478 -26.500 -11.334  0.00  0.00    +0.210 HD
ENDBRANCH   1   8
TORSDOF 2
ENDMDL
MODEL 6
REMARK VINA RESULT:      -4.3      9.704     10.681
REMARK  Name = 5977
REMARK  2 active torsions:
REMARK  status: ('A' for Active; 'I' for Inactive)
REMARK    1  A    between atoms: C_1  and  C_7
REMARK    2  A    between atoms: C_1  and  O_8
REMARK                            x       y       z     vdW  Elec       q    Type
REMARK                         _______ _______ _______ _____ _____    ______ ____
ROOT
ATOM      1  C   UNL     1      37.727 -25.547 -14.595  0.00  0.00    +0.127 C 
ATOM      2  C   UNL     1      37.353 -26.362 -13.344  0.00  0.00    +0.033 C 
ATOM      3  C   UNL     1      39.254 -25.365 -14.608  0.00  0.00    +0.033 C 
ENDROOT
BRANCH   1   7
ATOM      4 CL   UNL     1      37.750 -23.068 -15.865  0.00  0.00    -0.080 Cl
ATOM      5 CL   UNL     1      36.804 -23.359 -13.135  0.00  0.00    -0.080 Cl
ATOM      6 CL   UNL     1      35.272 -24.467 -15.339  0.00  0.00    -0.080 Cl
ATOM      7  C   UNL     1      36.945 -24.203 -14.717  0.00  0.00    +0.220 C 
ENDBRANCH   1   7
BRANCH   1   8
ATOM      8  O   UNL     1      37.418 -26.367 -15.732  0.00  0.00    -0.383 OA
ATOM      9  H   UNL     1      36.653 -25.997 -16.200  0.00  0.00    +0.210 HD
ENDBRANCH   1   8
TORSDOF 2
ENDMDL
MODEL 7
REMARK VINA RESULT:      -4.3      8.996      9.778
REMARK  Name = 5977
REMARK  2 active torsions:
REMARK  status: ('A' for Active; 'I' for Inactive)
REMARK    1  A    between atoms: C_1  and  C_7
REMARK    2  A    between atoms: C_1  and  O_8
REMARK                            x       y       z     vdW  Elec       q    Type
REMARK                         _______ _______ _______ _____ _____    ______ ____
ROOT
ATOM      1  C   UNL     1      42.306 -16.016 -17.014  0.00  0.00    +0.127 C 
ATOM      2  C   UNL     1      42.479 -16.273 -18.523  0.00  0.00    +0.033 C 
ATOM      3  C   UNL     1      41.314 -17.054 -16.463  0.00  0.00    +0.033 C 
ENDROOT
BRANCH   1   7
ATOM      4 CL   UNL     1      43.367 -13.503 -16.455  0.00  0.00    -0.080 Cl
ATOM      5 CL   UNL     1      40.937 -14.439 -15.169  0.00  0.00    -0.080 Cl
ATOM      6 CL   UNL     1      40.940 -13.802 -18.002  0.00  0.00    -0.080 Cl
ATOM      7  C   UNL     1      41.912 -14.546 -16.676  0.00  0.00    +0.220 C 
ENDBRANCH   1   7
BRANCH   1   8
ATOM      8  O   UNL     1      43.569 -16.311 -16.397  0.00  0.00    -0.383 OA
ATOM      9  H   UNL     1      43.546 -16.037 -15.467  0.00  0.00    +0.210 HD
ENDBRANCH   1   8
TORSDOF 2
ENDMDL
MODEL 8
REMARK VINA RESULT:      -4.3     10.809     11.625
REMARK  Name = 5977
REMARK  2 active torsions:
REMARK  status: ('A' for Active; 'I' for Inactive)
REMARK    1  A    between atoms: C_1  and  C_7
REMARK    2  A    between atoms: C_1  and  O_8
REMARK                            x       y       z     vdW  Elec       q    Type
REMARK                         _______ _______ _______ _____ _____    ______ ____
ROOT
ATOM      1  C   UNL     1      37.252 -25.857 -13.292  0.00  0.00    +0.127 C 
ATOM      2  C   UNL     1      38.707 -25.395 -13.092  0.00  0.00    +0.033 C 
ATOM      3  C   UNL     1      37.237 -26.925 -14.399  0.00  0.00    +0.033 C 
ENDROOT
BRANCH   1   7
ATOM      4 CL   UNL     1      37.130 -23.141 -13.898  0.00  0.00    -0.080 Cl
ATOM      5 CL   UNL     1      35.175 -24.389 -12.150  0.00  0.00    -0.080 Cl
ATOM      6 CL   UNL     1      35.211 -25.014 -14.986  0.00  0.00    -0.080 Cl
ATOM      7  C   UNL     1      36.259 -24.683 -13.555  0.00  0.00    +0.220 C 
ENDBRANCH   1   7
BRANCH   1   8
ATOM      8  O   UNL     1      36.861 -26.532 -12.087  0.00  0.00    -0.383 OA
ATOM      9  H   UNL     1      37.620 -27.017 -11.727  0.00  0.00    +0.210 HD
ENDBRANCH   1   8
TORSDOF 2
ENDMDL
MODEL 9
REMARK VINA RESULT:      -4.3     10.810     11.638
REMARK  Name = 5977
REMARK  2 active torsions:
REMARK  status: ('A' for Active; 'I' for Inactive)
REMARK    1  A    between atoms: C_1  and  C_7
REMARK    2  A    between atoms: C_1  and  O_8
REMARK                            x       y       z     vdW  Elec       q    Type
REMARK                         _______ _______ _______ _____ _____    ______ ____
ROOT
ATOM      1  C   UNL     1      37.252 -25.864 -13.299  0.00  0.00    +0.127 C 
ATOM      2  C   UNL     1      38.710 -25.410 -13.105  0.00  0.00    +0.033 C 
ATOM      3  C   UNL     1      37.228 -26.934 -14.404  0.00  0.00    +0.033 C 
ENDROOT
BRANCH   1   7
ATOM      4 CL   UNL     1      35.208 -25.010 -14.986  0.00  0.00    -0.080 Cl
ATOM      5 CL   UNL     1      37.128 -23.138 -13.870  0.00  0.00    -0.080 Cl
ATOM      6 CL   UNL     1      35.167 -24.421 -12.153  0.00  0.00    -0.080 Cl
ATOM      7  C   UNL     1      36.265 -24.686 -13.561  0.00  0.00    +0.220 C 
ENDBRANCH   1   7
BRANCH   1   8
ATOM      8  O   UNL     1      36.863 -26.536 -12.091  0.00  0.00    -0.383 OA
ATOM      9  H   UNL     1      36.306 -27.298 -12.310  0.00  0.00    +0.210 HD
ENDBRANCH   1   8
TORSDOF 2
ENDMDL
