MODEL 1
REMARK VINA RESULT:      -5.9      0.000      0.000
REMARK  Name = 443872
REMARK  2 active torsions:
REMARK  status: ('A' for Active; 'I' for Inactive)
REMARK    1  A    between atoms: C_13  and  C_28
REMARK    2  A    between atoms: C_28  and  O_29
REMARK                            x       y       z     vdW  Elec       q    Type
REMARK                         _______ _______ _______ _____ _____    ______ ____
ROOT
ATOM      1  O   UNL     1      32.908  -8.887 -21.317  0.00  0.00    -0.356 OA
ATOM      2  O   UNL     1      31.921 -14.331 -21.583  0.00  0.00    -0.456 OA
ATOM      3  O   UNL     1      32.174 -16.383 -20.587  0.00  0.00    -0.250 OA
ATOM      4  O   UNL     1      32.019  -3.444 -22.972  0.00  0.00    -0.291 OA
ATOM      5  C   UNL     1      31.997  -8.956 -22.422  0.00  0.00    +0.121 C 
ATOM      6  C   UNL     1      32.474  -9.821 -23.585  0.00  0.00    +0.039 C 
ATOM      7  C   UNL     1      32.097 -11.908 -22.127  0.00  0.00    +0.036 C 
ATOM      8  C   UNL     1      33.046 -11.165 -23.100  0.00  0.00    +0.006 C 
ATOM      9  C   UNL     1      31.705  -9.642 -21.082  0.00  0.00    +0.140 C 
ATOM     10  C   UNL     1      31.353  -7.596 -22.801  0.00  0.00    +0.041 C 
ATOM     11  C   UNL     1      31.996 -11.097 -20.821  0.00  0.00    +0.035 C 
ATOM     12  C   UNL     1      32.799 -13.296 -22.048  0.00  0.00    +0.136 C 
ATOM     13  C   UNL     1      33.421  -9.029 -24.503  0.00  0.00    +0.105 C 
ATOM     14  C   UNL     1      33.341 -12.192 -24.195  0.00  0.00    +0.004 C 
ATOM     15  C   UNL     1      33.200 -13.565 -23.521  0.00  0.00    +0.040 C 
ATOM     16  C   UNL     1      32.164  -6.885 -23.897  0.00  0.00    -0.039 C 
ATOM     17  C   UNL     1      32.738  -7.749 -25.003  0.00  0.00    +0.033 C 
ATOM     18  C   UNL     1      30.654 -12.079 -22.684  0.00  0.00    +0.004 C 
ATOM     19  C   UNL     1      31.234  -6.659 -21.561  0.00  0.00    +0.014 C 
ATOM     20  C   UNL     1      34.002 -13.428 -21.117  0.00  0.00    +0.052 C 
ATOM     21  C   UNL     1      29.930  -7.875 -23.344  0.00  0.00    +0.006 C 
ATOM     22  C   UNL     1      30.839  -5.230 -21.904  0.00  0.00    +0.070 C 
ATOM     23  C   UNL     1      34.083 -14.923 -20.887  0.00  0.00    +0.113 C 
ATOM     24  C   UNL     1      32.388  -5.560 -23.922  0.00  0.00    +0.029 C 
ATOM     25  C   UNL     1      32.641 -15.324 -20.976  0.00  0.00    +0.317 C 
ATOM     26  C   UNL     1      31.787  -4.650 -22.919  0.00  0.00    +0.173 C 
ENDROOT
BRANCH  13  28
ATOM     27  O   UNL     1      34.914  -7.732 -23.123  0.00  0.00    -0.250 OA
ATOM     28  C   UNL     1      34.733  -8.702 -23.846  0.00  0.00    +0.317 C 
BRANCH  28  29
ATOM     29  O   UNL     1      35.660  -9.643 -24.184  0.00  0.00    -0.444 OA
ATOM     30  C   UNL     1      35.653 -10.048 -25.556  0.00  0.00    +0.256 C 
ENDBRANCH  28  29
ENDBRANCH  13  28
TORSDOF 2
ENDMDL
MODEL 2
REMARK VINA RESULT:      -4.0      1.754      7.198
REMARK  Name = 443872
REMARK  2 active torsions:
REMARK  status: ('A' for Active; 'I' for Inactive)
REMARK    1  A    between atoms: C_13  and  C_28
REMARK    2  A    between atoms: C_28  and  O_29
REMARK                            x       y       z     vdW  Elec       q    Type
REMARK                         _______ _______ _______ _____ _____    ______ ____
ROOT
ATOM      1  O   UNL     1      31.248 -12.862 -22.599  0.00  0.00    -0.356 OA
ATOM      2  O   UNL     1      31.552  -7.347 -22.180  0.00  0.00    -0.456 OA
ATOM      3  O   UNL     1      30.453  -5.340 -22.361  0.00  0.00    -0.250 OA
ATOM      4  O   UNL     1      33.257 -18.178 -21.669  0.00  0.00    -0.291 OA
ATOM      5  C   UNL     1      32.536 -12.695 -21.991  0.00  0.00    +0.121 C 
ATOM      6  C   UNL     1      33.520 -11.863 -22.809  0.00  0.00    +0.039 C 
ATOM      7  C   UNL     1      32.122  -9.769 -22.272  0.00  0.00    +0.036 C 
ATOM      8  C   UNL     1      32.865 -10.583 -23.360  0.00  0.00    +0.006 C 
ATOM      9  C   UNL     1      31.282 -12.003 -21.445  0.00  0.00    +0.140 C 
ATOM     10  C   UNL     1      33.105 -13.984 -21.343  0.00  0.00    +0.041 C 
ATOM     11  C   UNL     1      30.908 -10.583 -21.789  0.00  0.00    +0.035 C 
ATOM     12  C   UNL     1      31.828  -8.453 -23.051  0.00  0.00    +0.136 C 
ATOM     13  C   UNL     1      34.211 -12.727 -23.877  0.00  0.00    +0.105 C 
ATOM     14  C   UNL     1      33.821  -9.573 -23.998  0.00  0.00    +0.004 C 
ATOM     15  C   UNL     1      33.153  -8.203 -23.818  0.00  0.00    +0.040 C 
ATOM     16  C   UNL     1      33.999 -14.753 -22.330  0.00  0.00    -0.039 C 
ATOM     17  C   UNL     1      34.905 -13.931 -23.226  0.00  0.00    +0.033 C 
ATOM     18  C   UNL     1      33.002  -9.458 -21.027  0.00  0.00    +0.004 C 
ATOM     19  C   UNL     1      31.963 -14.922 -20.848  0.00  0.00    +0.014 C 
ATOM     20  C   UNL     1      30.633  -8.444 -24.001  0.00  0.00    +0.052 C 
ATOM     21  C   UNL     1      33.963 -13.568 -20.122  0.00  0.00    +0.006 C 
ATOM     22  C   UNL     1      32.441 -16.304 -20.425  0.00  0.00    +0.070 C 
ATOM     23  C   UNL     1      30.338  -6.966 -24.152  0.00  0.00    +0.113 C 
ATOM     24  C   UNL     1      34.016 -16.092 -22.437  0.00  0.00    +0.029 C 
ATOM     25  C   UNL     1      30.756  -6.433 -22.815  0.00  0.00    +0.317 C 
ATOM     26  C   UNL     1      33.220 -16.956 -21.536  0.00  0.00    +0.173 C 
ENDROOT
BRANCH  13  28
ATOM     27  O   UNL     1      32.471 -14.098 -24.828  0.00  0.00    -0.250 OA
ATOM     28  C   UNL     1      33.271 -13.181 -24.958  0.00  0.00    +0.317 C 
BRANCH  28  29
ATOM     29  O   UNL     1      33.457 -12.421 -26.074  0.00  0.00    -0.444 OA
ATOM     30  C   UNL     1      33.461 -13.138 -27.312  0.00  0.00    +0.256 C 
ENDBRANCH  28  29
ENDBRANCH  13  28
TORSDOF 2
ENDMDL
MODEL 3
REMARK VINA RESULT:      -4.0     15.085     17.784
REMARK  Name = 443872
REMARK  2 active torsions:
REMARK  status: ('A' for Active; 'I' for Inactive)
REMARK    1  A    between atoms: C_13  and  C_28
REMARK    2  A    between atoms: C_28  and  O_29
REMARK                            x       y       z     vdW  Elec       q    Type
REMARK                         _______ _______ _______ _____ _____    ______ ____
ROOT
ATOM      1  O   UNL     1      35.703 -22.906 -14.584  0.00  0.00    -0.356 OA
ATOM      2  O   UNL     1      30.408 -23.696 -16.008  0.00  0.00    -0.456 OA
ATOM      3  O   UNL     1      28.424 -22.735 -16.645  0.00  0.00    -0.250 OA
ATOM      4  O   UNL     1      41.069 -24.760 -13.623  0.00  0.00    -0.291 OA
ATOM      5  C   UNL     1      35.657 -24.332 -14.723  0.00  0.00    +0.121 C 
ATOM      6  C   UNL     1      34.655 -25.026 -13.805  0.00  0.00    +0.039 C 
ATOM      7  C   UNL     1      32.745 -24.039 -15.221  0.00  0.00    +0.036 C 
ATOM      8  C   UNL     1      33.294 -24.307 -13.797  0.00  0.00    +0.006 C 
ATOM      9  C   UNL     1      35.115 -23.391 -15.805  0.00  0.00    +0.140 C 
ATOM     10  C   UNL     1      37.049 -25.004 -14.847  0.00  0.00    +0.041 C 
ATOM     11  C   UNL     1      33.660 -23.015 -15.917  0.00  0.00    +0.035 C 
ATOM     12  C   UNL     1      31.294 -23.582 -14.885  0.00  0.00    +0.136 C 
ATOM     13  C   UNL     1      35.257 -25.249 -12.407  0.00  0.00    +0.105 C 
ATOM     14  C   UNL     1      32.158 -25.049 -13.089  0.00  0.00    +0.004 C 
ATOM     15  C   UNL     1      30.867 -24.574 -13.773  0.00  0.00    +0.040 C 
ATOM     16  C   UNL     1      37.574 -25.451 -13.472  0.00  0.00    -0.039 C 
ATOM     17  C   UNL     1      36.566 -26.045 -12.507  0.00  0.00    +0.033 C 
ATOM     18  C   UNL     1      32.702 -25.312 -16.113  0.00  0.00    +0.004 C 
ATOM     19  C   UNL     1      38.087 -24.044 -15.504  0.00  0.00    +0.014 C 
ATOM     20  C   UNL     1      31.094 -22.136 -14.439  0.00  0.00    +0.052 C 
ATOM     21  C   UNL     1      36.899 -26.255 -15.748  0.00  0.00    +0.006 C 
ATOM     22  C   UNL     1      39.521 -24.547 -15.435  0.00  0.00    +0.070 C 
ATOM     23  C   UNL     1      29.622 -21.904 -14.711  0.00  0.00    +0.113 C 
ATOM     24  C   UNL     1      38.857 -25.342 -13.090  0.00  0.00    +0.029 C 
ATOM     25  C   UNL     1      29.388 -22.791 -15.897  0.00  0.00    +0.317 C 
ATOM     26  C   UNL     1      39.906 -24.850 -14.012  0.00  0.00    +0.173 C 
ENDROOT
BRANCH  13  28
ATOM     27  O   UNL     1      34.598 -23.142 -11.438  0.00  0.00    -0.250 OA
ATOM     28  C   UNL     1      35.476 -23.967 -11.655  0.00  0.00    +0.317 C 
BRANCH  28  29
ATOM     29  O   UNL     1      36.780 -23.881 -11.268  0.00  0.00    -0.444 OA
ATOM     30  C   UNL     1      37.410 -22.618 -11.501  0.00  0.00    +0.256 C 
ENDBRANCH  28  29
ENDBRANCH  13  28
TORSDOF 2
ENDMDL
MODEL 4
REMARK VINA RESULT:      -3.7     13.574     17.087
REMARK  Name = 443872
REMARK  2 active torsions:
REMARK  status: ('A' for Active; 'I' for Inactive)
REMARK    1  A    between atoms: C_13  and  C_28
REMARK    2  A    between atoms: C_28  and  O_29
REMARK                            x       y       z     vdW  Elec       q    Type
REMARK                         _______ _______ _______ _____ _____    ______ ____
ROOT
ATOM      1  O   UNL     1      35.317 -25.468 -15.873  0.00  0.00    -0.356 OA
ATOM      2  O   UNL     1      30.164 -24.632 -14.020  0.00  0.00    -0.456 OA
ATOM      3  O   UNL     1      27.940 -25.162 -14.216  0.00  0.00    -0.250 OA
ATOM      4  O   UNL     1      41.042 -25.056 -15.418  0.00  0.00    -0.291 OA
ATOM      5  C   UNL     1      35.563 -24.689 -14.695  0.00  0.00    +0.121 C 
ATOM      6  C   UNL     1      34.904 -23.312 -14.696  0.00  0.00    +0.039 C 
ATOM      7  C   UNL     1      32.617 -24.460 -14.414  0.00  0.00    +0.036 C 
ATOM      8  C   UNL     1      33.439 -23.382 -15.163  0.00  0.00    +0.006 C 
ATOM      9  C   UNL     1      34.657 -25.925 -14.678  0.00  0.00    +0.140 C 
ATOM     10  C   UNL     1      37.029 -24.744 -14.190  0.00  0.00    +0.041 C 
ATOM     11  C   UNL     1      33.156 -25.849 -14.801  0.00  0.00    +0.035 C 
ATOM     12  C   UNL     1      31.177 -24.101 -14.888  0.00  0.00    +0.136 C 
ATOM     13  C   UNL     1      35.763 -22.295 -15.466  0.00  0.00    +0.105 C 
ATOM     14  C   UNL     1      32.626 -22.098 -14.985  0.00  0.00    +0.004 C 
ATOM     15  C   UNL     1      31.168 -22.552 -14.823  0.00  0.00    +0.040 C 
ATOM     16  C   UNL     1      37.858 -23.586 -14.770  0.00  0.00    -0.039 C 
ATOM     17  C   UNL     1      37.179 -22.235 -14.878  0.00  0.00    +0.033 C 
ATOM     18  C   UNL     1      32.707 -24.337 -12.865  0.00  0.00    +0.004 C 
ATOM     19  C   UNL     1      37.707 -26.098 -14.561  0.00  0.00    +0.014 C 
ATOM     20  C   UNL     1      30.740 -24.597 -16.264  0.00  0.00    +0.052 C 
ATOM     21  C   UNL     1      37.009 -24.611 -12.647  0.00  0.00    +0.006 C 
ATOM     22  C   UNL     1      39.208 -26.123 -14.313  0.00  0.00    +0.070 C 
ATOM     23  C   UNL     1      29.229 -24.548 -16.172  0.00  0.00    +0.113 C 
ATOM     24  C   UNL     1      39.132 -23.710 -15.180  0.00  0.00    +0.029 C 
ATOM     25  C   UNL     1      29.003 -24.828 -14.717  0.00  0.00    +0.317 C 
ATOM     26  C   UNL     1      39.880 -24.979 -15.025  0.00  0.00    +0.173 C 
ENDROOT
BRANCH  13  28
ATOM     27  O   UNL     1      34.939 -23.166 -17.559  0.00  0.00    -0.250 OA
ATOM     28  C   UNL     1      35.817 -22.576 -16.942  0.00  0.00    +0.317 C 
BRANCH  28  29
ATOM     29  O   UNL     1      36.975 -22.078 -17.460  0.00  0.00    -0.444 OA
ATOM     30  C   UNL     1      36.839 -21.353 -18.686  0.00  0.00    +0.256 C 
ENDBRANCH  28  29
ENDBRANCH  13  28
TORSDOF 2
ENDMDL
MODEL 5
REMARK VINA RESULT:      -3.2     13.480     16.080
REMARK  Name = 443872
REMARK  2 active torsions:
REMARK  status: ('A' for Active; 'I' for Inactive)
REMARK    1  A    between atoms: C_13  and  C_28
REMARK    2  A    between atoms: C_28  and  O_29
REMARK                            x       y       z     vdW  Elec       q    Type
REMARK                         _______ _______ _______ _____ _____    ______ ____
ROOT
ATOM      1  O   UNL     1      31.593 -21.930 -14.603  0.00  0.00    -0.356 OA
ATOM      2  O   UNL     1      35.753 -24.696 -12.208  0.00  0.00    -0.456 OA
ATOM      3  O   UNL     1      37.688 -24.576 -10.982  0.00  0.00    -0.250 OA
ATOM      4  O   UNL     1      26.391 -21.637 -17.054  0.00  0.00    -0.291 OA
ATOM      5  C   UNL     1      31.137 -23.284 -14.721  0.00  0.00    +0.121 C 
ATOM      6  C   UNL     1      32.072 -24.201 -15.505  0.00  0.00    +0.039 C 
ATOM      7  C   UNL     1      33.737 -24.103 -13.544  0.00  0.00    +0.036 C 
ATOM      8  C   UNL     1      33.540 -24.019 -15.078  0.00  0.00    +0.006 C 
ATOM      9  C   UNL     1      31.637 -22.707 -13.392  0.00  0.00    +0.140 C 
ATOM     10  C   UNL     1      29.625 -23.421 -15.035  0.00  0.00    +0.041 C 
ATOM     11  C   UNL     1      33.048 -22.890 -12.892  0.00  0.00    +0.035 C 
ATOM     12  C   UNL     1      35.291 -24.166 -13.459  0.00  0.00    +0.136 C 
ATOM     13  C   UNL     1      31.834 -24.059 -17.018  0.00  0.00    +0.105 C 
ATOM     14  C   UNL     1      34.524 -25.048 -15.640  0.00  0.00    +0.004 C 
ATOM     15  C   UNL     1      35.661 -25.135 -14.612  0.00  0.00    +0.040 C 
ATOM     16  C   UNL     1      29.379 -23.518 -16.550  0.00  0.00    -0.039 C 
ATOM     17  C   UNL     1      30.364 -24.339 -17.359  0.00  0.00    +0.033 C 
ATOM     18  C   UNL     1      33.123 -25.386 -12.914  0.00  0.00    +0.004 C 
ATOM     19  C   UNL     1      28.814 -22.220 -14.459  0.00  0.00    +0.014 C 
ATOM     20  C   UNL     1      36.060 -22.853 -13.577  0.00  0.00    +0.052 C 
ATOM     21  C   UNL     1      29.113 -24.722 -14.368  0.00  0.00    +0.006 C 
ATOM     22  C   UNL     1      27.370 -22.167 -14.936  0.00  0.00    +0.070 C 
ATOM     23  C   UNL     1      37.395 -23.191 -12.947  0.00  0.00    +0.113 C 
ATOM     24  C   UNL     1      28.354 -22.921 -17.181  0.00  0.00    +0.029 C 
ATOM     25  C   UNL     1      37.000 -24.211 -11.922  0.00  0.00    +0.317 C 
ATOM     26  C   UNL     1      27.311 -22.175 -16.440  0.00  0.00    +0.173 C 
ENDROOT
BRANCH  13  28
ATOM     27  O   UNL     1      31.482 -21.788 -17.746  0.00  0.00    -0.250 OA
ATOM     28  C   UNL     1      32.253 -22.718 -17.552  0.00  0.00    +0.317 C 
BRANCH  28  29
ATOM     29  O   UNL     1      33.597 -22.716 -17.778  0.00  0.00    -0.444 OA
ATOM     30  C   UNL     1      34.003 -22.246 -19.067  0.00  0.00    +0.256 C 
ENDBRANCH  28  29
ENDBRANCH  13  28
TORSDOF 2
ENDMDL
