MODEL 1
REMARK VINA RESULT:      -7.6      0.000      0.000
REMARK  Name = 6466
REMARK  4 active torsions:
REMARK  status: ('A' for Active; 'I' for Inactive)
REMARK    1  A    between atoms: C_7  and  C_26
REMARK    2  A    between atoms: C_10  and  O_21
REMARK    3  A    between atoms: C_16  and  O_23
REMARK    4  A    between atoms: C_26  and  O_27
REMARK                            x       y       z     vdW  Elec       q    Type
REMARK                         _______ _______ _______ _____ _____    ______ ____
ROOT
ATOM      1  O   UNL     1      32.207 -23.035 -13.551  0.00  0.00    -0.451 OA
ATOM      2  O   UNL     1      30.696 -21.407 -14.166  0.00  0.00    -0.250 OA
ATOM      3  C   UNL     1      34.818 -23.869 -14.999  0.00  0.00    +0.020 C 
ATOM      4  C   UNL     1      34.050 -24.670 -13.883  0.00  0.00    +0.042 C 
ATOM      5  C   UNL     1      32.462 -24.086 -15.599  0.00  0.00    +0.064 C 
ATOM      6  C   UNL     1      32.573 -24.320 -14.096  0.00  0.00    +0.155 C 
ATOM      7  C   UNL     1      33.734 -23.287 -15.936  0.00  0.00    +0.104 C 
ATOM      8  C   UNL     1      35.728 -22.799 -14.371  0.00  0.00    +0.032 C 
ATOM      9  C   UNL     1      31.116 -23.351 -15.617  0.00  0.00    +0.122 C 
ATOM     10  C   UNL     1      36.729 -23.683 -13.618  0.00  0.00    +0.103 C 
ATOM     11  C   UNL     1      35.882 -24.784 -15.657  0.00  0.00    +0.025 C 
ATOM     12  C   UNL     1      34.554 -24.396 -12.457  0.00  0.00    +0.007 C 
ATOM     13  C   UNL     1      36.080 -24.282 -12.357  0.00  0.00    +0.031 C 
ATOM     14  C   UNL     1      37.000 -24.766 -14.645  0.00  0.00    -0.020 C 
ATOM     15  C   UNL     1      31.554 -25.319 -13.614  0.00  0.00    +0.011 C 
ATOM     16  C   UNL     1      29.977 -24.376 -15.304  0.00  0.00    +0.142 C 
ATOM     17  C   UNL     1      31.282 -22.453 -14.393  0.00  0.00    +0.319 C 
ATOM     18  C   UNL     1      30.869 -22.540 -16.881  0.00  0.00    +0.014 C 
ATOM     19  C   UNL     1      30.343 -25.349 -14.200  0.00  0.00    +0.002 C 
ATOM     20  C   UNL     1      38.068 -25.571 -14.689  0.00  0.00    -0.007 C 
ENDROOT
BRANCH  10  21
ATOM     21  O   UNL     1      37.898 -22.965 -13.269  0.00  0.00    -0.383 OA
ATOM     22  H   UNL     1      38.281 -23.342 -12.461  0.00  0.00    +0.211 HD
ENDBRANCH  10  21
BRANCH  16  23
ATOM     23  O   UNL     1      29.662 -25.150 -16.458  0.00  0.00    -0.380 OA
ATOM     24  H   UNL     1      28.955 -25.778 -16.244  0.00  0.00    +0.211 HD
ENDBRANCH  16  23
BRANCH   7  26
ATOM     25  O   UNL     1      33.529 -24.181 -18.173  0.00  0.00    -0.250 OA
ATOM     26  C   UNL     1      34.054 -23.398 -17.395  0.00  0.00    +0.313 C 
BRANCH  26  27
ATOM     27  O   UNL     1      35.018 -22.509 -17.742  0.00  0.00    -0.480 OA
ATOM     28  H   UNL     1      35.058 -22.180 -18.619  0.00  0.00    +0.295 HD
ENDBRANCH  26  27
ENDBRANCH   7  26
TORSDOF 4
ENDMDL
MODEL 2
REMARK VINA RESULT:      -6.3      1.595      5.620
REMARK  Name = 6466
REMARK  4 active torsions:
REMARK  status: ('A' for Active; 'I' for Inactive)
REMARK    1  A    between atoms: C_7  and  C_26
REMARK    2  A    between atoms: C_10  and  O_21
REMARK    3  A    between atoms: C_16  and  O_23
REMARK    4  A    between atoms: C_26  and  O_27
REMARK                            x       y       z     vdW  Elec       q    Type
REMARK                         _______ _______ _______ _____ _____    ______ ____
ROOT
ATOM      1  O   UNL     1      35.365 -25.637 -13.047  0.00  0.00    -0.451 OA
ATOM      2  O   UNL     1      37.350 -26.680 -13.579  0.00  0.00    -0.250 OA
ATOM      3  C   UNL     1      33.635 -23.788 -14.835  0.00  0.00    +0.020 C 
ATOM      4  C   UNL     1      33.547 -23.957 -13.273  0.00  0.00    +0.042 C 
ATOM      5  C   UNL     1      35.847 -23.515 -13.840  0.00  0.00    +0.064 C 
ATOM      6  C   UNL     1      34.982 -24.263 -12.830  0.00  0.00    +0.155 C 
ATOM      7  C   UNL     1      35.142 -23.774 -15.183  0.00  0.00    +0.104 C 
ATOM      8  C   UNL     1      32.849 -24.901 -15.548  0.00  0.00    +0.032 C 
ATOM      9  C   UNL     1      37.179 -24.225 -13.569  0.00  0.00    +0.122 C 
ATOM     10  C   UNL     1      31.421 -24.577 -15.094  0.00  0.00    +0.103 C 
ATOM     11  C   UNL     1      32.814 -22.548 -15.272  0.00  0.00    +0.025 C 
ATOM     12  C   UNL     1      32.519 -25.003 -12.815  0.00  0.00    +0.007 C 
ATOM     13  C   UNL     1      31.216 -24.978 -13.623  0.00  0.00    +0.031 C 
ATOM     14  C   UNL     1      31.398 -23.067 -15.244  0.00  0.00    -0.020 C 
ATOM     15  C   UNL     1      35.354 -23.910 -11.414  0.00  0.00    +0.011 C 
ATOM     16  C   UNL     1      37.725 -23.761 -12.179  0.00  0.00    +0.142 C 
ATOM     17  C   UNL     1      36.693 -25.665 -13.420  0.00  0.00    +0.319 C 
ATOM     18  C   UNL     1      38.195 -24.087 -14.695  0.00  0.00    +0.014 C 
ATOM     19  C   UNL     1      36.643 -23.660 -11.121  0.00  0.00    +0.002 C 
ATOM     20  C   UNL     1      30.311 -22.296 -15.366  0.00  0.00    -0.007 C 
ENDROOT
BRANCH  10  21
ATOM     21  O   UNL     1      30.457 -25.215 -15.911  0.00  0.00    -0.383 OA
ATOM     22  H   UNL     1      29.872 -25.757 -15.359  0.00  0.00    +0.211 HD
ENDBRANCH  10  21
BRANCH  16  23
ATOM     23  O   UNL     1      38.336 -22.477 -12.279  0.00  0.00    -0.380 OA
ATOM     24  H   UNL     1      37.665 -21.789 -12.154  0.00  0.00    +0.211 HD
ENDBRANCH  16  23
BRANCH   7  26
ATOM     25  O   UNL     1      36.178 -21.728 -15.949  0.00  0.00    -0.250 OA
ATOM     26  C   UNL     1      35.534 -22.738 -16.193  0.00  0.00    +0.313 C 
BRANCH  26  27
ATOM     27  O   UNL     1      35.071 -23.070 -17.423  0.00  0.00    -0.480 OA
ATOM     28  H   UNL     1      34.330 -22.622 -17.781  0.00  0.00    +0.295 HD
ENDBRANCH  26  27
ENDBRANCH   7  26
TORSDOF 4
ENDMDL
MODEL 3
REMARK VINA RESULT:      -6.1     13.758     16.175
REMARK  Name = 6466
REMARK  4 active torsions:
REMARK  status: ('A' for Active; 'I' for Inactive)
REMARK    1  A    between atoms: C_7  and  C_26
REMARK    2  A    between atoms: C_10  and  O_21
REMARK    3  A    between atoms: C_16  and  O_23
REMARK    4  A    between atoms: C_26  and  O_27
REMARK                            x       y       z     vdW  Elec       q    Type
REMARK                         _______ _______ _______ _____ _____    ______ ____
ROOT
ATOM      1  O   UNL     1      32.576  -9.284 -24.661  0.00  0.00    -0.451 OA
ATOM      2  O   UNL     1      30.898  -7.745 -24.300  0.00  0.00    -0.250 OA
ATOM      3  C   UNL     1      32.832 -12.145 -23.495  0.00  0.00    +0.020 C 
ATOM      4  C   UNL     1      33.961 -11.291 -24.182  0.00  0.00    +0.042 C 
ATOM      5  C   UNL     1      32.948  -9.933 -22.469  0.00  0.00    +0.064 C 
ATOM      6  C   UNL     1      33.621  -9.838 -23.834  0.00  0.00    +0.155 C 
ATOM      7  C   UNL     1      32.036 -11.166 -22.599  0.00  0.00    +0.104 C 
ATOM      8  C   UNL     1      31.967 -12.853 -24.552  0.00  0.00    +0.032 C 
ATOM      9  C   UNL     1      32.295  -8.546 -22.439  0.00  0.00    +0.122 C 
ATOM     10  C   UNL     1      32.998 -13.803 -25.173  0.00  0.00    +0.103 C 
ATOM     11  C   UNL     1      33.462 -13.371 -22.789  0.00  0.00    +0.025 C 
ATOM     12  C   UNL     1      34.112 -11.550 -25.690  0.00  0.00    +0.007 C 
ATOM     13  C   UNL     1      33.974 -13.028 -26.075  0.00  0.00    +0.031 C 
ATOM     14  C   UNL     1      33.708 -14.319 -23.936  0.00  0.00    -0.020 C 
ATOM     15  C   UNL     1      34.758  -8.849 -23.823  0.00  0.00    +0.011 C 
ATOM     16  C   UNL     1      33.410  -7.467 -22.241  0.00  0.00    +0.142 C 
ATOM     17  C   UNL     1      31.803  -8.448 -23.881  0.00  0.00    +0.319 C 
ATOM     18  C   UNL     1      31.149  -8.422 -21.443  0.00  0.00    +0.014 C 
ATOM     19  C   UNL     1      34.656  -7.748 -23.059  0.00  0.00    +0.002 C 
ATOM     20  C   UNL     1      34.421 -15.449 -23.840  0.00  0.00    -0.007 C 
ENDROOT
BRANCH  10  21
ATOM     21  O   UNL     1      32.374 -14.840 -25.909  0.00  0.00    -0.383 OA
ATOM     22  H   UNL     1      31.590 -15.150 -25.429  0.00  0.00    +0.211 HD
ENDBRANCH  10  21
BRANCH  16  23
ATOM     23  O   UNL     1      33.810  -7.398 -20.875  0.00  0.00    -0.380 OA
ATOM     24  H   UNL     1      33.048  -7.586 -20.305  0.00  0.00    +0.211 HD
ENDBRANCH  16  23
BRANCH   7  26
ATOM     25  O   UNL     1      32.497 -12.019 -20.385  0.00  0.00    -0.250 OA
ATOM     26  C   UNL     1      31.688 -11.710 -21.248  0.00  0.00    +0.313 C 
BRANCH  26  27
ATOM     27  O   UNL     1      30.343 -11.821 -21.108  0.00  0.00    -0.480 OA
ATOM     28  H   UNL     1      29.775 -11.502 -21.781  0.00  0.00    +0.295 HD
ENDBRANCH  26  27
ENDBRANCH   7  26
TORSDOF 4
ENDMDL
MODEL 4
REMARK VINA RESULT:      -5.9     14.203     16.387
REMARK  Name = 6466
REMARK  4 active torsions:
REMARK  status: ('A' for Active; 'I' for Inactive)
REMARK    1  A    between atoms: C_7  and  C_26
REMARK    2  A    between atoms: C_10  and  O_21
REMARK    3  A    between atoms: C_16  and  O_23
REMARK    4  A    between atoms: C_26  and  O_27
REMARK                            x       y       z     vdW  Elec       q    Type
REMARK                         _______ _______ _______ _____ _____    ______ ____
ROOT
ATOM      1  O   UNL     1      32.641  -9.340 -21.767  0.00  0.00    -0.451 OA
ATOM      2  O   UNL     1      33.811  -7.522 -20.966  0.00  0.00    -0.250 OA
ATOM      3  C   UNL     1      33.623 -11.542 -23.715  0.00  0.00    +0.020 C 
ATOM      4  C   UNL     1      32.136 -11.215 -23.318  0.00  0.00    +0.042 C 
ATOM      5  C   UNL     1      33.182  -9.159 -24.012  0.00  0.00    +0.064 C 
ATOM      6  C   UNL     1      32.120  -9.704 -23.062  0.00  0.00    +0.155 C 
ATOM      7  C   UNL     1      34.331 -10.177 -23.895  0.00  0.00    +0.104 C 
ATOM      8  C   UNL     1      34.283 -12.443 -22.658  0.00  0.00    +0.032 C 
ATOM      9  C   UNL     1      33.370  -7.777 -23.375  0.00  0.00    +0.122 C 
ATOM     10  C   UNL     1      33.441 -13.716 -22.804  0.00  0.00    +0.103 C 
ATOM     11  C   UNL     1      33.639 -12.493 -24.938  0.00  0.00    +0.025 C 
ATOM     12  C   UNL     1      31.606 -12.049 -22.141  0.00  0.00    +0.007 C 
ATOM     13  C   UNL     1      32.048 -13.518 -22.181  0.00  0.00    +0.031 C 
ATOM     14  C   UNL     1      33.340 -13.833 -24.313  0.00  0.00    -0.020 C 
ATOM     15  C   UNL     1      30.805  -8.991 -23.236  0.00  0.00    +0.011 C 
ATOM     16  C   UNL     1      32.105  -6.907 -23.675  0.00  0.00    +0.142 C 
ATOM     17  C   UNL     1      33.334  -8.153 -21.895  0.00  0.00    +0.319 C 
ATOM     18  C   UNL     1      34.678  -7.093 -23.750  0.00  0.00    +0.014 C 
ATOM     19  C   UNL     1      30.808  -7.681 -23.540  0.00  0.00    +0.002 C 
ATOM     20  C   UNL     1      33.062 -14.943 -25.008  0.00  0.00    -0.007 C 
ENDROOT
BRANCH  10  21
ATOM     21  O   UNL     1      34.082 -14.834 -22.218  0.00  0.00    -0.383 OA
ATOM     22  H   UNL     1      33.414 -15.482 -21.942  0.00  0.00    +0.211 HD
ENDBRANCH  10  21
BRANCH  16  23
ATOM     23  O   UNL     1      32.150  -6.391 -25.003  0.00  0.00    -0.380 OA
ATOM     24  H   UNL     1      32.027  -5.429 -24.981  0.00  0.00    +0.211 HD
ENDBRANCH  16  23
BRANCH   7  26
ATOM     25  O   UNL     1      34.850 -10.051 -26.252  0.00  0.00    -0.250 OA
ATOM     26  C   UNL     1      35.229 -10.100 -25.091  0.00  0.00    +0.313 C 
BRANCH  26  27
ATOM     27  O   UNL     1      36.531 -10.096 -24.713  0.00  0.00    -0.480 OA
ATOM     28  H   UNL     1      36.910 -10.862 -24.328  0.00  0.00    +0.295 HD
ENDBRANCH  26  27
ENDBRANCH   7  26
TORSDOF 4
ENDMDL
MODEL 5
REMARK VINA RESULT:      -5.7      9.480     12.134
REMARK  Name = 6466
REMARK  4 active torsions:
REMARK  status: ('A' for Active; 'I' for Inactive)
REMARK    1  A    between atoms: C_7  and  C_26
REMARK    2  A    between atoms: C_10  and  O_21
REMARK    3  A    between atoms: C_16  and  O_23
REMARK    4  A    between atoms: C_26  and  O_27
REMARK                            x       y       z     vdW  Elec       q    Type
REMARK                         _______ _______ _______ _____ _____    ______ ____
ROOT
ATOM      1  O   UNL     1      33.346 -17.256 -21.331  0.00  0.00    -0.451 OA
ATOM      2  O   UNL     1      32.670 -19.397 -21.849  0.00  0.00    -0.250 OA
ATOM      3  C   UNL     1      33.549 -14.803 -23.216  0.00  0.00    +0.020 C 
ATOM      4  C   UNL     1      34.195 -14.965 -21.790  0.00  0.00    +0.042 C 
ATOM      5  C   UNL     1      34.799 -16.896 -23.098  0.00  0.00    +0.064 C 
ATOM      6  C   UNL     1      34.503 -16.461 -21.666  0.00  0.00    +0.155 C 
ATOM      7  C   UNL     1      33.729 -16.165 -23.928  0.00  0.00    +0.104 C 
ATOM      8  C   UNL     1      32.081 -14.359 -23.100  0.00  0.00    +0.032 C 
ATOM      9  C   UNL     1      34.661 -18.412 -22.909  0.00  0.00    +0.122 C 
ATOM     10  C   UNL     1      32.252 -12.970 -22.474  0.00  0.00    +0.103 C 
ATOM     11  C   UNL     1      34.156 -13.567 -23.926  0.00  0.00    +0.025 C 
ATOM     12  C   UNL     1      33.331 -14.412 -20.646  0.00  0.00    +0.007 C 
ATOM     13  C   UNL     1      32.632 -13.090 -20.987  0.00  0.00    +0.031 C 
ATOM     14  C   UNL     1      33.415 -12.423 -23.280  0.00  0.00    -0.020 C 
ATOM     15  C   UNL     1      35.611 -16.860 -20.726  0.00  0.00    +0.011 C 
ATOM     16  C   UNL     1      35.888 -18.932 -22.090  0.00  0.00    +0.142 C 
ATOM     17  C   UNL     1      33.438 -18.461 -21.997  0.00  0.00    +0.319 C 
ATOM     18  C   UNL     1      34.429 -19.180 -24.204  0.00  0.00    +0.014 C 
ATOM     19  C   UNL     1      36.266 -18.014 -20.944  0.00  0.00    +0.002 C 
ATOM     20  C   UNL     1      33.736 -11.133 -23.437  0.00  0.00    -0.007 C 
ENDROOT
BRANCH  10  21
ATOM     21  O   UNL     1      31.081 -12.187 -22.614  0.00  0.00    -0.383 OA
ATOM     22  H   UNL     1      31.327 -11.269 -22.810  0.00  0.00    +0.211 HD
ENDBRANCH  10  21
BRANCH  16  23
ATOM     23  O   UNL     1      37.036 -19.058 -22.924  0.00  0.00    -0.380 OA
ATOM     24  H   UNL     1      37.461 -18.192 -23.022  0.00  0.00    +0.211 HD
ENDBRANCH  16  23
BRANCH   7  26
ATOM     25  O   UNL     1      33.413 -15.785 -26.295  0.00  0.00    -0.250 OA
ATOM     26  C   UNL     1      34.153 -16.061 -25.361  0.00  0.00    +0.313 C 
BRANCH  26  27
ATOM     27  O   UNL     1      35.478 -16.320 -25.488  0.00  0.00    -0.480 OA
ATOM     28  H   UNL     1      35.820 -16.623 -26.307  0.00  0.00    +0.295 HD
ENDBRANCH  26  27
ENDBRANCH   7  26
TORSDOF 4
ENDMDL
MODEL 6
REMARK VINA RESULT:      -5.5      1.776      6.022
REMARK  Name = 6466
REMARK  4 active torsions:
REMARK  status: ('A' for Active; 'I' for Inactive)
REMARK    1  A    between atoms: C_7  and  C_26
REMARK    2  A    between atoms: C_10  and  O_21
REMARK    3  A    between atoms: C_16  and  O_23
REMARK    4  A    between atoms: C_26  and  O_27
REMARK                            x       y       z     vdW  Elec       q    Type
REMARK                         _______ _______ _______ _____ _____    ______ ____
ROOT
ATOM      1  O   UNL     1      36.136 -23.694 -15.609  0.00  0.00    -0.451 OA
ATOM      2  O   UNL     1      38.068 -22.546 -15.096  0.00  0.00    -0.250 OA
ATOM      3  C   UNL     1      33.624 -24.100 -13.840  0.00  0.00    +0.020 C 
ATOM      4  C   UNL     1      34.014 -24.899 -15.138  0.00  0.00    +0.042 C 
ATOM      5  C   UNL     1      35.915 -24.922 -13.658  0.00  0.00    +0.064 C 
ATOM      6  C   UNL     1      35.546 -24.923 -15.138  0.00  0.00    +0.155 C 
ATOM      7  C   UNL     1      34.935 -23.908 -13.041  0.00  0.00    +0.104 C 
ATOM      8  C   UNL     1      32.926 -22.779 -14.203  0.00  0.00    +0.032 C 
ATOM      9  C   UNL     1      37.389 -24.519 -13.790  0.00  0.00    +0.122 C 
ATOM     10  C   UNL     1      31.646 -23.306 -14.864  0.00  0.00    +0.103 C 
ATOM     11  C   UNL     1      32.469 -24.829 -13.107  0.00  0.00    +0.025 C 
ATOM     12  C   UNL     1      33.402 -24.331 -16.429  0.00  0.00    +0.007 C 
ATOM     13  C   UNL     1      31.951 -23.863 -16.266  0.00  0.00    +0.031 C 
ATOM     14  C   UNL     1      31.262 -24.426 -13.915  0.00  0.00    -0.020 C 
ATOM     15  C   UNL     1      36.216 -26.055 -15.874  0.00  0.00    +0.011 C 
ATOM     16  C   UNL     1      38.190 -25.725 -14.383  0.00  0.00    +0.142 C 
ATOM     17  C   UNL     1      37.281 -23.453 -14.878  0.00  0.00    +0.319 C 
ATOM     18  C   UNL     1      37.996 -23.959 -12.511  0.00  0.00    +0.014 C 
ATOM     19  C   UNL     1      37.451 -26.434 -15.501  0.00  0.00    +0.002 C 
ATOM     20  C   UNL     1      30.046 -24.967 -13.774  0.00  0.00    -0.007 C 
ENDROOT
BRANCH  10  21
ATOM     21  O   UNL     1      30.651 -22.302 -14.946  0.00  0.00    -0.383 OA
ATOM     22  H   UNL     1      30.224 -22.199 -14.081  0.00  0.00    +0.211 HD
ENDBRANCH  10  21
BRANCH  16  23
ATOM     23  O   UNL     1      38.461 -26.695 -13.375  0.00  0.00    -0.380 OA
ATOM     24  H   UNL     1      38.267 -27.581 -13.719  0.00  0.00    +0.211 HD
ENDBRANCH  16  23
BRANCH   7  26
ATOM     25  O   UNL     1      35.133 -25.154 -10.979  0.00  0.00    -0.250 OA
ATOM     26  C   UNL     1      34.799 -24.135 -11.567  0.00  0.00    +0.313 C 
BRANCH  26  27
ATOM     27  O   UNL     1      34.247 -23.053 -10.964  0.00  0.00    -0.480 OA
ATOM     28  H   UNL     1      33.342 -22.851 -11.102  0.00  0.00    +0.295 HD
ENDBRANCH  26  27
ENDBRANCH   7  26
TORSDOF 4
ENDMDL
MODEL 7
REMARK VINA RESULT:      -5.3     19.992     22.356
REMARK  Name = 6466
REMARK  4 active torsions:
REMARK  status: ('A' for Active; 'I' for Inactive)
REMARK    1  A    between atoms: C_7  and  C_26
REMARK    2  A    between atoms: C_10  and  O_21
REMARK    3  A    between atoms: C_16  and  O_23
REMARK    4  A    between atoms: C_26  and  O_27
REMARK                            x       y       z     vdW  Elec       q    Type
REMARK                         _______ _______ _______ _____ _____    ______ ____
ROOT
ATOM      1  O   UNL     1      33.122  -5.765 -27.425  0.00  0.00    -0.451 OA
ATOM      2  O   UNL     1      32.319  -4.995 -29.443  0.00  0.00    -0.250 OA
ATOM      3  C   UNL     1      32.022  -5.196 -24.583  0.00  0.00    +0.020 C 
ATOM      4  C   UNL     1      33.432  -5.784 -24.959  0.00  0.00    +0.042 C 
ATOM      5  C   UNL     1      33.106  -3.773 -26.244  0.00  0.00    +0.064 C 
ATOM      6  C   UNL     1      33.781  -5.139 -26.304  0.00  0.00    +0.155 C 
ATOM      7  C   UNL     1      31.736  -4.073 -25.609  0.00  0.00    +0.104 C 
ATOM      8  C   UNL     1      30.956  -6.305 -24.573  0.00  0.00    +0.032 C 
ATOM      9  C   UNL     1      33.153  -3.429 -27.738  0.00  0.00    +0.122 C 
ATOM     10  C   UNL     1      31.457  -7.170 -23.410  0.00  0.00    +0.103 C 
ATOM     11  C   UNL     1      32.009  -4.787 -23.089  0.00  0.00    +0.025 C 
ATOM     12  C   UNL     1      33.485  -7.320 -24.975  0.00  0.00    +0.007 C 
ATOM     13  C   UNL     1      32.700  -7.973 -23.830  0.00  0.00    +0.031 C 
ATOM     14  C   UNL     1      31.825  -6.110 -22.389  0.00  0.00    -0.020 C 
ATOM     15  C   UNL     1      35.242  -5.019 -26.651  0.00  0.00    +0.011 C 
ATOM     16  C   UNL     1      34.632  -3.107 -28.135  0.00  0.00    +0.142 C 
ATOM     17  C   UNL     1      32.795  -4.785 -28.340  0.00  0.00    +0.319 C 
ATOM     18  C   UNL     1      32.166  -2.348 -28.157  0.00  0.00    +0.014 C 
ATOM     19  C   UNL     1      35.634  -4.051 -27.498  0.00  0.00    +0.002 C 
ATOM     20  C   UNL     1      31.944  -6.286 -21.067  0.00  0.00    -0.007 C 
ENDROOT
BRANCH  10  21
ATOM     21  O   UNL     1      30.448  -8.045 -22.940  0.00  0.00    -0.383 OA
ATOM     22  H   UNL     1      29.632  -7.545 -22.784  0.00  0.00    +0.211 HD
ENDBRANCH  10  21
BRANCH  16  23
ATOM     23  O   UNL     1      34.987  -1.786 -27.735  0.00  0.00    -0.380 OA
ATOM     24  H   UNL     1      35.262  -1.276 -28.513  0.00  0.00    +0.211 HD
ENDBRANCH  16  23
BRANCH   7  26
ATOM     25  O   UNL     1      29.951  -2.629 -24.852  0.00  0.00    -0.250 OA
ATOM     26  C   UNL     1      31.146  -2.831 -25.015  0.00  0.00    +0.313 C 
BRANCH  26  27
ATOM     27  O   UNL     1      32.121  -1.948 -24.684  0.00  0.00    -0.480 OA
ATOM     28  H   UNL     1      31.966  -1.028 -24.761  0.00  0.00    +0.295 HD
ENDBRANCH  26  27
ENDBRANCH   7  26
TORSDOF 4
ENDMDL
MODEL 8
REMARK VINA RESULT:      -5.2      2.240      5.611
REMARK  Name = 6466
REMARK  4 active torsions:
REMARK  status: ('A' for Active; 'I' for Inactive)
REMARK    1  A    between atoms: C_7  and  C_26
REMARK    2  A    between atoms: C_10  and  O_21
REMARK    3  A    between atoms: C_16  and  O_23
REMARK    4  A    between atoms: C_26  and  O_27
REMARK                            x       y       z     vdW  Elec       q    Type
REMARK                         _______ _______ _______ _____ _____    ______ ____
ROOT
ATOM      1  O   UNL     1      37.721 -22.871 -13.790  0.00  0.00    -0.451 OA
ATOM      2  O   UNL     1      37.690 -22.230 -11.577  0.00  0.00    -0.250 OA
ATOM      3  C   UNL     1      35.320 -23.189 -15.725  0.00  0.00    +0.020 C 
ATOM      4  C   UNL     1      36.778 -23.746 -15.918  0.00  0.00    +0.042 C 
ATOM      5  C   UNL     1      36.009 -24.431 -13.740  0.00  0.00    +0.064 C 
ATOM      6  C   UNL     1      37.275 -24.046 -14.499  0.00  0.00    +0.155 C 
ATOM      7  C   UNL     1      34.966 -23.413 -14.236  0.00  0.00    +0.104 C 
ATOM      8  C   UNL     1      35.238 -21.716 -16.161  0.00  0.00    +0.032 C 
ATOM      9  C   UNL     1      36.546 -24.282 -12.311  0.00  0.00    +0.122 C 
ATOM     10  C   UNL     1      35.523 -21.848 -17.662  0.00  0.00    +0.103 C 
ATOM     11  C   UNL     1      34.372 -23.838 -16.765  0.00  0.00    +0.025 C 
ATOM     12  C   UNL     1      37.704 -22.812 -16.714  0.00  0.00    +0.007 C 
ATOM     13  C   UNL     1      37.015 -22.136 -17.906  0.00  0.00    +0.031 C 
ATOM     14  C   UNL     1      34.680 -23.058 -18.019  0.00  0.00    -0.020 C 
ATOM     15  C   UNL     1      38.347 -25.094 -14.353  0.00  0.00    +0.011 C 
ATOM     16  C   UNL     1      37.539 -25.455 -12.020  0.00  0.00    +0.142 C 
ATOM     17  C   UNL     1      37.369 -23.005 -12.463  0.00  0.00    +0.319 C 
ATOM     18  C   UNL     1      35.462 -24.130 -11.253  0.00  0.00    +0.014 C 
ATOM     19  C   UNL     1      38.452 -25.762 -13.191  0.00  0.00    +0.002 C 
ATOM     20  C   UNL     1      34.238 -23.388 -19.239  0.00  0.00    -0.007 C 
ENDROOT
BRANCH  10  21
ATOM     21  O   UNL     1      35.129 -20.688 -18.371  0.00  0.00    -0.383 OA
ATOM     22  H   UNL     1      34.627 -20.104 -17.782  0.00  0.00    +0.211 HD
ENDBRANCH  10  21
BRANCH  16  23
ATOM     23  O   UNL     1      36.829 -26.653 -11.716  0.00  0.00    -0.380 OA
ATOM     24  H   UNL     1      36.247 -26.500 -10.955  0.00  0.00    +0.211 HD
ENDBRANCH  16  23
BRANCH   7  26
ATOM     25  O   UNL     1      33.268 -25.105 -13.917  0.00  0.00    -0.250 OA
ATOM     26  C   UNL     1      33.577 -23.925 -14.001  0.00  0.00    +0.313 C 
BRANCH  26  27
ATOM     27  O   UNL     1      32.699 -22.897 -13.898  0.00  0.00    -0.480 OA
ATOM     28  H   UNL     1      31.814 -23.006 -14.186  0.00  0.00    +0.295 HD
ENDBRANCH  26  27
ENDBRANCH   7  26
TORSDOF 4
ENDMDL
