MODEL 1
REMARK VINA RESULT:      -8.7      0.000      0.000
REMARK  Name = 6918493
REMARK  8 active torsions:
REMARK  status: ('A' for Active; 'I' for Inactive)
REMARK    1  A    between atoms: C_1  and  C_2
REMARK    2  A    between atoms: C_1  and  C_8
REMARK    3  A    between atoms: C_1  and  O_14
REMARK    4  A    between atoms: C_1  and  C_16
REMARK    5  A    between atoms: C_16  and  C_18
REMARK    6  A    between atoms: C_16  and  O_21
REMARK    7  A    between atoms: C_18  and  O_19
REMARK    8  A    between atoms: O_21  and  C_24
REMARK                            x       y       z     vdW  Elec       q    Type
REMARK                         _______ _______ _______ _____ _____    ______ ____
ROOT
ATOM      1  C   UNL     1      35.677 -23.800 -15.288  0.00  0.00    +0.178 C 
ENDROOT
BRANCH   1   2
ATOM      2  C   UNL     1      34.190 -23.781 -14.888  0.00  0.00    +0.010 C 
ATOM      3  C   UNL     1      33.287 -23.254 -15.777  0.00  0.00    -0.002 C 
ATOM      4  C   UNL     1      33.840 -24.289 -13.664  0.00  0.00    -0.002 C 
ATOM      5  C   UNL     1      31.939 -23.236 -15.414  0.00  0.00    -0.000 C 
ATOM      6  C   UNL     1      32.493 -24.270 -13.302  0.00  0.00    -0.000 C 
ATOM      7  C   UNL     1      31.543 -23.744 -14.177  0.00  0.00    -0.000 C 
ENDBRANCH   1   2
BRANCH   1   8
ATOM      8  C   UNL     1      36.599 -23.830 -14.056  0.00  0.00    +0.010 C 
ATOM      9  C   UNL     1      37.580 -24.786 -14.001  0.00  0.00    -0.002 C 
ATOM     10  C   UNL     1      36.395 -22.898 -13.070  0.00  0.00    -0.002 C 
ATOM     11  C   UNL     1      38.415 -24.813 -12.884  0.00  0.00    -0.000 C 
ATOM     12  C   UNL     1      37.230 -22.925 -11.953  0.00  0.00    -0.000 C 
ATOM     13  C   UNL     1      38.240 -23.882 -11.860  0.00  0.00    -0.000 C 
ENDBRANCH   1   8
BRANCH   1  14
ATOM     14  O   UNL     1      35.971 -25.041 -15.968  0.00  0.00    -0.344 OA
ATOM     15  C   UNL     1      35.666 -26.146 -15.141  0.00  0.00    +0.175 C 
ENDBRANCH   1  14
BRANCH   1  16
ATOM     16  C   UNL     1      35.969 -22.672 -16.327  0.00  0.00    +0.311 C 
BRANCH  16  18
ATOM     17  O   UNL     1      38.377 -22.924 -16.147  0.00  0.00    -0.246 OA
ATOM     18  C   UNL     1      37.412 -22.179 -16.267  0.00  0.00    +0.359 C 
BRANCH  18  19
ATOM     19  O   UNL     1      37.531 -20.834 -16.387  0.00  0.00    -0.478 OA
ATOM     20  H   UNL     1      38.306 -20.463 -16.761  0.00  0.00    +0.295 HD
ENDBRANCH  18  19
ENDBRANCH  16  18
BRANCH  16  21
ATOM     21  O   UNL     1      35.670 -23.091 -17.650  0.00  0.00    -0.389 OA
BRANCH  21  24
ATOM     22  N   UNL     1      36.531 -21.480 -19.074  0.00  0.00    -0.320 NA
ATOM     23  N   UNL     1      34.157 -21.858 -18.896  0.00  0.00    -0.320 NA
ATOM     24  C   UNL     1      35.444 -22.104 -18.576  0.00  0.00    +0.309 C 
ATOM     25  C   UNL     1      36.272 -20.516 -19.981  0.00  0.00    +0.109 C 
ATOM     26  C   UNL     1      33.971 -20.882 -19.809  0.00  0.00    +0.109 C 
ATOM     27  C   UNL     1      35.000 -20.171 -20.391  0.00  0.00    +0.111 C 
ATOM     28  C   UNL     1      37.449 -19.800 -20.554  0.00  0.00    +0.063 C 
ATOM     29  C   UNL     1      32.560 -20.578 -20.187  0.00  0.00    +0.063 C 
ENDBRANCH  21  24
ENDBRANCH  16  21
ENDBRANCH   1  16
TORSDOF 8
ENDMDL
MODEL 2
REMARK VINA RESULT:      -8.7      0.006      2.057
REMARK  Name = 6918493
REMARK  8 active torsions:
REMARK  status: ('A' for Active; 'I' for Inactive)
REMARK    1  A    between atoms: C_1  and  C_2
REMARK    2  A    between atoms: C_1  and  C_8
REMARK    3  A    between atoms: C_1  and  O_14
REMARK    4  A    between atoms: C_1  and  C_16
REMARK    5  A    between atoms: C_16  and  C_18
REMARK    6  A    between atoms: C_16  and  O_21
REMARK    7  A    between atoms: C_18  and  O_19
REMARK    8  A    between atoms: O_21  and  C_24
REMARK                            x       y       z     vdW  Elec       q    Type
REMARK                         _______ _______ _______ _____ _____    ______ ____
ROOT
ATOM      1  C   UNL     1      35.678 -23.802 -15.291  0.00  0.00    +0.178 C 
ENDROOT
BRANCH   1   2
ATOM      2  C   UNL     1      34.191 -23.783 -14.891  0.00  0.00    +0.010 C 
ATOM      3  C   UNL     1      33.842 -24.303 -13.669  0.00  0.00    -0.002 C 
ATOM      4  C   UNL     1      33.287 -23.250 -15.772  0.00  0.00    -0.002 C 
ATOM      5  C   UNL     1      32.494 -24.286 -13.307  0.00  0.00    -0.000 C 
ATOM      6  C   UNL     1      31.941 -23.233 -15.410  0.00  0.00    -0.000 C 
ATOM      7  C   UNL     1      31.545 -23.751 -14.176  0.00  0.00    -0.000 C 
ENDBRANCH   1   2
BRANCH   1   8
ATOM      8  C   UNL     1      36.600 -23.831 -14.058  0.00  0.00    +0.010 C 
ATOM      9  C   UNL     1      36.397 -22.900 -13.073  0.00  0.00    -0.002 C 
ATOM     10  C   UNL     1      37.582 -24.787 -14.005  0.00  0.00    -0.002 C 
ATOM     11  C   UNL     1      37.233 -22.926 -11.956  0.00  0.00    -0.000 C 
ATOM     12  C   UNL     1      38.419 -24.812 -12.888  0.00  0.00    -0.000 C 
ATOM     13  C   UNL     1      38.244 -23.883 -11.864  0.00  0.00    -0.000 C 
ENDBRANCH   1   8
BRANCH   1  14
ATOM     14  O   UNL     1      35.973 -25.042 -15.970  0.00  0.00    -0.344 OA
ATOM     15  C   UNL     1      35.669 -26.148 -15.144  0.00  0.00    +0.175 C 
ENDBRANCH   1  14
BRANCH   1  16
ATOM     16  C   UNL     1      35.970 -22.674 -16.329  0.00  0.00    +0.311 C 
BRANCH  16  18
ATOM     17  O   UNL     1      38.377 -22.923 -16.144  0.00  0.00    -0.246 OA
ATOM     18  C   UNL     1      37.412 -22.180 -16.268  0.00  0.00    +0.359 C 
BRANCH  18  19
ATOM     19  O   UNL     1      37.530 -20.834 -16.392  0.00  0.00    -0.478 OA
ATOM     20  H   UNL     1      37.512 -20.289 -15.631  0.00  0.00    +0.295 HD
ENDBRANCH  18  19
ENDBRANCH  16  18
BRANCH  16  21
ATOM     21  O   UNL     1      35.671 -23.092 -17.652  0.00  0.00    -0.389 OA
BRANCH  21  24
ATOM     22  N   UNL     1      34.157 -21.861 -18.899  0.00  0.00    -0.320 NA
ATOM     23  N   UNL     1      36.530 -21.479 -19.073  0.00  0.00    -0.320 NA
ATOM     24  C   UNL     1      35.443 -22.105 -18.578  0.00  0.00    +0.309 C 
ATOM     25  C   UNL     1      33.971 -20.885 -19.812  0.00  0.00    +0.109 C 
ATOM     26  C   UNL     1      36.271 -20.514 -19.980  0.00  0.00    +0.109 C 
ATOM     27  C   UNL     1      34.999 -20.171 -20.392  0.00  0.00    +0.111 C 
ATOM     28  C   UNL     1      32.560 -20.587 -20.195  0.00  0.00    +0.063 C 
ATOM     29  C   UNL     1      37.448 -19.800 -20.555  0.00  0.00    +0.063 C 
ENDBRANCH  21  24
ENDBRANCH  16  21
ENDBRANCH   1  16
TORSDOF 8
ENDMDL
MODEL 3
REMARK VINA RESULT:      -8.1      2.216      5.200
REMARK  Name = 6918493
REMARK  8 active torsions:
REMARK  status: ('A' for Active; 'I' for Inactive)
REMARK    1  A    between atoms: C_1  and  C_2
REMARK    2  A    between atoms: C_1  and  C_8
REMARK    3  A    between atoms: C_1  and  O_14
REMARK    4  A    between atoms: C_1  and  C_16
REMARK    5  A    between atoms: C_16  and  C_18
REMARK    6  A    between atoms: C_16  and  O_21
REMARK    7  A    between atoms: C_18  and  O_19
REMARK    8  A    between atoms: O_21  and  C_24
REMARK                            x       y       z     vdW  Elec       q    Type
REMARK                         _______ _______ _______ _____ _____    ______ ____
ROOT
ATOM      1  C   UNL     1      37.073 -24.207 -14.192  0.00  0.00    +0.178 C 
ENDROOT
BRANCH   1   2
ATOM      2  C   UNL     1      38.465 -24.857 -14.300  0.00  0.00    +0.010 C 
ATOM      3  C   UNL     1      38.940 -25.557 -13.219  0.00  0.00    -0.002 C 
ATOM      4  C   UNL     1      39.165 -24.705 -15.470  0.00  0.00    -0.002 C 
ATOM      5  C   UNL     1      40.201 -26.145 -13.317  0.00  0.00    -0.000 C 
ATOM      6  C   UNL     1      40.425 -25.293 -15.567  0.00  0.00    -0.000 C 
ATOM      7  C   UNL     1      40.943 -26.013 -14.491  0.00  0.00    -0.000 C 
ENDBRANCH   1   2
BRANCH   1   8
ATOM      8  C   UNL     1      36.649 -24.007 -12.726  0.00  0.00    +0.010 C 
ATOM      9  C   UNL     1      37.211 -22.973 -12.023  0.00  0.00    -0.002 C 
ATOM     10  C   UNL     1      35.731 -24.874 -12.192  0.00  0.00    -0.002 C 
ATOM     11  C   UNL     1      36.827 -22.792 -10.693  0.00  0.00    -0.000 C 
ATOM     12  C   UNL     1      35.347 -24.694 -10.862  0.00  0.00    -0.000 C 
ATOM     13  C   UNL     1      35.895 -23.653 -10.114  0.00  0.00    -0.000 C 
ENDBRANCH   1   8
BRANCH   1  14
ATOM     14  O   UNL     1      37.131 -22.864 -14.720  0.00  0.00    -0.344 OA
ATOM     15  C   UNL     1      37.207 -22.886 -16.132  0.00  0.00    +0.175 C 
ENDBRANCH   1  14
BRANCH   1  16
ATOM     16  C   UNL     1      36.053 -24.970 -15.094  0.00  0.00    +0.311 C 
BRANCH  16  18
ATOM     17  O   UNL     1      36.602 -27.001 -16.305  0.00  0.00    -0.246 OA
ATOM     18  C   UNL     1      36.385 -26.453 -15.232  0.00  0.00    +0.359 C 
BRANCH  18  19
ATOM     19  O   UNL     1      36.447 -27.106 -14.046  0.00  0.00    -0.478 OA
ATOM     20  H   UNL     1      36.363 -26.631 -13.242  0.00  0.00    +0.295 HD
ENDBRANCH  18  19
ENDBRANCH  16  18
BRANCH  16  21
ATOM     21  O   UNL     1      34.724 -24.828 -14.614  0.00  0.00    -0.389 OA
BRANCH  21  24
ATOM     22  N   UNL     1      32.618 -23.912 -14.910  0.00  0.00    -0.320 NA
ATOM     23  N   UNL     1      34.286 -23.809 -16.646  0.00  0.00    -0.320 NA
ATOM     24  C   UNL     1      33.841 -24.157 -15.422  0.00  0.00    +0.309 C 
ATOM     25  C   UNL     1      31.777 -23.251 -15.732  0.00  0.00    +0.109 C 
ATOM     26  C   UNL     1      33.394 -23.151 -17.414  0.00  0.00    +0.109 C 
ATOM     27  C   UNL     1      32.113 -22.841 -17.006  0.00  0.00    +0.111 C 
ATOM     28  C   UNL     1      30.411 -22.963 -15.202  0.00  0.00    +0.063 C 
ATOM     29  C   UNL     1      33.848 -22.752 -18.779  0.00  0.00    +0.063 C 
ENDBRANCH  21  24
ENDBRANCH  16  21
ENDBRANCH   1  16
TORSDOF 8
ENDMDL
MODEL 4
REMARK VINA RESULT:      -8.1      2.204      4.899
REMARK  Name = 6918493
REMARK  8 active torsions:
REMARK  status: ('A' for Active; 'I' for Inactive)
REMARK    1  A    between atoms: C_1  and  C_2
REMARK    2  A    between atoms: C_1  and  C_8
REMARK    3  A    between atoms: C_1  and  O_14
REMARK    4  A    between atoms: C_1  and  C_16
REMARK    5  A    between atoms: C_16  and  C_18
REMARK    6  A    between atoms: C_16  and  O_21
REMARK    7  A    between atoms: C_18  and  O_19
REMARK    8  A    between atoms: O_21  and  C_24
REMARK                            x       y       z     vdW  Elec       q    Type
REMARK                         _______ _______ _______ _____ _____    ______ ____
ROOT
ATOM      1  C   UNL     1      37.142 -24.209 -14.177  0.00  0.00    +0.178 C 
ENDROOT
BRANCH   1   2
ATOM      2  C   UNL     1      38.520 -24.891 -14.276  0.00  0.00    +0.010 C 
ATOM      3  C   UNL     1      39.219 -24.773 -15.451  0.00  0.00    -0.002 C 
ATOM      4  C   UNL     1      38.982 -25.583 -13.187  0.00  0.00    -0.002 C 
ATOM      5  C   UNL     1      40.467 -25.390 -15.541  0.00  0.00    -0.000 C 
ATOM      6  C   UNL     1      40.229 -26.200 -13.277  0.00  0.00    -0.000 C 
ATOM      7  C   UNL     1      40.972 -26.103 -14.454  0.00  0.00    -0.000 C 
ENDBRANCH   1   2
BRANCH   1   8
ATOM      8  C   UNL     1      36.713 -24.002 -12.714  0.00  0.00    +0.010 C 
ATOM      9  C   UNL     1      35.794 -24.867 -12.177  0.00  0.00    -0.002 C 
ATOM     10  C   UNL     1      37.268 -22.960 -12.015  0.00  0.00    -0.002 C 
ATOM     11  C   UNL     1      35.404 -24.678 -10.851  0.00  0.00    -0.000 C 
ATOM     12  C   UNL     1      36.878 -22.771 -10.689  0.00  0.00    -0.000 C 
ATOM     13  C   UNL     1      35.947 -23.630 -10.107  0.00  0.00    -0.000 C 
ENDBRANCH   1   8
BRANCH   1  14
ATOM     14  O   UNL     1      37.236 -22.867 -14.702  0.00  0.00    -0.344 OA
ATOM     15  C   UNL     1      37.302 -22.887 -16.114  0.00  0.00    +0.175 C 
ENDBRANCH   1  14
BRANCH   1  16
ATOM     16  C   UNL     1      36.111 -24.946 -15.088  0.00  0.00    +0.311 C 
BRANCH  16  18
ATOM     17  O   UNL     1      36.616 -26.984 -16.306  0.00  0.00    -0.246 OA
ATOM     18  C   UNL     1      36.414 -26.435 -15.231  0.00  0.00    +0.359 C 
BRANCH  18  19
ATOM     19  O   UNL     1      36.466 -27.094 -14.047  0.00  0.00    -0.478 OA
ATOM     20  H   UNL     1      37.232 -27.582 -13.814  0.00  0.00    +0.295 HD
ENDBRANCH  18  19
ENDBRANCH  16  18
BRANCH  16  21
ATOM     21  O   UNL     1      34.783 -24.780 -14.614  0.00  0.00    -0.389 OA
BRANCH  21  24
ATOM     22  N   UNL     1      34.364 -23.790 -16.665  0.00  0.00    -0.320 NA
ATOM     23  N   UNL     1      32.671 -23.895 -14.954  0.00  0.00    -0.320 NA
ATOM     24  C   UNL     1      33.906 -24.130 -15.444  0.00  0.00    +0.309 C 
ATOM     25  C   UNL     1      33.475 -23.152 -17.453  0.00  0.00    +0.109 C 
ATOM     26  C   UNL     1      31.833 -23.255 -15.795  0.00  0.00    +0.109 C 
ATOM     27  C   UNL     1      32.184 -22.855 -17.068  0.00  0.00    +0.111 C 
ATOM     28  C   UNL     1      33.947 -22.757 -18.813  0.00  0.00    +0.063 C 
ATOM     29  C   UNL     1      30.458 -22.975 -15.288  0.00  0.00    +0.063 C 
ENDBRANCH  21  24
ENDBRANCH  16  21
ENDBRANCH   1  16
TORSDOF 8
ENDMDL
MODEL 5
REMARK VINA RESULT:      -8.1      6.080      9.579
REMARK  Name = 6918493
REMARK  8 active torsions:
REMARK  status: ('A' for Active; 'I' for Inactive)
REMARK    1  A    between atoms: C_1  and  C_2
REMARK    2  A    between atoms: C_1  and  C_8
REMARK    3  A    between atoms: C_1  and  O_14
REMARK    4  A    between atoms: C_1  and  C_16
REMARK    5  A    between atoms: C_16  and  C_18
REMARK    6  A    between atoms: C_16  and  O_21
REMARK    7  A    between atoms: C_18  and  O_19
REMARK    8  A    between atoms: O_21  and  C_24
REMARK                            x       y       z     vdW  Elec       q    Type
REMARK                         _______ _______ _______ _____ _____    ______ ____
ROOT
ATOM      1  C   UNL     1      34.652 -17.937 -21.556  0.00  0.00    +0.178 C 
ENDROOT
BRANCH   1   2
ATOM      2  C   UNL     1      34.615 -18.100 -23.086  0.00  0.00    +0.010 C 
ATOM      3  C   UNL     1      34.276 -19.327 -23.600  0.00  0.00    -0.002 C 
ATOM      4  C   UNL     1      34.922 -17.013 -23.864  0.00  0.00    -0.002 C 
ATOM      5  C   UNL     1      34.243 -19.474 -24.987  0.00  0.00    -0.000 C 
ATOM      6  C   UNL     1      34.889 -17.161 -25.250  0.00  0.00    -0.000 C 
ATOM      7  C   UNL     1      34.549 -18.392 -25.811  0.00  0.00    -0.000 C 
ENDBRANCH   1   2
BRANCH   1   8
ATOM      8  C   UNL     1      34.280 -19.244 -20.834  0.00  0.00    +0.010 C 
ATOM      9  C   UNL     1      32.953 -19.507 -20.607  0.00  0.00    -0.002 C 
ATOM     10  C   UNL     1      35.293 -20.085 -20.449  0.00  0.00    -0.002 C 
ATOM     11  C   UNL     1      32.616 -20.692 -19.952  0.00  0.00    -0.000 C 
ATOM     12  C   UNL     1      34.956 -21.270 -19.794  0.00  0.00    -0.000 C 
ATOM     13  C   UNL     1      33.618 -21.573 -19.546  0.00  0.00    -0.000 C 
ENDBRANCH   1   8
BRANCH   1  14
ATOM     14  O   UNL     1      36.011 -17.686 -21.135  0.00  0.00    -0.344 OA
ATOM     15  C   UNL     1      36.925 -18.354 -21.982  0.00  0.00    +0.175 C 
ENDBRANCH   1  14
BRANCH   1  16
ATOM     16  C   UNL     1      33.840 -16.673 -21.130  0.00  0.00    +0.311 C 
BRANCH  16  18
ATOM     17  O   UNL     1      34.915 -15.177 -19.549  0.00  0.00    -0.246 OA
ATOM     18  C   UNL     1      34.738 -15.512 -20.714  0.00  0.00    +0.359 C 
BRANCH  18  19
ATOM     19  O   UNL     1      35.349 -14.899 -21.757  0.00  0.00    -0.478 OA
ATOM     20  H   UNL     1      35.074 -15.079 -22.635  0.00  0.00    +0.295 HD
ENDBRANCH  18  19
ENDBRANCH  16  18
BRANCH  16  21
ATOM     21  O   UNL     1      32.963 -16.244 -22.161  0.00  0.00    -0.389 OA
BRANCH  21  24
ATOM     22  N   UNL     1      32.275 -14.209 -21.295  0.00  0.00    -0.320 NA
ATOM     23  N   UNL     1      33.228 -14.376 -23.503  0.00  0.00    -0.320 NA
ATOM     24  C   UNL     1      32.816 -14.890 -22.326  0.00  0.00    +0.309 C 
ATOM     25  C   UNL     1      32.146 -12.881 -21.493  0.00  0.00    +0.109 C 
ATOM     26  C   UNL     1      33.070 -13.042 -23.632  0.00  0.00    +0.109 C 
ATOM     27  C   UNL     1      32.529 -12.237 -22.651  0.00  0.00    +0.111 C 
ATOM     28  C   UNL     1      31.548 -12.092 -20.375  0.00  0.00    +0.063 C 
ATOM     29  C   UNL     1      33.510 -12.436 -24.923  0.00  0.00    +0.063 C 
ENDBRANCH  21  24
ENDBRANCH  16  21
ENDBRANCH   1  16
TORSDOF 8
ENDMDL
MODEL 6
REMARK VINA RESULT:      -8.1      6.083      9.523
REMARK  Name = 6918493
REMARK  8 active torsions:
REMARK  status: ('A' for Active; 'I' for Inactive)
REMARK    1  A    between atoms: C_1  and  C_2
REMARK    2  A    between atoms: C_1  and  C_8
REMARK    3  A    between atoms: C_1  and  O_14
REMARK    4  A    between atoms: C_1  and  C_16
REMARK    5  A    between atoms: C_16  and  C_18
REMARK    6  A    between atoms: C_16  and  O_21
REMARK    7  A    between atoms: C_18  and  O_19
REMARK    8  A    between atoms: O_21  and  C_24
REMARK                            x       y       z     vdW  Elec       q    Type
REMARK                         _______ _______ _______ _____ _____    ______ ____
ROOT
ATOM      1  C   UNL     1      34.652 -17.932 -21.556  0.00  0.00    +0.178 C 
ENDROOT
BRANCH   1   2
ATOM      2  C   UNL     1      34.616 -18.093 -23.087  0.00  0.00    +0.010 C 
ATOM      3  C   UNL     1      34.281 -19.321 -23.602  0.00  0.00    -0.002 C 
ATOM      4  C   UNL     1      34.921 -17.005 -23.863  0.00  0.00    -0.002 C 
ATOM      5  C   UNL     1      34.249 -19.466 -24.989  0.00  0.00    -0.000 C 
ATOM      6  C   UNL     1      34.888 -17.151 -25.249  0.00  0.00    -0.000 C 
ATOM      7  C   UNL     1      34.552 -18.382 -25.812  0.00  0.00    -0.000 C 
ENDBRANCH   1   2
BRANCH   1   8
ATOM      8  C   UNL     1      34.280 -19.240 -20.836  0.00  0.00    +0.010 C 
ATOM      9  C   UNL     1      32.953 -19.503 -20.611  0.00  0.00    -0.002 C 
ATOM     10  C   UNL     1      35.293 -20.081 -20.451  0.00  0.00    -0.002 C 
ATOM     11  C   UNL     1      32.616 -20.689 -19.957  0.00  0.00    -0.000 C 
ATOM     12  C   UNL     1      34.956 -21.267 -19.798  0.00  0.00    -0.000 C 
ATOM     13  C   UNL     1      33.617 -21.571 -19.551  0.00  0.00    -0.000 C 
ENDBRANCH   1   8
BRANCH   1  14
ATOM     14  O   UNL     1      36.011 -17.682 -21.135  0.00  0.00    -0.344 OA
ATOM     15  C   UNL     1      36.926 -18.362 -21.972  0.00  0.00    +0.175 C 
ENDBRANCH   1  14
BRANCH   1  16
ATOM     16  C   UNL     1      33.841 -16.669 -21.129  0.00  0.00    +0.311 C 
BRANCH  16  18
ATOM     17  O   UNL     1      34.917 -15.166 -19.555  0.00  0.00    -0.246 OA
ATOM     18  C   UNL     1      34.739 -15.506 -20.718  0.00  0.00    +0.359 C 
BRANCH  18  19
ATOM     19  O   UNL     1      35.350 -14.897 -21.764  0.00  0.00    -0.478 OA
ATOM     20  H   UNL     1      36.078 -15.309 -22.188  0.00  0.00    +0.295 HD
ENDBRANCH  18  19
ENDBRANCH  16  18
BRANCH  16  21
ATOM     21  O   UNL     1      32.960 -16.242 -22.158  0.00  0.00    -0.389 OA
BRANCH  21  24
ATOM     22  N   UNL     1      33.222 -14.377 -23.506  0.00  0.00    -0.320 NA
ATOM     23  N   UNL     1      32.275 -14.205 -21.296  0.00  0.00    -0.320 NA
ATOM     24  C   UNL     1      32.814 -14.889 -22.327  0.00  0.00    +0.309 C 
ATOM     25  C   UNL     1      33.064 -13.044 -23.636  0.00  0.00    +0.109 C 
ATOM     26  C   UNL     1      32.145 -12.877 -21.495  0.00  0.00    +0.109 C 
ATOM     27  C   UNL     1      32.526 -12.236 -22.656  0.00  0.00    +0.111 C 
ATOM     28  C   UNL     1      33.507 -12.440 -24.928  0.00  0.00    +0.063 C 
ATOM     29  C   UNL     1      31.557 -12.085 -20.376  0.00  0.00    +0.063 C 
ENDBRANCH  21  24
ENDBRANCH  16  21
ENDBRANCH   1  16
TORSDOF 8
ENDMDL
MODEL 7
REMARK VINA RESULT:      -8.0     11.583     15.625
REMARK  Name = 6918493
REMARK  8 active torsions:
REMARK  status: ('A' for Active; 'I' for Inactive)
REMARK    1  A    between atoms: C_1  and  C_2
REMARK    2  A    between atoms: C_1  and  C_8
REMARK    3  A    between atoms: C_1  and  O_14
REMARK    4  A    between atoms: C_1  and  C_16
REMARK    5  A    between atoms: C_16  and  C_18
REMARK    6  A    between atoms: C_16  and  O_21
REMARK    7  A    between atoms: C_18  and  O_19
REMARK    8  A    between atoms: O_21  and  C_24
REMARK                            x       y       z     vdW  Elec       q    Type
REMARK                         _______ _______ _______ _____ _____    ______ ____
ROOT
ATOM      1  C   UNL     1      33.082  -9.103 -22.969  0.00  0.00    +0.178 C 
ENDROOT
BRANCH   1   2
ATOM      2  C   UNL     1      32.230  -9.710 -21.839  0.00  0.00    +0.010 C 
ATOM      3  C   UNL     1      32.391  -9.217 -20.569  0.00  0.00    -0.002 C 
ATOM      4  C   UNL     1      31.353 -10.715 -22.155  0.00  0.00    -0.002 C 
ATOM      5  C   UNL     1      31.619  -9.767 -19.545  0.00  0.00    -0.000 C 
ATOM      6  C   UNL     1      30.582 -11.265 -21.132  0.00  0.00    -0.000 C 
ATOM      7  C   UNL     1      30.715 -10.791 -19.827  0.00  0.00    -0.000 C 
ENDBRANCH   1   2
BRANCH   1   8
ATOM      8  C   UNL     1      32.384  -7.898 -23.625  0.00  0.00    +0.010 C 
ATOM      9  C   UNL     1      33.165  -6.916 -24.177  0.00  0.00    -0.002 C 
ATOM     10  C   UNL     1      31.013  -7.863 -23.625  0.00  0.00    -0.002 C 
ATOM     11  C   UNL     1      32.532  -5.823 -24.771  0.00  0.00    -0.000 C 
ATOM     12  C   UNL     1      30.379  -6.771 -24.219  0.00  0.00    -0.000 C 
ATOM     13  C   UNL     1      31.139  -5.752 -24.792  0.00  0.00    -0.000 C 
ENDBRANCH   1   8
BRANCH   1  14
ATOM     14  O   UNL     1      34.287  -8.538 -22.407  0.00  0.00    -0.344 OA
ATOM     15  C   UNL     1      33.982  -7.421 -21.596  0.00  0.00    +0.175 C 
ENDBRANCH   1  14
BRANCH   1  16
ATOM     16  C   UNL     1      33.559 -10.223 -23.945  0.00  0.00    +0.311 C 
BRANCH  16  18
ATOM     17  O   UNL     1      34.763  -9.421 -25.894  0.00  0.00    -0.246 OA
ATOM     18  C   UNL     1      34.800  -9.822 -24.738  0.00  0.00    +0.359 C 
BRANCH  18  19
ATOM     19  O   UNL     1      35.952  -9.924 -24.030  0.00  0.00    -0.478 OA
ATOM     20  H   UNL     1      36.698  -9.411 -24.272  0.00  0.00    +0.295 HD
ENDBRANCH  18  19
ENDBRANCH  16  18
BRANCH  16  21
ATOM     21  O   UNL     1      33.813 -11.440 -23.259  0.00  0.00    -0.389 OA
BRANCH  21  24
ATOM     22  N   UNL     1      34.016 -13.745 -23.351  0.00  0.00    -0.320 NA
ATOM     23  N   UNL     1      33.333 -12.468 -25.277  0.00  0.00    -0.320 NA
ATOM     24  C   UNL     1      33.717 -12.597 -23.990  0.00  0.00    +0.309 C 
ATOM     25  C   UNL     1      33.911 -14.861 -24.101  0.00  0.00    +0.109 C 
ATOM     26  C   UNL     1      33.248 -13.624 -25.967  0.00  0.00    +0.109 C 
ATOM     27  C   UNL     1      33.528 -14.862 -25.427  0.00  0.00    +0.111 C 
ATOM     28  C   UNL     1      34.237 -16.154 -23.429  0.00  0.00    +0.063 C 
ATOM     29  C   UNL     1      32.829 -13.522 -27.396  0.00  0.00    +0.063 C 
ENDBRANCH  21  24
ENDBRANCH  16  21
ENDBRANCH   1  16
TORSDOF 8
ENDMDL
MODEL 8
REMARK VINA RESULT:      -8.0     11.580     15.636
REMARK  Name = 6918493
REMARK  8 active torsions:
REMARK  status: ('A' for Active; 'I' for Inactive)
REMARK    1  A    between atoms: C_1  and  C_2
REMARK    2  A    between atoms: C_1  and  C_8
REMARK    3  A    between atoms: C_1  and  O_14
REMARK    4  A    between atoms: C_1  and  C_16
REMARK    5  A    between atoms: C_16  and  C_18
REMARK    6  A    between atoms: C_16  and  O_21
REMARK    7  A    between atoms: C_18  and  O_19
REMARK    8  A    between atoms: O_21  and  C_24
REMARK                            x       y       z     vdW  Elec       q    Type
REMARK                         _______ _______ _______ _____ _____    ______ ____
ROOT
ATOM      1  C   UNL     1      33.079  -9.123 -22.967  0.00  0.00    +0.178 C 
ENDROOT
BRANCH   1   2
ATOM      2  C   UNL     1      32.221  -9.728 -21.840  0.00  0.00    +0.010 C 
ATOM      3  C   UNL     1      32.378  -9.234 -20.569  0.00  0.00    -0.002 C 
ATOM      4  C   UNL     1      31.343 -10.731 -22.159  0.00  0.00    -0.002 C 
ATOM      5  C   UNL     1      31.601  -9.782 -19.549  0.00  0.00    -0.000 C 
ATOM      6  C   UNL     1      30.567 -11.278 -21.138  0.00  0.00    -0.000 C 
ATOM      7  C   UNL     1      30.696 -10.803 -19.833  0.00  0.00    -0.000 C 
ENDBRANCH   1   2
BRANCH   1   8
ATOM      8  C   UNL     1      32.396  -7.903 -23.611  0.00  0.00    +0.010 C 
ATOM      9  C   UNL     1      31.026  -7.851 -23.614  0.00  0.00    -0.002 C 
ATOM     10  C   UNL     1      33.191  -6.926 -24.154  0.00  0.00    -0.002 C 
ATOM     11  C   UNL     1      30.407  -6.746 -24.199  0.00  0.00    -0.000 C 
ATOM     12  C   UNL     1      32.572  -5.820 -24.739  0.00  0.00    -0.000 C 
ATOM     13  C   UNL     1      31.181  -5.730 -24.761  0.00  0.00    -0.000 C 
ENDBRANCH   1   8
BRANCH   1  14
ATOM     14  O   UNL     1      34.293  -8.579 -22.403  0.00  0.00    -0.344 OA
ATOM     15  C   UNL     1      34.013  -7.424 -21.637  0.00  0.00    +0.175 C 
ENDBRANCH   1  14
BRANCH   1  16
ATOM     16  C   UNL     1      33.538 -10.242 -23.953  0.00  0.00    +0.311 C 
BRANCH  16  18
ATOM     17  O   UNL     1      34.767  -9.454 -25.893  0.00  0.00    -0.246 OA
ATOM     18  C   UNL     1      34.789  -9.856 -24.737  0.00  0.00    +0.359 C 
BRANCH  18  19
ATOM     19  O   UNL     1      35.935  -9.971 -24.020  0.00  0.00    -0.478 OA
ATOM     20  H   UNL     1      36.458  -9.214 -23.846  0.00  0.00    +0.295 HD
ENDBRANCH  18  19
ENDBRANCH  16  18
BRANCH  16  21
ATOM     21  O   UNL     1      33.766 -11.471 -23.279  0.00  0.00    -0.389 OA
BRANCH  21  24
ATOM     22  N   UNL     1      33.281 -12.471 -25.311  0.00  0.00    -0.320 NA
ATOM     23  N   UNL     1      33.985 -13.772 -23.408  0.00  0.00    -0.320 NA
ATOM     24  C   UNL     1      33.673 -12.615 -24.029  0.00  0.00    +0.309 C 
ATOM     25  C   UNL     1      33.201 -13.617 -26.018  0.00  0.00    +0.109 C 
ATOM     26  C   UNL     1      33.883 -14.878 -24.174  0.00  0.00    +0.109 C 
ATOM     27  C   UNL     1      33.493 -14.861 -25.497  0.00  0.00    +0.111 C 
ATOM     28  C   UNL     1      32.768 -13.498 -27.441  0.00  0.00    +0.063 C 
ATOM     29  C   UNL     1      34.216 -16.178 -23.521  0.00  0.00    +0.063 C 
ENDBRANCH  21  24
ENDBRANCH  16  21
ENDBRANCH   1  16
TORSDOF 8
ENDMDL
MODEL 9
REMARK VINA RESULT:      -8.0      1.088      4.041
REMARK  Name = 6918493
REMARK  8 active torsions:
REMARK  status: ('A' for Active; 'I' for Inactive)
REMARK    1  A    between atoms: C_1  and  C_2
REMARK    2  A    between atoms: C_1  and  C_8
REMARK    3  A    between atoms: C_1  and  O_14
REMARK    4  A    between atoms: C_1  and  C_16
REMARK    5  A    between atoms: C_16  and  C_18
REMARK    6  A    between atoms: C_16  and  O_21
REMARK    7  A    between atoms: C_18  and  O_19
REMARK    8  A    between atoms: O_21  and  C_24
REMARK                            x       y       z     vdW  Elec       q    Type
REMARK                         _______ _______ _______ _____ _____    ______ ____
ROOT
ATOM      1  C   UNL     1      35.309 -23.534 -14.627  0.00  0.00    +0.178 C 
ENDROOT
BRANCH   1   2
ATOM      2  C   UNL     1      36.082 -24.866 -14.617  0.00  0.00    +0.010 C 
ATOM      3  C   UNL     1      36.989 -25.081 -13.610  0.00  0.00    -0.002 C 
ATOM      4  C   UNL     1      35.827 -25.773 -15.613  0.00  0.00    -0.002 C 
ATOM      5  C   UNL     1      37.689 -26.288 -13.601  0.00  0.00    -0.000 C 
ATOM      6  C   UNL     1      36.527 -26.979 -15.603  0.00  0.00    -0.000 C 
ATOM      7  C   UNL     1      37.458 -27.236 -14.596  0.00  0.00    -0.000 C 
ENDBRANCH   1   2
BRANCH   1   8
ATOM      8  C   UNL     1      33.789 -23.755 -14.529  0.00  0.00    +0.010 C 
ATOM      9  C   UNL     1      32.959 -22.845 -15.131  0.00  0.00    -0.002 C 
ATOM     10  C   UNL     1      33.336 -24.852 -13.841  0.00  0.00    -0.002 C 
ATOM     11  C   UNL     1      31.581 -23.046 -15.041  0.00  0.00    -0.000 C 
ATOM     12  C   UNL     1      31.958 -25.053 -13.751  0.00  0.00    -0.000 C 
ATOM     13  C   UNL     1      31.081 -24.150 -14.351  0.00  0.00    -0.000 C 
ENDBRANCH   1   8
BRANCH   1  14
ATOM     14  O   UNL     1      35.626 -22.789 -13.431  0.00  0.00    -0.344 OA
ATOM     15  C   UNL     1      35.318 -23.545 -12.276  0.00  0.00    +0.175 C 
ENDBRANCH   1  14
BRANCH   1  16
ATOM     16  C   UNL     1      35.788 -22.644 -15.816  0.00  0.00    +0.311 C 
BRANCH  16  18
ATOM     17  O   UNL     1      38.121 -23.268 -15.566  0.00  0.00    -0.246 OA
ATOM     18  C   UNL     1      37.293 -22.394 -15.793  0.00  0.00    +0.359 C 
BRANCH  18  19
ATOM     19  O   UNL     1      37.635 -21.113 -16.076  0.00  0.00    -0.478 OA
ATOM     20  H   UNL     1      37.003 -20.427 -15.985  0.00  0.00    +0.295 HD
ENDBRANCH  18  19
ENDBRANCH  16  18
BRANCH  16  21
ATOM     21  O   UNL     1      35.424 -23.205 -17.069  0.00  0.00    -0.389 OA
BRANCH  21  24
ATOM     22  N   UNL     1      34.016 -22.150 -18.574  0.00  0.00    -0.320 NA
ATOM     23  N   UNL     1      36.392 -21.751 -18.587  0.00  0.00    -0.320 NA
ATOM     24  C   UNL     1      35.271 -22.335 -18.117  0.00  0.00    +0.309 C 
ATOM     25  C   UNL     1      33.903 -21.288 -19.605  0.00  0.00    +0.109 C 
ATOM     26  C   UNL     1      36.206 -20.900 -19.618  0.00  0.00    +0.109 C 
ATOM     27  C   UNL     1      34.973 -20.628 -20.173  0.00  0.00    +0.111 C 
ATOM     28  C   UNL     1      32.529 -21.058 -20.140  0.00  0.00    +0.063 C 
ATOM     29  C   UNL     1      37.425 -20.237 -20.168  0.00  0.00    +0.063 C 
ENDBRANCH  21  24
ENDBRANCH  16  21
ENDBRANCH   1  16
TORSDOF 8
ENDMDL
