MODEL 1
REMARK VINA RESULT:      -9.8      0.000      0.000
REMARK  Name = 60728
REMARK  8 active torsions:
REMARK  status: ('A' for Active; 'I' for Inactive)
REMARK    1  A    between atoms: N_1  and  C_26
REMARK    2  A    between atoms: C_2  and  C_8
REMARK    3  A    between atoms: C_2  and  N_15
REMARK    4  A    between atoms: N_15  and  C_18
REMARK    5  A    between atoms: C_16  and  C_24
REMARK    6  A    between atoms: C_26  and  C_27
REMARK    7  A    between atoms: C_27  and  N_29
REMARK    8  A    between atoms: N_31  and  C_34
REMARK                            x       y       z     vdW  Elec       q    Type
REMARK                         _______ _______ _______ _____ _____    ______ ____
ROOT
ATOM      1  N   UNL     1      31.170 -23.621 -14.189  0.00  0.00    +0.388 N 
ATOM      2  C   UNL     1      34.064 -24.067 -14.790  0.00  0.00    +0.079 C 
ATOM      3  C   UNL     1      33.532 -23.056 -13.738  0.00  0.00    -0.000 C 
ATOM      4  C   UNL     1      32.970 -25.165 -14.907  0.00  0.00    -0.000 C 
ATOM      5  C   UNL     1      32.138 -22.523 -14.088  0.00  0.00    -0.075 C 
ATOM      6  C   UNL     1      31.574 -24.599 -15.205  0.00  0.00    -0.075 C 
ATOM      7  H   UNL     1      31.148 -24.099 -13.288  0.00  0.00    -0.080 HD
ENDROOT
BRANCH   2   8
ATOM      8  C   UNL     1      34.446 -23.388 -16.120  0.00  0.00    -0.006 C 
ATOM      9  C   UNL     1      35.661 -22.714 -16.235  0.00  0.00    -0.003 C 
ATOM     10  C   UNL     1      33.574 -23.446 -17.208  0.00  0.00    -0.003 C 
ATOM     11  C   UNL     1      36.007 -22.099 -17.438  0.00  0.00    -0.000 C 
ATOM     12  C   UNL     1      33.920 -22.831 -18.411  0.00  0.00    -0.000 C 
ATOM     13  C   UNL     1      35.136 -22.158 -18.527  0.00  0.00    -0.000 C 
ENDBRANCH   2   8
BRANCH   2  15
ATOM     14  O   UNL     1      35.647 -26.235 -16.015  0.00  0.00    -0.275 OA
ATOM     15  N   UNL     1      35.271 -24.694 -14.256  0.00  0.00    -0.256 N 
ATOM     16  C   UNL     1      35.966 -25.741 -14.931  0.00  0.00    +0.230 C 
BRANCH  15  18
ATOM     17  F   UNL     1      37.379 -22.844 -14.071  0.00  0.00    -0.203 F 
ATOM     18  C   UNL     1      35.790 -24.227 -12.973  0.00  0.00    +0.082 C 
ATOM     19  C   UNL     1      36.837 -23.307 -12.935  0.00  0.00    +0.154 C 
ATOM     20  C   UNL     1      35.234 -24.701 -11.785  0.00  0.00    +0.017 C 
ATOM     21  C   UNL     1      37.330 -22.861 -11.709  0.00  0.00    +0.031 C 
ATOM     22  C   UNL     1      35.727 -24.255 -10.559  0.00  0.00    +0.001 C 
ATOM     23  C   UNL     1      36.774 -23.335 -10.521  0.00  0.00    +0.002 C 
ENDBRANCH  15  18
BRANCH  16  24
ATOM     24  C   UNL     1      37.178 -26.296 -14.187  0.00  0.00    +0.086 C 
ATOM     25  C   UNL     1      38.497 -25.921 -14.845  0.00  0.00    +0.010 C 
ENDBRANCH  16  24
ENDBRANCH   2  15
BRANCH   1  26
ATOM     26  C   UNL     1      29.833 -23.103 -14.476  0.00  0.00    -0.050 C 
BRANCH  26  27
ATOM     27  C   UNL     1      29.034 -24.118 -15.281  0.00  0.00    +0.111 C 
BRANCH  27  29
ATOM     28  O   UNL     1      27.223 -21.755 -15.045  0.00  0.00    -0.243 OA
ATOM     29  N   UNL     1      28.238 -23.474 -16.288  0.00  0.00    -0.184 N 
ATOM     30  N   UNL     1      28.170 -23.852 -17.601  0.00  0.00    -0.042 NA
ATOM     31  N   UNL     1      26.889 -22.148 -17.338  0.00  0.00    -0.182 N 
ATOM     32  N   UNL     1      27.378 -23.074 -18.216  0.00  0.00    -0.042 NA
ATOM     33  C   UNL     1      27.422 -22.372 -16.079  0.00  0.00    +0.365 A 
BRANCH  31  34
ATOM     34  C   UNL     1      25.963 -21.128 -17.751  0.00  0.00    +0.134 C 
ATOM     35  C   UNL     1      25.577 -21.285 -19.207  0.00  0.00    +0.029 C 
ENDBRANCH  31  34
ENDBRANCH  27  29
ENDBRANCH  26  27
ENDBRANCH   1  26
TORSDOF 8
ENDMDL
MODEL 2
REMARK VINA RESULT:      -7.4      4.091      6.365
REMARK  Name = 60728
REMARK  8 active torsions:
REMARK  status: ('A' for Active; 'I' for Inactive)
REMARK    1  A    between atoms: N_1  and  C_26
REMARK    2  A    between atoms: C_2  and  C_8
REMARK    3  A    between atoms: C_2  and  N_15
REMARK    4  A    between atoms: N_15  and  C_18
REMARK    5  A    between atoms: C_16  and  C_24
REMARK    6  A    between atoms: C_26  and  C_27
REMARK    7  A    between atoms: C_27  and  N_29
REMARK    8  A    between atoms: N_31  and  C_34
REMARK                            x       y       z     vdW  Elec       q    Type
REMARK                         _______ _______ _______ _____ _____    ______ ____
ROOT
ATOM      1  N   UNL     1      35.635 -22.003 -17.630  0.00  0.00    +0.388 N 
ATOM      2  C   UNL     1      35.505 -23.602 -15.108  0.00  0.00    +0.079 C 
ATOM      3  C   UNL     1      36.129 -22.184 -15.217  0.00  0.00    -0.000 C 
ATOM      4  C   UNL     1      34.452 -23.684 -16.248  0.00  0.00    -0.000 C 
ATOM      5  C   UNL     1      36.688 -21.894 -16.614  0.00  0.00    -0.075 C 
ATOM      6  C   UNL     1      35.026 -23.338 -17.629  0.00  0.00    -0.075 C 
ATOM      7  H   UNL     1      34.907 -21.328 -17.396  0.00  0.00    -0.080 HD
ENDROOT
BRANCH   2   8
ATOM      8  C   UNL     1      36.568 -24.717 -15.124  0.00  0.00    -0.006 C 
ATOM      9  C   UNL     1      36.177 -26.053 -15.197  0.00  0.00    -0.003 C 
ATOM     10  C   UNL     1      37.923 -24.389 -15.065  0.00  0.00    -0.003 C 
ATOM     11  C   UNL     1      37.140 -27.063 -15.212  0.00  0.00    -0.000 C 
ATOM     12  C   UNL     1      38.886 -25.398 -15.080  0.00  0.00    -0.000 C 
ATOM     13  C   UNL     1      38.494 -26.734 -15.153  0.00  0.00    -0.000 C 
ENDBRANCH   2   8
BRANCH   2  15
ATOM     14  O   UNL     1      36.653 -23.410 -12.397  0.00  0.00    -0.275 OA
ATOM     15  N   UNL     1      34.793 -23.694 -13.835  0.00  0.00    -0.256 N 
ATOM     16  C   UNL     1      35.444 -23.588 -12.571  0.00  0.00    +0.230 C 
BRANCH  15  18
ATOM     17  F   UNL     1      32.979 -21.608 -14.338  0.00  0.00    -0.203 F 
ATOM     18  C   UNL     1      33.348 -23.905 -13.858  0.00  0.00    +0.082 C 
ATOM     19  C   UNL     1      32.490 -22.836 -14.113  0.00  0.00    +0.154 C 
ATOM     20  C   UNL     1      32.827 -25.178 -13.627  0.00  0.00    +0.017 C 
ATOM     21  C   UNL     1      31.110 -23.039 -14.137  0.00  0.00    +0.031 C 
ATOM     22  C   UNL     1      31.448 -25.381 -13.650  0.00  0.00    +0.001 C 
ATOM     23  C   UNL     1      30.589 -24.313 -13.905  0.00  0.00    +0.002 C 
ENDBRANCH  15  18
BRANCH  16  24
ATOM     24  C   UNL     1      34.535 -23.758 -11.358  0.00  0.00    +0.086 C 
ATOM     25  C   UNL     1      35.215 -24.485 -10.208  0.00  0.00    +0.010 C 
ENDBRANCH  16  24
ENDBRANCH   2  15
BRANCH   1  26
ATOM     26  C   UNL     1      36.163 -21.679 -18.955  0.00  0.00    -0.050 C 
BRANCH  26  27
ATOM     27  C   UNL     1      35.024 -21.384 -19.920  0.00  0.00    +0.111 C 
BRANCH  27  29
ATOM     28  O   UNL     1      32.830 -19.635 -20.942  0.00  0.00    -0.243 OA
ATOM     29  N   UNL     1      35.083 -20.030 -20.397  0.00  0.00    -0.184 N 
ATOM     30  N   UNL     1      36.216 -19.268 -20.468  0.00  0.00    -0.042 NA
ATOM     31  N   UNL     1      34.577 -18.081 -21.189  0.00  0.00    -0.182 N 
ATOM     32  N   UNL     1      35.919 -18.125 -20.933  0.00  0.00    -0.042 NA
ATOM     33  C   UNL     1      34.000 -19.296 -20.855  0.00  0.00    +0.365 A 
BRANCH  31  34
ATOM     34  C   UNL     1      33.945 -16.906 -21.725  0.00  0.00    +0.134 C 
ATOM     35  C   UNL     1      34.252 -15.681 -20.887  0.00  0.00    +0.029 C 
ENDBRANCH  31  34
ENDBRANCH  27  29
ENDBRANCH  26  27
ENDBRANCH   1  26
TORSDOF 8
ENDMDL
MODEL 3
REMARK VINA RESULT:      -7.2      3.836      5.563
REMARK  Name = 60728
REMARK  8 active torsions:
REMARK  status: ('A' for Active; 'I' for Inactive)
REMARK    1  A    between atoms: N_1  and  C_26
REMARK    2  A    between atoms: C_2  and  C_8
REMARK    3  A    between atoms: C_2  and  N_15
REMARK    4  A    between atoms: N_15  and  C_18
REMARK    5  A    between atoms: C_16  and  C_24
REMARK    6  A    between atoms: C_26  and  C_27
REMARK    7  A    between atoms: C_27  and  N_29
REMARK    8  A    between atoms: N_31  and  C_34
REMARK                            x       y       z     vdW  Elec       q    Type
REMARK                         _______ _______ _______ _____ _____    ______ ____
ROOT
ATOM      1  N   UNL     1      34.539 -22.708 -18.086  0.00  0.00    +0.388 N 
ATOM      2  C   UNL     1      34.720 -24.102 -15.448  0.00  0.00    +0.079 C 
ATOM      3  C   UNL     1      34.603 -24.826 -16.817  0.00  0.00    -0.000 C 
ATOM      4  C   UNL     1      35.380 -22.729 -15.756  0.00  0.00    -0.000 C 
ATOM      5  C   UNL     1      33.859 -23.989 -17.863  0.00  0.00    -0.075 C 
ATOM      6  C   UNL     1      34.646 -21.935 -16.844  0.00  0.00    -0.075 C 
ATOM      7  H   UNL     1      35.486 -22.912 -18.407  0.00  0.00    -0.080 HD
ENDROOT
BRANCH   2   8
ATOM      8  C   UNL     1      33.371 -24.022 -14.706  0.00  0.00    -0.006 C 
ATOM      9  C   UNL     1      32.691 -25.191 -14.368  0.00  0.00    -0.003 C 
ATOM     10  C   UNL     1      32.832 -22.779 -14.374  0.00  0.00    -0.003 C 
ATOM     11  C   UNL     1      31.470 -25.118 -13.696  0.00  0.00    -0.000 C 
ATOM     12  C   UNL     1      31.611 -22.706 -13.702  0.00  0.00    -0.000 C 
ATOM     13  C   UNL     1      30.931 -23.875 -13.364  0.00  0.00    -0.000 C 
ENDBRANCH   2   8
BRANCH   2  15
ATOM     14  O   UNL     1      35.996 -26.690 -16.064  0.00  0.00    -0.275 OA
ATOM     15  N   UNL     1      35.640 -24.861 -14.603  0.00  0.00    -0.256 N 
ATOM     16  C   UNL     1      36.205 -26.109 -14.996  0.00  0.00    +0.230 C 
BRANCH  15  18
ATOM     17  F   UNL     1      37.802 -23.099 -14.251  0.00  0.00    -0.203 F 
ATOM     18  C   UNL     1      35.997 -24.315 -13.296  0.00  0.00    +0.082 C 
ATOM     19  C   UNL     1      37.079 -23.444 -13.175  0.00  0.00    +0.154 C 
ATOM     20  C   UNL     1      35.253 -24.664 -12.169  0.00  0.00    +0.017 C 
ATOM     21  C   UNL     1      37.418 -22.922 -11.926  0.00  0.00    +0.031 C 
ATOM     22  C   UNL     1      35.592 -24.143 -10.921  0.00  0.00    +0.001 C 
ATOM     23  C   UNL     1      36.674 -23.272 -10.799  0.00  0.00    +0.002 C 
ENDBRANCH  15  18
BRANCH  16  24
ATOM     24  C   UNL     1      37.106 -26.768 -13.955  0.00  0.00    +0.086 C 
ATOM     25  C   UNL     1      38.584 -26.507 -14.203  0.00  0.00    +0.010 C 
ENDBRANCH  16  24
ENDBRANCH   2  15
BRANCH   1  26
ATOM     26  C   UNL     1      33.853 -21.933 -19.119  0.00  0.00    -0.050 C 
BRANCH  26  27
ATOM     27  C   UNL     1      34.794 -21.649 -20.280  0.00  0.00    +0.111 C 
BRANCH  27  29
ATOM     28  O   UNL     1      32.701 -19.703 -21.144  0.00  0.00    -0.243 OA
ATOM     29  N   UNL     1      34.906 -20.238 -20.526  0.00  0.00    -0.184 N 
ATOM     30  N   UNL     1      36.053 -19.504 -20.400  0.00  0.00    -0.042 NA
ATOM     31  N   UNL     1      34.484 -18.175 -21.023  0.00  0.00    -0.182 N 
ATOM     32  N   UNL     1      35.805 -18.294 -20.691  0.00  0.00    -0.042 NA
ATOM     33  C   UNL     1      33.867 -19.412 -20.928  0.00  0.00    +0.365 A 
BRANCH  31  34
ATOM     34  C   UNL     1      33.908 -16.913 -21.400  0.00  0.00    +0.134 C 
ATOM     35  C   UNL     1      34.638 -15.754 -20.753  0.00  0.00    +0.029 C 
ENDBRANCH  31  34
ENDBRANCH  27  29
ENDBRANCH  26  27
ENDBRANCH   1  26
TORSDOF 8
ENDMDL
MODEL 4
REMARK VINA RESULT:      -7.1     11.746     14.787
REMARK  Name = 60728
REMARK  8 active torsions:
REMARK  status: ('A' for Active; 'I' for Inactive)
REMARK    1  A    between atoms: N_1  and  C_26
REMARK    2  A    between atoms: C_2  and  C_8
REMARK    3  A    between atoms: C_2  and  N_15
REMARK    4  A    between atoms: N_15  and  C_18
REMARK    5  A    between atoms: C_16  and  C_24
REMARK    6  A    between atoms: C_26  and  C_27
REMARK    7  A    between atoms: C_27  and  N_29
REMARK    8  A    between atoms: N_31  and  C_34
REMARK                            x       y       z     vdW  Elec       q    Type
REMARK                         _______ _______ _______ _____ _____    ______ ____
ROOT
ATOM      1  N   UNL     1      33.375 -14.886 -23.820  0.00  0.00    +0.388 N 
ATOM      2  C   UNL     1      32.934 -12.039 -23.025  0.00  0.00    +0.079 C 
ATOM      3  C   UNL     1      31.933 -12.882 -23.862  0.00  0.00    -0.000 C 
ATOM      4  C   UNL     1      33.742 -13.065 -22.182  0.00  0.00    -0.000 C 
ATOM      5  C   UNL     1      32.628 -13.969 -24.689  0.00  0.00    -0.075 C 
ATOM      6  C   UNL     1      34.383 -14.173 -23.028  0.00  0.00    -0.075 C 
ATOM      7  H   UNL     1      32.711 -15.309 -23.171  0.00  0.00    -0.080 HD
ENDROOT
BRANCH   2   8
ATOM      8  C   UNL     1      33.788 -11.100 -23.898  0.00  0.00    -0.006 C 
ATOM      9  C   UNL     1      34.296  -9.917 -23.361  0.00  0.00    -0.003 C 
ATOM     10  C   UNL     1      34.052 -11.432 -25.227  0.00  0.00    -0.003 C 
ATOM     11  C   UNL     1      35.070  -9.068 -24.152  0.00  0.00    -0.000 C 
ATOM     12  C   UNL     1      34.826 -10.583 -26.018  0.00  0.00    -0.000 C 
ATOM     13  C   UNL     1      35.334  -9.401 -25.480  0.00  0.00    -0.000 C 
ENDBRANCH   2   8
BRANCH   2  15
ATOM     14  O   UNL     1      31.772 -12.837 -20.433  0.00  0.00    -0.275 OA
ATOM     15  N   UNL     1      32.171 -11.203 -22.100  0.00  0.00    -0.256 N 
ATOM     16  C   UNL     1      31.650 -11.687 -20.865  0.00  0.00    +0.230 C 
BRANCH  15  18
ATOM     17  F   UNL     1      33.113  -9.068 -20.534  0.00  0.00    -0.203 F 
ATOM     18  C   UNL     1      31.932  -9.807 -22.458  0.00  0.00    +0.082 C 
ATOM     19  C   UNL     1      32.421  -8.784 -21.647  0.00  0.00    +0.154 C 
ATOM     20  C   UNL     1      31.214  -9.499 -23.614  0.00  0.00    +0.017 C 
ATOM     21  C   UNL     1      32.193  -7.452 -21.991  0.00  0.00    +0.031 C 
ATOM     22  C   UNL     1      30.987  -8.167 -23.958  0.00  0.00    +0.001 C 
ATOM     23  C   UNL     1      31.476  -7.143 -23.147  0.00  0.00    +0.002 C 
ENDBRANCH  15  18
BRANCH  16  24
ATOM     24  C   UNL     1      30.840 -10.673 -20.062  0.00  0.00    +0.086 C 
ATOM     25  C   UNL     1      31.206 -10.662 -18.585  0.00  0.00    +0.010 C 
ENDBRANCH  16  24
ENDBRANCH   2  15
BRANCH   1  26
ATOM     26  C   UNL     1      33.997 -15.949 -24.609  0.00  0.00    -0.050 C 
BRANCH  26  27
ATOM     27  C   UNL     1      35.267 -16.439 -23.927  0.00  0.00    +0.111 C 
BRANCH  27  29
ATOM     28  O   UNL     1      34.924 -17.011 -21.016  0.00  0.00    -0.243 OA
ATOM     29  N   UNL     1      35.050 -17.695 -23.263  0.00  0.00    -0.184 N 
ATOM     30  N   UNL     1      34.957 -18.909 -23.884  0.00  0.00    -0.042 NA
ATOM     31  N   UNL     1      34.721 -19.228 -21.772  0.00  0.00    -0.182 N 
ATOM     32  N   UNL     1      34.765 -19.809 -23.009  0.00  0.00    -0.042 NA
ATOM     33  C   UNL     1      34.902 -17.859 -21.894  0.00  0.00    +0.365 A 
BRANCH  31  34
ATOM     34  C   UNL     1      34.514 -20.002 -20.578  0.00  0.00    +0.134 C 
ATOM     35  C   UNL     1      33.040 -20.240 -20.321  0.00  0.00    +0.029 C 
ENDBRANCH  31  34
ENDBRANCH  27  29
ENDBRANCH  26  27
ENDBRANCH   1  26
TORSDOF 8
ENDMDL
MODEL 5
REMARK VINA RESULT:      -6.9      3.740      6.001
REMARK  Name = 60728
REMARK  8 active torsions:
REMARK  status: ('A' for Active; 'I' for Inactive)
REMARK    1  A    between atoms: N_1  and  C_26
REMARK    2  A    between atoms: C_2  and  C_8
REMARK    3  A    between atoms: C_2  and  N_15
REMARK    4  A    between atoms: N_15  and  C_18
REMARK    5  A    between atoms: C_16  and  C_24
REMARK    6  A    between atoms: C_26  and  C_27
REMARK    7  A    between atoms: C_27  and  N_29
REMARK    8  A    between atoms: N_31  and  C_34
REMARK                            x       y       z     vdW  Elec       q    Type
REMARK                         _______ _______ _______ _____ _____    ______ ____
ROOT
ATOM      1  N   UNL     1      34.490 -23.201 -17.993  0.00  0.00    +0.388 N 
ATOM      2  C   UNL     1      34.416 -23.912 -15.091  0.00  0.00    +0.079 C 
ATOM      3  C   UNL     1      34.701 -24.923 -16.235  0.00  0.00    -0.000 C 
ATOM      4  C   UNL     1      34.857 -22.526 -15.638  0.00  0.00    -0.000 C 
ATOM      5  C   UNL     1      34.029 -24.522 -17.554  0.00  0.00    -0.075 C 
ATOM      6  C   UNL     1      34.211 -22.173 -16.984  0.00  0.00    -0.075 C 
ATOM      7  H   UNL     1      35.502 -23.250 -18.115  0.00  0.00    -0.080 HD
ENDROOT
BRANCH   2   8
ATOM      8  C   UNL     1      32.960 -23.980 -14.592  0.00  0.00    -0.006 C 
ATOM      9  C   UNL     1      32.456 -25.169 -14.068  0.00  0.00    -0.003 C 
ATOM     10  C   UNL     1      32.144 -22.850 -14.668  0.00  0.00    -0.003 C 
ATOM     11  C   UNL     1      31.138 -25.230 -13.617  0.00  0.00    -0.000 C 
ATOM     12  C   UNL     1      30.825 -22.911 -14.217  0.00  0.00    -0.000 C 
ATOM     13  C   UNL     1      30.323 -24.101 -13.692  0.00  0.00    -0.000 C 
ENDBRANCH   2   8
BRANCH   2  15
ATOM     14  O   UNL     1      33.913 -23.372 -12.234  0.00  0.00    -0.275 OA
ATOM     15  N   UNL     1      35.282 -24.242 -13.960  0.00  0.00    -0.256 N 
ATOM     16  C   UNL     1      34.945 -23.937 -12.609  0.00  0.00    +0.230 C 
BRANCH  15  18
ATOM     17  F   UNL     1      37.650 -22.830 -14.505  0.00  0.00    -0.203 F 
ATOM     18  C   UNL     1      36.549 -24.917 -14.227  0.00  0.00    +0.082 C 
ATOM     19  C   UNL     1      37.697 -24.170 -14.492  0.00  0.00    +0.154 C 
ATOM     20  C   UNL     1      36.611 -26.310 -14.214  0.00  0.00    +0.017 C 
ATOM     21  C   UNL     1      38.907 -24.816 -14.745  0.00  0.00    +0.031 C 
ATOM     22  C   UNL     1      37.821 -26.956 -14.468  0.00  0.00    +0.001 C 
ATOM     23  C   UNL     1      38.968 -26.210 -14.732  0.00  0.00    +0.002 C 
ENDBRANCH  15  18
BRANCH  16  24
ATOM     24  C   UNL     1      36.001 -24.320 -11.577  0.00  0.00    +0.086 C 
ATOM     25  C   UNL     1      36.884 -23.149 -11.174  0.00  0.00    +0.010 C 
ENDBRANCH  16  24
ENDBRANCH   2  15
BRANCH   1  26
ATOM     26  C   UNL     1      33.883 -22.844 -19.275  0.00  0.00    -0.050 C 
BRANCH  26  27
ATOM     27  C   UNL     1      33.475 -21.378 -19.276  0.00  0.00    +0.111 C 
BRANCH  27  29
ATOM     28  O   UNL     1      33.105 -19.251 -21.340  0.00  0.00    -0.243 OA
ATOM     29  N   UNL     1      34.459 -20.564 -19.935  0.00  0.00    -0.184 N 
ATOM     30  N   UNL     1      35.808 -20.627 -19.718  0.00  0.00    -0.042 NA
ATOM     31  N   UNL     1      35.448 -19.113 -21.199  0.00  0.00    -0.182 N 
ATOM     32  N   UNL     1      36.388 -19.775 -20.460  0.00  0.00    -0.042 NA
ATOM     33  C   UNL     1      34.186 -19.594 -20.888  0.00  0.00    +0.365 A 
BRANCH  31  34
ATOM     34  C   UNL     1      35.809 -18.083 -22.135  0.00  0.00    +0.134 C 
ATOM     35  C   UNL     1      35.508 -18.499 -23.561  0.00  0.00    +0.029 C 
ENDBRANCH  31  34
ENDBRANCH  27  29
ENDBRANCH  26  27
ENDBRANCH   1  26
TORSDOF 8
ENDMDL
