MODEL 1
REMARK VINA RESULT:      -6.4      0.000      0.000
REMARK  Name = 76935
REMARK  6 active torsions:
REMARK  status: ('A' for Active; 'I' for Inactive)
REMARK    1  A    between atoms: C_2  and  O_7
REMARK    2  A    between atoms: C_3  and  O_9
REMARK    3  A    between atoms: C_4  and  C_15
REMARK    4  A    between atoms: C_5  and  O_11
REMARK    5  A    between atoms: C_6  and  O_13
REMARK    6  A    between atoms: C_15  and  O_16
REMARK                            x       y       z     vdW  Elec       q    Type
REMARK                         _______ _______ _______ _____ _____    ______ ____
ROOT
ATOM      1  O   UNL     1      37.909 -23.524 -13.866  0.00  0.00    -0.326 OA
ATOM      2  C   UNL     1      36.841 -25.239 -12.489  0.00  0.00    +0.169 C 
ATOM      3  C   UNL     1      36.676 -26.122 -13.730  0.00  0.00    +0.172 C 
ATOM      4  C   UNL     1      36.880 -23.758 -12.892  0.00  0.00    +0.176 C 
ATOM      5  C   UNL     1      37.745 -25.779 -14.767  0.00  0.00    +0.196 C 
ATOM      6  C   UNL     1      37.742 -24.278 -15.070  0.00  0.00    +0.266 C 
ENDROOT
BRANCH   2   7
ATOM      7  O   UNL     1      38.063 -25.570 -11.825  0.00  0.00    -0.379 OA
ATOM      8  H   UNL     1      38.020 -25.269 -10.904  0.00  0.00    +0.211 HD
ENDBRANCH   2   7
BRANCH   3   9
ATOM      9  O   UNL     1      36.795 -27.496 -13.370  0.00  0.00    -0.379 OA
ATOM     10  H   UNL     1      37.670 -27.823 -13.627  0.00  0.00    +0.211 HD
ENDBRANCH   3   9
BRANCH   5  11
ATOM     11  O   UNL     1      37.515 -26.502 -15.972  0.00  0.00    -0.378 OA
ATOM     12  H   UNL     1      37.287 -27.420 -15.759  0.00  0.00    +0.211 HD
ENDBRANCH   5  11
BRANCH   6  13
ATOM     13  O   UNL     1      36.545 -23.918 -15.759  0.00  0.00    -0.326 OA
ATOM     14  C   UNL     1      36.642 -22.617 -16.317  0.00  0.00    +0.177 C 
ENDBRANCH   6  13
BRANCH   4  15
ATOM     15  C   UNL     1      37.162 -22.841 -11.707  0.00  0.00    +0.169 C 
BRANCH  15  16
ATOM     16  O   UNL     1      38.564 -22.686 -11.580  0.00  0.00    -0.379 OA
ATOM     17  H   UNL     1      38.767 -22.257 -10.734  0.00  0.00    +0.211 HD
ENDBRANCH  15  16
ENDBRANCH   4  15
TORSDOF 6
ENDMDL
MODEL 2
REMARK VINA RESULT:      -6.2      2.003      3.199
REMARK  Name = 76935
REMARK  6 active torsions:
REMARK  status: ('A' for Active; 'I' for Inactive)
REMARK    1  A    between atoms: C_2  and  O_7
REMARK    2  A    between atoms: C_3  and  O_9
REMARK    3  A    between atoms: C_4  and  C_15
REMARK    4  A    between atoms: C_5  and  O_11
REMARK    5  A    between atoms: C_6  and  O_13
REMARK    6  A    between atoms: C_15  and  O_16
REMARK                            x       y       z     vdW  Elec       q    Type
REMARK                         _______ _______ _______ _____ _____    ______ ____
ROOT
ATOM      1  O   UNL     1      36.675 -25.115 -14.543  0.00  0.00    -0.326 OA
ATOM      2  C   UNL     1      37.208 -25.264 -12.162  0.00  0.00    +0.169 C 
ATOM      3  C   UNL     1      35.973 -24.417 -11.840  0.00  0.00    +0.172 C 
ATOM      4  C   UNL     1      37.720 -24.943 -13.573  0.00  0.00    +0.176 C 
ATOM      5  C   UNL     1      34.925 -24.573 -12.941  0.00  0.00    +0.196 C 
ATOM      6  C   UNL     1      35.536 -24.280 -14.314  0.00  0.00    +0.266 C 
ENDROOT
BRANCH   2   7
ATOM      7  O   UNL     1      36.867 -26.651 -12.098  0.00  0.00    -0.379 OA
ATOM      8  H   UNL     1      36.266 -26.802 -11.352  0.00  0.00    +0.211 HD
ENDBRANCH   2   7
BRANCH   3   9
ATOM      9  O   UNL     1      35.412 -24.827 -10.596  0.00  0.00    -0.379 OA
ATOM     10  H   UNL     1      35.925 -24.444  -9.868  0.00  0.00    +0.211 HD
ENDBRANCH   3   9
BRANCH   5  11
ATOM     11  O   UNL     1      33.834 -23.687 -12.714  0.00  0.00    -0.378 OA
ATOM     12  H   UNL     1      33.169 -24.128 -12.162  0.00  0.00    +0.211 HD
ENDBRANCH   5  11
BRANCH   6  13
ATOM     13  O   UNL     1      35.864 -22.895 -14.421  0.00  0.00    -0.326 OA
ATOM     14  C   UNL     1      36.026 -22.507 -15.777  0.00  0.00    +0.177 C 
ENDBRANCH   6  13
BRANCH   4  15
ATOM     15  C   UNL     1      38.877 -25.844 -13.990  0.00  0.00    +0.169 C 
BRANCH  15  16
ATOM     16  O   UNL     1      38.348 -26.987 -14.637  0.00  0.00    -0.379 OA
ATOM     17  H   UNL     1      38.679 -27.026 -15.548  0.00  0.00    +0.211 HD
ENDBRANCH  15  16
ENDBRANCH   4  15
TORSDOF 6
ENDMDL
MODEL 3
REMARK VINA RESULT:      -6.1      1.866      2.958
REMARK  Name = 76935
REMARK  6 active torsions:
REMARK  status: ('A' for Active; 'I' for Inactive)
REMARK    1  A    between atoms: C_2  and  O_7
REMARK    2  A    between atoms: C_3  and  O_9
REMARK    3  A    between atoms: C_4  and  C_15
REMARK    4  A    between atoms: C_5  and  O_11
REMARK    5  A    between atoms: C_6  and  O_13
REMARK    6  A    between atoms: C_15  and  O_16
REMARK                            x       y       z     vdW  Elec       q    Type
REMARK                         _______ _______ _______ _____ _____    ______ ____
ROOT
ATOM      1  O   UNL     1      37.203 -25.568 -12.200  0.00  0.00    -0.326 OA
ATOM      2  C   UNL     1      35.605 -24.153 -13.393  0.00  0.00    +0.169 C 
ATOM      3  C   UNL     1      36.225 -24.588 -14.724  0.00  0.00    +0.172 C 
ATOM      4  C   UNL     1      36.644 -24.247 -12.267  0.00  0.00    +0.176 C 
ATOM      5  C   UNL     1      36.876 -25.964 -14.579  0.00  0.00    +0.196 C 
ATOM      6  C   UNL     1      37.858 -25.976 -13.405  0.00  0.00    +0.266 C 
ENDROOT
BRANCH   2   7
ATOM      7  O   UNL     1      34.503 -25.008 -13.077  0.00  0.00    -0.379 OA
ATOM      8  H   UNL     1      34.290 -25.558 -13.847  0.00  0.00    +0.211 HD
ENDBRANCH   2   7
BRANCH   3   9
ATOM      9  O   UNL     1      35.221 -24.647 -15.734  0.00  0.00    -0.379 OA
ATOM     10  H   UNL     1      34.546 -25.294 -15.480  0.00  0.00    +0.211 HD
ENDBRANCH   3   9
BRANCH   5  11
ATOM     11  O   UNL     1      37.567 -26.312 -15.774  0.00  0.00    -0.378 OA
ATOM     12  H   UNL     1      37.130 -27.070 -16.191  0.00  0.00    +0.211 HD
ENDBRANCH   5  11
BRANCH   6  13
ATOM     13  O   UNL     1      38.986 -25.152 -13.699  0.00  0.00    -0.326 OA
ATOM     14  C   UNL     1      40.150 -25.933 -13.923  0.00  0.00    +0.177 C 
ENDBRANCH   6  13
BRANCH   4  15
ATOM     15  C   UNL     1      36.046 -23.939 -10.898  0.00  0.00    +0.169 C 
BRANCH  15  16
ATOM     16  O   UNL     1      35.351 -25.086 -10.442  0.00  0.00    -0.379 OA
ATOM     17  H   UNL     1      35.951 -25.849 -10.439  0.00  0.00    +0.211 HD
ENDBRANCH  15  16
ENDBRANCH   4  15
TORSDOF 6
ENDMDL
MODEL 4
REMARK VINA RESULT:      -6.0      1.932      2.309
REMARK  Name = 76935
REMARK  6 active torsions:
REMARK  status: ('A' for Active; 'I' for Inactive)
REMARK    1  A    between atoms: C_2  and  O_7
REMARK    2  A    between atoms: C_3  and  O_9
REMARK    3  A    between atoms: C_4  and  C_15
REMARK    4  A    between atoms: C_5  and  O_11
REMARK    5  A    between atoms: C_6  and  O_13
REMARK    6  A    between atoms: C_15  and  O_16
REMARK                            x       y       z     vdW  Elec       q    Type
REMARK                         _______ _______ _______ _____ _____    ______ ____
ROOT
ATOM      1  O   UNL     1      36.101 -23.255 -14.101  0.00  0.00    -0.326 OA
ATOM      2  C   UNL     1      36.055 -25.699 -14.131  0.00  0.00    +0.169 C 
ATOM      3  C   UNL     1      37.351 -25.706 -14.947  0.00  0.00    +0.172 C 
ATOM      4  C   UNL     1      35.278 -24.399 -14.378  0.00  0.00    +0.176 C 
ATOM      5  C   UNL     1      38.152 -24.432 -14.676  0.00  0.00    +0.196 C 
ATOM      6  C   UNL     1      37.285 -23.191 -14.902  0.00  0.00    +0.266 C 
ENDROOT
BRANCH   2   7
ATOM      7  O   UNL     1      36.365 -25.795 -12.739  0.00  0.00    -0.379 OA
ATOM      8  H   UNL     1      36.391 -24.905 -12.352  0.00  0.00    +0.211 HD
ENDBRANCH   2   7
BRANCH   3   9
ATOM      9  O   UNL     1      38.141 -26.840 -14.598  0.00  0.00    -0.379 OA
ATOM     10  H   UNL     1      37.749 -27.283 -13.830  0.00  0.00    +0.211 HD
ENDBRANCH   3   9
BRANCH   5  11
ATOM     11  O   UNL     1      39.289 -24.373 -15.531  0.00  0.00    -0.378 OA
ATOM     12  H   UNL     1      39.690 -23.492 -15.474  0.00  0.00    +0.211 HD
ENDBRANCH   5  11
BRANCH   6  13
ATOM     13  O   UNL     1      36.979 -23.051 -16.289  0.00  0.00    -0.326 OA
ATOM     14  C   UNL     1      37.119 -21.704 -16.714  0.00  0.00    +0.177 C 
ENDBRANCH   6  13
BRANCH   4  15
ATOM     15  C   UNL     1      34.038 -24.287 -13.499  0.00  0.00    +0.169 C 
BRANCH  15  16
ATOM     16  O   UNL     1      34.392 -23.619 -12.302  0.00  0.00    -0.379 OA
ATOM     17  H   UNL     1      34.541 -22.678 -12.489  0.00  0.00    +0.211 HD
ENDBRANCH  15  16
ENDBRANCH   4  15
TORSDOF 6
ENDMDL
MODEL 5
REMARK VINA RESULT:      -6.0      1.686      2.039
REMARK  Name = 76935
REMARK  6 active torsions:
REMARK  status: ('A' for Active; 'I' for Inactive)
REMARK    1  A    between atoms: C_2  and  O_7
REMARK    2  A    between atoms: C_3  and  O_9
REMARK    3  A    between atoms: C_4  and  C_15
REMARK    4  A    between atoms: C_5  and  O_11
REMARK    5  A    between atoms: C_6  and  O_13
REMARK    6  A    between atoms: C_15  and  O_16
REMARK                            x       y       z     vdW  Elec       q    Type
REMARK                         _______ _______ _______ _____ _____    ______ ____
ROOT
ATOM      1  O   UNL     1      36.329 -23.233 -13.359  0.00  0.00    -0.326 OA
ATOM      2  C   UNL     1      37.218 -25.329 -12.467  0.00  0.00    +0.169 C 
ATOM      3  C   UNL     1      38.069 -25.497 -13.729  0.00  0.00    +0.172 C 
ATOM      4  C   UNL     1      35.967 -24.494 -12.776  0.00  0.00    +0.176 C 
ATOM      5  C   UNL     1      38.360 -24.133 -14.355  0.00  0.00    +0.196 C 
ATOM      6  C   UNL     1      37.061 -23.355 -14.583  0.00  0.00    +0.266 C 
ENDROOT
BRANCH   2   7
ATOM      7  O   UNL     1      37.982 -24.660 -11.460  0.00  0.00    -0.379 OA
ATOM      8  H   UNL     1      37.919 -25.153 -10.627  0.00  0.00    +0.211 HD
ENDBRANCH   2   7
BRANCH   3   9
ATOM      9  O   UNL     1      39.300 -26.137 -13.405  0.00  0.00    -0.379 OA
ATOM     10  H   UNL     1      39.693 -25.708 -12.629  0.00  0.00    +0.211 HD
ENDBRANCH   3   9
BRANCH   5  11
ATOM     11  O   UNL     1      39.036 -24.293 -15.598  0.00  0.00    -0.378 OA
ATOM     12  H   UNL     1      38.385 -24.406 -16.307  0.00  0.00    +0.211 HD
ENDBRANCH   5  11
BRANCH   6  13
ATOM     13  O   UNL     1      36.285 -23.982 -15.604  0.00  0.00    -0.326 OA
ATOM     14  C   UNL     1      35.319 -23.090 -16.139  0.00  0.00    +0.177 C 
ENDBRANCH   6  13
BRANCH   4  15
ATOM     15  C   UNL     1      35.145 -24.196 -11.527  0.00  0.00    +0.169 C 
BRANCH  15  16
ATOM     16  O   UNL     1      35.320 -25.259 -10.608  0.00  0.00    -0.379 OA
ATOM     17  H   UNL     1      35.503 -26.079 -11.092  0.00  0.00    +0.211 HD
ENDBRANCH  15  16
ENDBRANCH   4  15
TORSDOF 6
ENDMDL
MODEL 6
REMARK VINA RESULT:      -5.9      1.807      2.921
REMARK  Name = 76935
REMARK  6 active torsions:
REMARK  status: ('A' for Active; 'I' for Inactive)
REMARK    1  A    between atoms: C_2  and  O_7
REMARK    2  A    between atoms: C_3  and  O_9
REMARK    3  A    between atoms: C_4  and  C_15
REMARK    4  A    between atoms: C_5  and  O_11
REMARK    5  A    between atoms: C_6  and  O_13
REMARK    6  A    between atoms: C_15  and  O_16
REMARK                            x       y       z     vdW  Elec       q    Type
REMARK                         _______ _______ _______ _____ _____    ______ ____
ROOT
ATOM      1  O   UNL     1      35.322 -23.195 -14.005  0.00  0.00    -0.326 OA
ATOM      2  C   UNL     1      37.409 -24.451 -13.803  0.00  0.00    +0.169 C 
ATOM      3  C   UNL     1      37.728 -24.144 -15.269  0.00  0.00    +0.172 C 
ATOM      4  C   UNL     1      35.891 -24.441 -13.575  0.00  0.00    +0.176 C 
ATOM      5  C   UNL     1      37.034 -22.851 -15.700  0.00  0.00    +0.196 C 
ATOM      6  C   UNL     1      35.536 -22.913 -15.392  0.00  0.00    +0.266 C 
ENDROOT
BRANCH   2   7
ATOM      7  O   UNL     1      38.009 -23.460 -12.965  0.00  0.00    -0.379 OA
ATOM      8  H   UNL     1      38.501 -23.895 -12.252  0.00  0.00    +0.211 HD
ENDBRANCH   2   7
BRANCH   3   9
ATOM      9  O   UNL     1      39.135 -24.002 -15.443  0.00  0.00    -0.379 OA
ATOM     10  H   UNL     1      39.460 -23.284 -14.878  0.00  0.00    +0.211 HD
ENDBRANCH   3   9
BRANCH   5  11
ATOM     11  O   UNL     1      37.219 -22.633 -17.095  0.00  0.00    -0.378 OA
ATOM     12  H   UNL     1      36.522 -23.093 -17.589  0.00  0.00    +0.211 HD
ENDBRANCH   5  11
BRANCH   6  13
ATOM     13  O   UNL     1      34.901 -23.876 -16.232  0.00  0.00    -0.326 OA
ATOM     14  C   UNL     1      33.727 -23.346 -16.828  0.00  0.00    +0.177 C 
ENDBRANCH   6  13
BRANCH   4  15
ATOM     15  C   UNL     1      35.523 -24.623 -12.107  0.00  0.00    +0.169 C 
BRANCH  15  16
ATOM     16  O   UNL     1      36.399 -25.580 -11.538  0.00  0.00    -0.379 OA
ATOM     17  H   UNL     1      36.590 -26.273 -12.191  0.00  0.00    +0.211 HD
ENDBRANCH  15  16
ENDBRANCH   4  15
TORSDOF 6
ENDMDL
MODEL 7
REMARK VINA RESULT:      -5.9      1.287      3.522
REMARK  Name = 76935
REMARK  6 active torsions:
REMARK  status: ('A' for Active; 'I' for Inactive)
REMARK    1  A    between atoms: C_2  and  O_7
REMARK    2  A    between atoms: C_3  and  O_9
REMARK    3  A    between atoms: C_4  and  C_15
REMARK    4  A    between atoms: C_5  and  O_11
REMARK    5  A    between atoms: C_6  and  O_13
REMARK    6  A    between atoms: C_15  and  O_16
REMARK                            x       y       z     vdW  Elec       q    Type
REMARK                         _______ _______ _______ _____ _____    ______ ____
ROOT
ATOM      1  O   UNL     1      36.398 -24.918 -14.815  0.00  0.00    -0.326 OA
ATOM      2  C   UNL     1      37.766 -25.919 -13.054  0.00  0.00    +0.169 C 
ATOM      3  C   UNL     1      38.178 -24.519 -12.589  0.00  0.00    +0.172 C 
ATOM      4  C   UNL     1      37.410 -25.900 -14.547  0.00  0.00    +0.176 C 
ATOM      5  C   UNL     1      37.104 -23.499 -12.968  0.00  0.00    +0.196 C 
ATOM      6  C   UNL     1      36.782 -23.586 -14.463  0.00  0.00    +0.266 C 
ENDROOT
BRANCH   2   7
ATOM      7  O   UNL     1      36.623 -26.352 -12.312  0.00  0.00    -0.379 OA
ATOM      8  H   UNL     1      35.816 -26.054 -12.760  0.00  0.00    +0.211 HD
ENDBRANCH   2   7
BRANCH   3   9
ATOM      9  O   UNL     1      38.358 -24.508 -11.175  0.00  0.00    -0.379 OA
ATOM     10  H   UNL     1      37.686 -25.070 -10.760  0.00  0.00    +0.211 HD
ENDBRANCH   3   9
BRANCH   5  11
ATOM     11  O   UNL     1      37.543 -22.181 -12.658  0.00  0.00    -0.378 OA
ATOM     12  H   UNL     1      38.512 -22.159 -12.642  0.00  0.00    +0.211 HD
ENDBRANCH   5  11
BRANCH   6  13
ATOM     13  O   UNL     1      37.895 -23.134 -15.233  0.00  0.00    -0.326 OA
ATOM     14  C   UNL     1      37.484 -22.247 -16.262  0.00  0.00    +0.177 C 
ENDBRANCH   6  13
BRANCH   4  15
ATOM     15  C   UNL     1      36.879 -27.244 -15.034  0.00  0.00    +0.169 C 
BRANCH  15  16
ATOM     16  O   UNL     1      36.821 -27.220 -16.449  0.00  0.00    -0.379 OA
ATOM     17  H   UNL     1      36.735 -28.126 -16.785  0.00  0.00    +0.211 HD
ENDBRANCH  15  16
ENDBRANCH   4  15
TORSDOF 6
ENDMDL
MODEL 8
REMARK VINA RESULT:      -5.9      1.891      3.528
REMARK  Name = 76935
REMARK  6 active torsions:
REMARK  status: ('A' for Active; 'I' for Inactive)
REMARK    1  A    between atoms: C_2  and  O_7
REMARK    2  A    between atoms: C_3  and  O_9
REMARK    3  A    between atoms: C_4  and  C_15
REMARK    4  A    between atoms: C_5  and  O_11
REMARK    5  A    between atoms: C_6  and  O_13
REMARK    6  A    between atoms: C_15  and  O_16
REMARK                            x       y       z     vdW  Elec       q    Type
REMARK                         _______ _______ _______ _____ _____    ______ ____
ROOT
ATOM      1  O   UNL     1      38.564 -24.221 -13.477  0.00  0.00    -0.326 OA
ATOM      2  C   UNL     1      38.273 -26.471 -14.387  0.00  0.00    +0.169 C 
ATOM      3  C   UNL     1      36.805 -26.450 -13.949  0.00  0.00    +0.172 C 
ATOM      4  C   UNL     1      39.109 -25.549 -13.489  0.00  0.00    +0.176 C 
ATOM      5  C   UNL     1      36.297 -25.010 -13.875  0.00  0.00    +0.196 C 
ATOM      6  C   UNL     1      37.217 -24.157 -12.999  0.00  0.00    +0.266 C 
ENDROOT
BRANCH   2   7
ATOM      7  O   UNL     1      38.375 -26.015 -15.739  0.00  0.00    -0.379 OA
ATOM      8  H   UNL     1      37.491 -25.986 -16.137  0.00  0.00    +0.211 HD
ENDBRANCH   2   7
BRANCH   3   9
ATOM      9  O   UNL     1      36.009 -27.183 -14.876  0.00  0.00    -0.379 OA
ATOM     10  H   UNL     1      35.071 -27.039 -14.681  0.00  0.00    +0.211 HD
ENDBRANCH   3   9
BRANCH   5  11
ATOM     11  O   UNL     1      34.977 -24.979 -13.341  0.00  0.00    -0.378 OA
ATOM     12  H   UNL     1      34.403 -24.466 -13.929  0.00  0.00    +0.211 HD
ENDBRANCH   5  11
BRANCH   6  13
ATOM     13  O   UNL     1      37.118 -24.568 -11.636  0.00  0.00    -0.326 OA
ATOM     14  C   UNL     1      36.620 -23.522 -10.816  0.00  0.00    +0.177 C 
ENDBRANCH   6  13
BRANCH   4  15
ATOM     15  C   UNL     1      40.556 -25.440 -13.956  0.00  0.00    +0.169 C 
BRANCH  15  16
ATOM     16  O   UNL     1      40.918 -26.654 -14.588  0.00  0.00    -0.379 OA
ATOM     17  H   UNL     1      40.121 -27.098 -14.917  0.00  0.00    +0.211 HD
ENDBRANCH  15  16
ENDBRANCH   4  15
TORSDOF 6
ENDMDL
MODEL 9
REMARK VINA RESULT:      -5.8      9.073     11.938
REMARK  Name = 76935
REMARK  6 active torsions:
REMARK  status: ('A' for Active; 'I' for Inactive)
REMARK    1  A    between atoms: C_2  and  O_7
REMARK    2  A    between atoms: C_3  and  O_9
REMARK    3  A    between atoms: C_4  and  C_15
REMARK    4  A    between atoms: C_5  and  O_11
REMARK    5  A    between atoms: C_6  and  O_13
REMARK    6  A    between atoms: C_15  and  O_16
REMARK                            x       y       z     vdW  Elec       q    Type
REMARK                         _______ _______ _______ _____ _____    ______ ____
ROOT
ATOM      1  O   UNL     1      35.048 -17.271 -20.782  0.00  0.00    -0.326 OA
ATOM      2  C   UNL     1      35.135 -18.299 -22.998  0.00  0.00    +0.169 C 
ATOM      3  C   UNL     1      34.649 -16.986 -23.618  0.00  0.00    +0.172 C 
ATOM      4  C   UNL     1      34.644 -18.416 -21.548  0.00  0.00    +0.176 C 
ATOM      5  C   UNL     1      35.034 -15.806 -22.725  0.00  0.00    +0.196 C 
ATOM      6  C   UNL     1      34.546 -16.033 -21.292  0.00  0.00    +0.266 C 
ENDROOT
BRANCH   2   7
ATOM      7  O   UNL     1      36.564 -18.332 -23.006  0.00  0.00    -0.379 OA
ATOM      8  H   UNL     1      36.897 -18.117 -22.120  0.00  0.00    +0.211 HD
ENDBRANCH   2   7
BRANCH   3   9
ATOM      9  O   UNL     1      35.233 -16.810 -24.907  0.00  0.00    -0.379 OA
ATOM     10  H   UNL     1      34.928 -15.972 -25.287  0.00  0.00    +0.211 HD
ENDBRANCH   3   9
BRANCH   5  11
ATOM     11  O   UNL     1      34.470 -14.600 -23.229  0.00  0.00    -0.378 OA
ATOM     12  H   UNL     1      34.833 -14.417 -24.109  0.00  0.00    +0.211 HD
ENDBRANCH   5  11
BRANCH   6  13
ATOM     13  O   UNL     1      33.121 -15.978 -21.244  0.00  0.00    -0.326 OA
ATOM     14  C   UNL     1      32.672 -15.076 -20.243  0.00  0.00    +0.177 C 
ENDBRANCH   6  13
BRANCH   4  15
ATOM     15  C   UNL     1      35.199 -19.650 -20.845  0.00  0.00    +0.169 C 
BRANCH  15  16
ATOM     16  O   UNL     1      36.464 -19.326 -20.297  0.00  0.00    -0.379 OA
ATOM     17  H   UNL     1      37.042 -20.105 -20.333  0.00  0.00    +0.211 HD
ENDBRANCH  15  16
ENDBRANCH   4  15
TORSDOF 6
ENDMDL
