MODEL 1
REMARK VINA RESULT:     -12.5      0.000      0.000
REMARK  Name = 9998128
REMARK  2 active torsions:
REMARK  status: ('A' for Active; 'I' for Inactive)
REMARK    1  A    between atoms: N_1  and  C_15
REMARK    2  A    between atoms: C_7  and  C_24
REMARK                            x       y       z     vdW  Elec       q    Type
REMARK                         _______ _______ _______ _____ _____    ______ ____
ROOT
ATOM      1  N   UNL     1      33.697 -24.842 -14.717  0.00  0.00    -0.290 N 
ATOM      2  N   UNL     1      33.679 -23.445 -16.611  0.00  0.00    -0.327 NA
ATOM      3  N   UNL     1      31.604 -22.589 -17.487  0.00  0.00    -0.342 NA
ATOM      4  C   UNL     1      31.579 -24.010 -15.556  0.00  0.00    +0.143 C 
ATOM      5  C   UNL     1      32.966 -24.076 -15.659  0.00  0.00    +0.184 C 
ATOM      6  C   UNL     1      30.922 -23.231 -16.522  0.00  0.00    +0.133 C 
ATOM      7  C   UNL     1      32.945 -22.731 -17.479  0.00  0.00    +0.165 C 
ATOM      8  C   UNL     1      30.856 -24.678 -14.551  0.00  0.00    -0.011 C 
ATOM      9  C   UNL     1      29.534 -23.142 -16.452  0.00  0.00    +0.029 C 
ATOM     10  C   UNL     1      29.470 -24.571 -14.504  0.00  0.00    -0.004 C 
ATOM     11  C   UNL     1      28.808 -23.802 -15.456  0.00  0.00    +0.002 C 
ATOM     12  H   UNL     1      33.200 -25.616 -14.363  0.00  0.00    +0.154 HD
ENDROOT
BRANCH   1  15
ATOM     13  N   UNL     1      38.681 -24.132 -12.484  0.00  0.00    -0.236 N 
ATOM     14  N   UNL     1      38.491 -23.172 -11.563  0.00  0.00    -0.180 NA
ATOM     15  C   UNL     1      34.992 -24.714 -14.193  0.00  0.00    +0.050 C 
ATOM     16  C   UNL     1      36.545 -23.668 -12.659  0.00  0.00    +0.037 C 
ATOM     17  C   UNL     1      37.552 -24.476 -13.176  0.00  0.00    +0.067 C 
ATOM     18  C   UNL     1      35.241 -23.783 -13.170  0.00  0.00    +0.018 C 
ATOM     19  C   UNL     1      36.031 -25.511 -14.691  0.00  0.00    +0.016 C 
ATOM     20  C   UNL     1      37.334 -25.409 -14.193  0.00  0.00    +0.017 C 
ATOM     21  C   UNL     1      37.190 -22.893 -11.673  0.00  0.00    +0.119 C 
ATOM     22  H   UNL     1      39.557 -24.551 -12.645  0.00  0.00    +0.174 HD
ENDBRANCH   1  15
BRANCH   7  24
ATOM     23  N   UNL     1      32.928 -21.192 -19.264  0.00  0.00    -0.398 NA
ATOM     24  C   UNL     1      33.668 -22.041 -18.515  0.00  0.00    +0.197 C 
ATOM     25  C   UNL     1      35.026 -22.253 -18.706  0.00  0.00    +0.098 C 
ATOM     26  C   UNL     1      33.578 -20.528 -20.246  0.00  0.00    +0.110 C 
ATOM     27  C   UNL     1      35.660 -21.553 -19.725  0.00  0.00    -0.016 C 
ATOM     28  C   UNL     1      34.930 -20.672 -20.515  0.00  0.00    +0.023 C 
ATOM     29  C   UNL     1      32.764 -19.592 -21.074  0.00  0.00    +0.066 C 
ENDBRANCH   7  24
TORSDOF 2
ENDMDL
MODEL 2
REMARK VINA RESULT:     -11.8      1.868      5.956
REMARK  Name = 9998128
REMARK  2 active torsions:
REMARK  status: ('A' for Active; 'I' for Inactive)
REMARK    1  A    between atoms: N_1  and  C_15
REMARK    2  A    between atoms: C_7  and  C_24
REMARK                            x       y       z     vdW  Elec       q    Type
REMARK                         _______ _______ _______ _____ _____    ______ ____
ROOT
ATOM      1  N   UNL     1      33.322 -23.796 -13.998  0.00  0.00    -0.290 N 
ATOM      2  N   UNL     1      34.472 -22.968 -15.877  0.00  0.00    -0.327 NA
ATOM      3  N   UNL     1      36.862 -23.217 -16.063  0.00  0.00    -0.342 NA
ATOM      4  C   UNL     1      35.728 -24.074 -14.132  0.00  0.00    +0.143 C 
ATOM      5  C   UNL     1      34.542 -23.605 -14.692  0.00  0.00    +0.184 C 
ATOM      6  C   UNL     1      36.896 -23.849 -14.876  0.00  0.00    +0.133 C 
ATOM      7  C   UNL     1      35.652 -22.810 -16.498  0.00  0.00    +0.165 C 
ATOM      8  C   UNL     1      35.775 -24.736 -12.892  0.00  0.00    -0.011 C 
ATOM      9  C   UNL     1      38.102 -24.304 -14.348  0.00  0.00    +0.029 C 
ATOM     10  C   UNL     1      36.993 -25.180 -12.388  0.00  0.00    -0.004 C 
ATOM     11  C   UNL     1      38.158 -24.963 -13.116  0.00  0.00    +0.002 C 
ATOM     12  H   UNL     1      33.421 -23.814 -13.018  0.00  0.00    +0.154 HD
ENDROOT
BRANCH   1  15
ATOM     13  N   UNL     1      28.148 -24.196 -15.843  0.00  0.00    -0.236 N 
ATOM     14  N   UNL     1      27.953 -23.050 -16.516  0.00  0.00    -0.180 NA
ATOM     15  C   UNL     1      31.999 -23.964 -14.437  0.00  0.00    +0.050 C 
ATOM     16  C   UNL     1      30.060 -23.145 -15.630  0.00  0.00    +0.037 C 
ATOM     17  C   UNL     1      29.392 -24.315 -15.288  0.00  0.00    +0.067 C 
ATOM     18  C   UNL     1      31.385 -22.958 -15.202  0.00  0.00    +0.018 C 
ATOM     19  C   UNL     1      31.297 -25.131 -14.109  0.00  0.00    +0.016 C 
ATOM     20  C   UNL     1      29.977 -25.332 -14.528  0.00  0.00    +0.017 C 
ATOM     21  C   UNL     1      29.119 -22.413 -16.384  0.00  0.00    +0.119 C 
ATOM     22  H   UNL     1      27.455 -24.890 -15.759  0.00  0.00    +0.174 HD
ENDBRANCH   1  15
BRANCH   7  24
ATOM     23  N   UNL     1      34.392 -21.975 -18.307  0.00  0.00    -0.398 NA
ATOM     24  C   UNL     1      35.623 -22.134 -17.769  0.00  0.00    +0.197 C 
ATOM     25  C   UNL     1      36.791 -21.691 -18.372  0.00  0.00    +0.098 C 
ATOM     26  C   UNL     1      34.331 -21.343 -19.500  0.00  0.00    +0.110 C 
ATOM     27  C   UNL     1      36.689 -21.046 -19.599  0.00  0.00    -0.016 C 
ATOM     28  C   UNL     1      35.439 -20.864 -20.182  0.00  0.00    +0.023 C 
ATOM     29  C   UNL     1      32.974 -21.167 -20.096  0.00  0.00    +0.066 C 
ENDBRANCH   7  24
TORSDOF 2
ENDMDL
MODEL 3
REMARK VINA RESULT:     -11.7      1.318      4.793
REMARK  Name = 9998128
REMARK  2 active torsions:
REMARK  status: ('A' for Active; 'I' for Inactive)
REMARK    1  A    between atoms: N_1  and  C_15
REMARK    2  A    between atoms: C_7  and  C_24
REMARK                            x       y       z     vdW  Elec       q    Type
REMARK                         _______ _______ _______ _____ _____    ______ ____
ROOT
ATOM      1  N   UNL     1      35.915 -22.888 -16.271  0.00  0.00    -0.290 N 
ATOM      2  N   UNL     1      33.575 -23.117 -16.354  0.00  0.00    -0.327 NA
ATOM      3  N   UNL     1      32.329 -22.321 -18.257  0.00  0.00    -0.342 NA
ATOM      4  C   UNL     1      34.713 -22.068 -18.211  0.00  0.00    +0.143 C 
ATOM      5  C   UNL     1      34.695 -22.686 -16.963  0.00  0.00    +0.184 C 
ATOM      6  C   UNL     1      33.468 -21.903 -18.838  0.00  0.00    +0.133 C 
ATOM      7  C   UNL     1      32.444 -22.905 -17.047  0.00  0.00    +0.165 C 
ATOM      8  C   UNL     1      35.897 -21.627 -18.827  0.00  0.00    -0.011 C 
ATOM      9  C   UNL     1      33.444 -21.288 -20.087  0.00  0.00    +0.029 C 
ATOM     10  C   UNL     1      35.846 -21.016 -20.076  0.00  0.00    -0.004 C 
ATOM     11  C   UNL     1      34.617 -20.846 -20.707  0.00  0.00    +0.002 C 
ATOM     12  H   UNL     1      36.600 -22.207 -16.465  0.00  0.00    +0.154 HD
ENDROOT
BRANCH   1  15
ATOM     13  N   UNL     1      37.688 -26.536 -12.544  0.00  0.00    -0.236 N 
ATOM     14  N   UNL     1      38.317 -25.783 -11.625  0.00  0.00    -0.180 NA
ATOM     15  C   UNL     1      36.336 -23.871 -15.361  0.00  0.00    +0.050 C 
ATOM     16  C   UNL     1      37.470 -24.495 -13.317  0.00  0.00    +0.037 C 
ATOM     17  C   UNL     1      37.158 -25.823 -13.585  0.00  0.00    +0.067 C 
ATOM     18  C   UNL     1      37.056 -23.497 -14.214  0.00  0.00    +0.018 C 
ATOM     19  C   UNL     1      36.040 -25.219 -15.601  0.00  0.00    +0.016 C 
ATOM     20  C   UNL     1      36.444 -26.224 -14.717  0.00  0.00    +0.017 C 
ATOM     21  C   UNL     1      38.181 -24.542 -12.099  0.00  0.00    +0.119 C 
ATOM     22  H   UNL     1      37.616 -27.515 -12.473  0.00  0.00    +0.174 HD
ENDBRANCH   1  15
BRANCH   7  24
ATOM     23  N   UNL     1      30.099 -22.739 -16.875  0.00  0.00    -0.398 NA
ATOM     24  C   UNL     1      31.221 -23.351 -16.432  0.00  0.00    +0.197 C 
ATOM     25  C   UNL     1      31.227 -24.338 -15.457  0.00  0.00    +0.098 C 
ATOM     26  C   UNL     1      28.934 -23.135 -16.316  0.00  0.00    +0.110 C 
ATOM     27  C   UNL     1      30.010 -24.719 -14.905  0.00  0.00    -0.016 C 
ATOM     28  C   UNL     1      28.835 -24.111 -15.338  0.00  0.00    +0.023 C 
ATOM     29  C   UNL     1      27.695 -22.461 -16.804  0.00  0.00    +0.066 C 
ENDBRANCH   7  24
TORSDOF 2
ENDMDL
MODEL 4
REMARK VINA RESULT:     -11.4      1.970      6.996
REMARK  Name = 9998128
REMARK  2 active torsions:
REMARK  status: ('A' for Active; 'I' for Inactive)
REMARK    1  A    between atoms: N_1  and  C_15
REMARK    2  A    between atoms: C_7  and  C_24
REMARK                            x       y       z     vdW  Elec       q    Type
REMARK                         _______ _______ _______ _____ _____    ______ ____
ROOT
ATOM      1  N   UNL     1      35.285 -22.780 -17.323  0.00  0.00    -0.290 N 
ATOM      2  N   UNL     1      33.287 -23.425 -16.261  0.00  0.00    -0.327 NA
ATOM      3  N   UNL     1      33.282 -24.073 -13.940  0.00  0.00    -0.342 NA
ATOM      4  C   UNL     1      35.340 -23.423 -14.986  0.00  0.00    +0.143 C 
ATOM      5  C   UNL     1      34.613 -23.223 -16.157  0.00  0.00    +0.184 C 
ATOM      6  C   UNL     1      34.608 -23.861 -13.870  0.00  0.00    +0.133 C 
ATOM      7  C   UNL     1      32.693 -23.843 -15.132  0.00  0.00    +0.165 C 
ATOM      8  C   UNL     1      36.726 -23.205 -14.901  0.00  0.00    -0.011 C 
ATOM      9  C   UNL     1      35.300 -24.073 -12.680  0.00  0.00    +0.029 C 
ATOM     10  C   UNL     1      37.393 -23.423 -13.700  0.00  0.00    -0.004 C 
ATOM     11  C   UNL     1      36.679 -23.858 -12.588  0.00  0.00    +0.002 C 
ATOM     12  H   UNL     1      36.223 -23.076 -17.379  0.00  0.00    +0.154 HD
ENDROOT
BRANCH   1  15
ATOM     13  N   UNL     1      33.935 -19.635 -21.639  0.00  0.00    -0.236 N 
ATOM     14  N   UNL     1      35.100 -19.077 -22.012  0.00  0.00    -0.180 NA
ATOM     15  C   UNL     1      34.871 -22.001 -18.416  0.00  0.00    +0.050 C 
ATOM     16  C   UNL     1      35.379 -20.456 -20.207  0.00  0.00    +0.037 C 
ATOM     17  C   UNL     1      34.035 -20.472 -20.562  0.00  0.00    +0.067 C 
ATOM     18  C   UNL     1      35.813 -21.230 -19.118  0.00  0.00    +0.018 C 
ATOM     19  C   UNL     1      33.524 -21.994 -18.800  0.00  0.00    +0.016 C 
ATOM     20  C   UNL     1      33.077 -21.229 -19.882  0.00  0.00    +0.017 C 
ATOM     21  C   UNL     1      35.976 -19.579 -21.138  0.00  0.00    +0.119 C 
ATOM     22  H   UNL     1      33.085 -19.456 -22.102  0.00  0.00    +0.174 HD
ENDBRANCH   1  15
BRANCH   7  24
ATOM     23  N   UNL     1      30.582 -23.176 -15.940  0.00  0.00    -0.398 NA
ATOM     24  C   UNL     1      31.274 -24.072 -15.199  0.00  0.00    +0.197 C 
ATOM     25  C   UNL     1      30.687 -25.143 -14.539  0.00  0.00    +0.098 C 
ATOM     26  C   UNL     1      29.245 -23.363 -16.022  0.00  0.00    +0.110 C 
ATOM     27  C   UNL     1      29.311 -25.303 -14.646  0.00  0.00    -0.016 C 
ATOM     28  C   UNL     1      28.568 -24.400 -15.401  0.00  0.00    +0.023 C 
ATOM     29  C   UNL     1      28.481 -22.376 -16.839  0.00  0.00    +0.066 C 
ENDBRANCH   7  24
TORSDOF 2
ENDMDL
MODEL 5
REMARK VINA RESULT:     -10.9      2.009      7.040
REMARK  Name = 9998128
REMARK  2 active torsions:
REMARK  status: ('A' for Active; 'I' for Inactive)
REMARK    1  A    between atoms: N_1  and  C_15
REMARK    2  A    between atoms: C_7  and  C_24
REMARK                            x       y       z     vdW  Elec       q    Type
REMARK                         _______ _______ _______ _____ _____    ______ ____
ROOT
ATOM      1  N   UNL     1      35.707 -22.675 -17.388  0.00  0.00    -0.290 N 
ATOM      2  N   UNL     1      33.561 -23.129 -16.536  0.00  0.00    -0.327 NA
ATOM      3  N   UNL     1      33.270 -23.834 -14.250  0.00  0.00    -0.342 NA
ATOM      4  C   UNL     1      35.474 -23.381 -15.079  0.00  0.00    +0.143 C 
ATOM      5  C   UNL     1      34.886 -23.074 -16.304  0.00  0.00    +0.184 C 
ATOM      6  C   UNL     1      34.598 -23.768 -14.052  0.00  0.00    +0.133 C 
ATOM      7  C   UNL     1      32.823 -23.512 -15.481  0.00  0.00    +0.165 C 
ATOM      8  C   UNL     1      36.861 -23.316 -14.861  0.00  0.00    -0.011 C 
ATOM      9  C   UNL     1      35.149 -24.084 -12.813  0.00  0.00    +0.029 C 
ATOM     10  C   UNL     1      37.385 -23.637 -13.613  0.00  0.00    -0.004 C 
ATOM     11  C   UNL     1      36.527 -24.022 -12.587  0.00  0.00    +0.002 C 
ATOM     12  H   UNL     1      36.610 -23.068 -17.369  0.00  0.00    +0.154 HD
ENDROOT
BRANCH   1  15
ATOM     13  N   UNL     1      34.544 -19.400 -21.661  0.00  0.00    -0.236 N 
ATOM     14  N   UNL     1      33.204 -19.447 -21.752  0.00  0.00    -0.180 NA
ATOM     15  C   UNL     1      35.482 -21.827 -18.484  0.00  0.00    +0.050 C 
ATOM     16  C   UNL     1      33.966 -20.744 -20.027  0.00  0.00    +0.037 C 
ATOM     17  C   UNL     1      35.064 -20.156 -20.646  0.00  0.00    +0.067 C 
ATOM     18  C   UNL     1      34.170 -21.594 -18.927  0.00  0.00    +0.018 C 
ATOM     19  C   UNL     1      36.566 -21.220 -19.132  0.00  0.00    +0.016 C 
ATOM     20  C   UNL     1      36.379 -20.370 -20.227  0.00  0.00    +0.017 C 
ATOM     21  C   UNL     1      32.856 -20.266 -20.756  0.00  0.00    +0.119 C 
ATOM     22  H   UNL     1      35.102 -18.867 -22.272  0.00  0.00    +0.174 HD
ENDBRANCH   1  15
BRANCH   7  24
ATOM     23  N   UNL     1      30.768 -24.556 -14.988  0.00  0.00    -0.398 NA
ATOM     24  C   UNL     1      31.400 -23.584 -15.686  0.00  0.00    +0.197 C 
ATOM     25  C   UNL     1      30.753 -22.707 -16.545  0.00  0.00    +0.098 C 
ATOM     26  C   UNL     1      29.431 -24.650 -15.159  0.00  0.00    +0.110 C 
ATOM     27  C   UNL     1      29.378 -22.835 -16.695  0.00  0.00    -0.016 C 
ATOM     28  C   UNL     1      28.695 -23.823 -15.992  0.00  0.00    +0.023 C 
ATOM     29  C   UNL     1      28.732 -25.721 -14.390  0.00  0.00    +0.066 C 
ENDBRANCH   7  24
TORSDOF 2
ENDMDL
MODEL 6
REMARK VINA RESULT:     -10.4      1.504      6.619
REMARK  Name = 9998128
REMARK  2 active torsions:
REMARK  status: ('A' for Active; 'I' for Inactive)
REMARK    1  A    between atoms: N_1  and  C_15
REMARK    2  A    between atoms: C_7  and  C_24
REMARK                            x       y       z     vdW  Elec       q    Type
REMARK                         _______ _______ _______ _____ _____    ______ ____
ROOT
ATOM      1  N   UNL     1      32.116 -22.251 -17.467  0.00  0.00    -0.290 N 
ATOM      2  N   UNL     1      33.396 -23.166 -15.717  0.00  0.00    -0.327 NA
ATOM      3  N   UNL     1      32.413 -24.714 -14.154  0.00  0.00    -0.342 NA
ATOM      4  C   UNL     1      31.073 -23.805 -15.923  0.00  0.00    +0.143 C 
ATOM      5  C   UNL     1      32.201 -23.098 -16.334  0.00  0.00    +0.184 C 
ATOM      6  C   UNL     1      31.233 -24.624 -14.794  0.00  0.00    +0.133 C 
ATOM      7  C   UNL     1      33.430 -23.981 -14.650  0.00  0.00    +0.165 C 
ATOM      8  C   UNL     1      29.836 -23.717 -16.584  0.00  0.00    -0.011 C 
ATOM      9  C   UNL     1      30.127 -25.346 -14.353  0.00  0.00    +0.029 C 
ATOM     10  C   UNL     1      28.747 -24.449 -16.122  0.00  0.00    -0.004 C 
ATOM     11  C   UNL     1      28.893 -25.265 -15.005  0.00  0.00    +0.002 C 
ATOM     12  H   UNL     1      31.222 -21.860 -17.604  0.00  0.00    +0.154 HD
ENDROOT
BRANCH   1  15
ATOM     13  N   UNL     1      35.619 -20.539 -21.357  0.00  0.00    -0.236 N 
ATOM     14  N   UNL     1      34.918 -19.621 -22.044  0.00  0.00    -0.180 NA
ATOM     15  C   UNL     1      33.059 -21.861 -18.430  0.00  0.00    +0.050 C 
ATOM     16  C   UNL     1      33.676 -20.509 -20.339  0.00  0.00    +0.037 C 
ATOM     17  C   UNL     1      34.931 -21.109 -20.321  0.00  0.00    +0.067 C 
ATOM     18  C   UNL     1      32.719 -20.885 -19.382  0.00  0.00    +0.018 C 
ATOM     19  C   UNL     1      34.331 -22.446 -18.441  0.00  0.00    +0.016 C 
ATOM     20  C   UNL     1      35.295 -22.082 -19.387  0.00  0.00    +0.017 C 
ATOM     21  C   UNL     1      33.737 -19.606 -21.422  0.00  0.00    +0.119 C 
ATOM     22  H   UNL     1      36.547 -20.779 -21.580  0.00  0.00    +0.174 HD
ENDBRANCH   1  15
BRANCH   7  24
ATOM     23  N   UNL     1      34.599 -24.185 -12.614  0.00  0.00    -0.398 NA
ATOM     24  C   UNL     1      34.689 -24.083 -13.960  0.00  0.00    +0.197 C 
ATOM     25  C   UNL     1      35.890 -24.073 -14.654  0.00  0.00    +0.098 C 
ATOM     26  C   UNL     1      35.766 -24.282 -11.937  0.00  0.00    +0.110 C 
ATOM     27  C   UNL     1      37.068 -24.174 -13.924  0.00  0.00    -0.016 C 
ATOM     28  C   UNL     1      37.014 -24.282 -12.538  0.00  0.00    +0.023 C 
ATOM     29  C   UNL     1      35.669 -24.395 -10.452  0.00  0.00    +0.066 C 
ENDBRANCH   7  24
TORSDOF 2
ENDMDL
MODEL 7
REMARK VINA RESULT:     -10.2      1.935      7.399
REMARK  Name = 9998128
REMARK  2 active torsions:
REMARK  status: ('A' for Active; 'I' for Inactive)
REMARK    1  A    between atoms: N_1  and  C_15
REMARK    2  A    between atoms: C_7  and  C_24
REMARK                            x       y       z     vdW  Elec       q    Type
REMARK                         _______ _______ _______ _____ _____    ______ ____
ROOT
ATOM      1  N   UNL     1      32.853 -22.966 -17.766  0.00  0.00    -0.290 N 
ATOM      2  N   UNL     1      34.721 -23.262 -16.366  0.00  0.00    -0.327 NA
ATOM      3  N   UNL     1      36.859 -22.317 -16.952  0.00  0.00    -0.342 NA
ATOM      4  C   UNL     1      34.980 -21.993 -18.407  0.00  0.00    +0.143 C 
ATOM      5  C   UNL     1      34.226 -22.736 -17.502  0.00  0.00    +0.184 C 
ATOM      6  C   UNL     1      36.332 -21.805 -18.079  0.00  0.00    +0.133 C 
ATOM      7  C   UNL     1      36.025 -23.018 -16.157  0.00  0.00    +0.165 C 
ATOM      8  C   UNL     1      34.441 -21.454 -19.588  0.00  0.00    -0.011 C 
ATOM      9  C   UNL     1      37.119 -21.068 -18.961  0.00  0.00    +0.029 C 
ATOM     10  C   UNL     1      35.249 -20.721 -20.451  0.00  0.00    -0.004 C 
ATOM     11  C   UNL     1      36.590 -20.528 -20.137  0.00  0.00    +0.002 C 
ATOM     12  H   UNL     1      32.634 -23.004 -18.726  0.00  0.00    +0.154 HD
ENDROOT
BRANCH   1  15
ATOM     13  N   UNL     1      28.350 -23.532 -14.646  0.00  0.00    -0.236 N 
ATOM     14  N   UNL     1      27.407 -22.840 -15.308  0.00  0.00    -0.180 NA
ATOM     15  C   UNL     1      31.745 -23.152 -16.925  0.00  0.00    +0.050 C 
ATOM     16  C   UNL     1      29.413 -22.768 -16.405  0.00  0.00    +0.037 C 
ATOM     17  C   UNL     1      29.576 -23.528 -15.252  0.00  0.00    +0.067 C 
ATOM     18  C   UNL     1      30.510 -22.572 -17.261  0.00  0.00    +0.018 C 
ATOM     19  C   UNL     1      31.874 -23.911 -15.755  0.00  0.00    +0.016 C 
ATOM     20  C   UNL     1      30.792 -24.116 -14.894  0.00  0.00    +0.017 C 
ATOM     21  C   UNL     1      28.058 -22.377 -16.377  0.00  0.00    +0.119 C 
ATOM     22  H   UNL     1      28.172 -24.002 -13.799  0.00  0.00    +0.174 HD
ENDBRANCH   1  15
BRANCH   7  24
ATOM     23  N   UNL     1      37.758 -24.232 -15.120  0.00  0.00    -0.398 NA
ATOM     24  C   UNL     1      36.595 -23.562 -14.953  0.00  0.00    +0.197 C 
ATOM     25  C   UNL     1      35.971 -23.395 -13.725  0.00  0.00    +0.098 C 
ATOM     26  C   UNL     1      38.319 -24.756 -14.007  0.00  0.00    +0.110 C 
ATOM     27  C   UNL     1      36.577 -23.949 -12.603  0.00  0.00    -0.016 C 
ATOM     28  C   UNL     1      37.775 -24.644 -12.738  0.00  0.00    +0.023 C 
ATOM     29  C   UNL     1      39.602 -25.496 -14.189  0.00  0.00    +0.066 C 
ENDBRANCH   7  24
TORSDOF 2
ENDMDL
MODEL 8
REMARK VINA RESULT:     -10.2      2.031      6.922
REMARK  Name = 9998128
REMARK  2 active torsions:
REMARK  status: ('A' for Active; 'I' for Inactive)
REMARK    1  A    between atoms: N_1  and  C_15
REMARK    2  A    between atoms: C_7  and  C_24
REMARK                            x       y       z     vdW  Elec       q    Type
REMARK                         _______ _______ _______ _____ _____    ______ ____
ROOT
ATOM      1  N   UNL     1      33.173 -23.044 -17.532  0.00  0.00    -0.290 N 
ATOM      2  N   UNL     1      35.204 -23.253 -16.362  0.00  0.00    -0.327 NA
ATOM      3  N   UNL     1      37.198 -22.160 -17.157  0.00  0.00    -0.342 NA
ATOM      4  C   UNL     1      35.149 -21.921 -18.379  0.00  0.00    +0.143 C 
ATOM      5  C   UNL     1      34.551 -22.733 -17.418  0.00  0.00    +0.184 C 
ATOM      6  C   UNL     1      36.516 -21.655 -18.200  0.00  0.00    +0.133 C 
ATOM      7  C   UNL     1      36.506 -22.931 -16.295  0.00  0.00    +0.165 C 
ATOM      8  C   UNL     1      34.446 -21.389 -19.474  0.00  0.00    -0.011 C 
ATOM      9  C   UNL     1      37.150 -20.848 -19.141  0.00  0.00    +0.029 C 
ATOM     10  C   UNL     1      35.103 -20.586 -20.399  0.00  0.00    -0.004 C 
ATOM     11  C   UNL     1      36.458 -20.315 -20.232  0.00  0.00    +0.002 C 
ATOM     12  H   UNL     1      32.848 -23.073 -18.462  0.00  0.00    +0.154 HD
ENDROOT
BRANCH   1  15
ATOM     13  N   UNL     1      29.484 -24.265 -13.629  0.00  0.00    -0.236 N 
ATOM     14  N   UNL     1      30.194 -24.941 -12.710  0.00  0.00    -0.180 NA
ATOM     15  C   UNL     1      32.182 -23.320 -16.577  0.00  0.00    +0.050 C 
ATOM     16  C   UNL     1      31.508 -24.304 -14.472  0.00  0.00    +0.037 C 
ATOM     17  C   UNL     1      30.214 -23.855 -14.711  0.00  0.00    +0.067 C 
ATOM     18  C   UNL     1      32.514 -24.036 -15.415  0.00  0.00    +0.018 C 
ATOM     19  C   UNL     1      30.868 -22.883 -16.786  0.00  0.00    +0.016 C 
ATOM     20  C   UNL     1      29.855 -23.141 -15.857  0.00  0.00    +0.017 C 
ATOM     21  C   UNL     1      31.425 -24.962 -13.227  0.00  0.00    +0.119 C 
ATOM     22  H   UNL     1      28.522 -24.081 -13.531  0.00  0.00    +0.174 HD
ENDBRANCH   1  15
BRANCH   7  24
ATOM     23  N   UNL     1      38.371 -24.138 -15.507  0.00  0.00    -0.398 NA
ATOM     24  C   UNL     1      37.243 -23.467 -15.180  0.00  0.00    +0.197 C 
ATOM     25  C   UNL     1      36.800 -23.292 -13.877  0.00  0.00    +0.098 C 
ATOM     26  C   UNL     1      39.086 -24.654 -14.482  0.00  0.00    +0.110 C 
ATOM     27  C   UNL     1      37.561 -23.837 -12.849  0.00  0.00    -0.016 C 
ATOM     28  C   UNL     1      38.728 -24.533 -13.149  0.00  0.00    +0.023 C 
ATOM     29  C   UNL     1      40.330 -25.394 -14.840  0.00  0.00    +0.066 C 
ENDBRANCH   7  24
TORSDOF 2
ENDMDL
MODEL 9
REMARK VINA RESULT:      -9.8     12.728     17.011
REMARK  Name = 9998128
REMARK  2 active torsions:
REMARK  status: ('A' for Active; 'I' for Inactive)
REMARK    1  A    between atoms: N_1  and  C_15
REMARK    2  A    between atoms: C_7  and  C_24
REMARK                            x       y       z     vdW  Elec       q    Type
REMARK                         _______ _______ _______ _____ _____    ______ ____
ROOT
ATOM      1  N   UNL     1      33.258  -7.982 -22.678  0.00  0.00    -0.290 N 
ATOM      2  N   UNL     1      33.212 -10.103 -23.696  0.00  0.00    -0.327 NA
ATOM      3  N   UNL     1      32.321 -12.010 -22.523  0.00  0.00    -0.342 NA
ATOM      4  C   UNL     1      32.349  -9.866 -21.450  0.00  0.00    +0.143 C 
ATOM      5  C   UNL     1      32.932  -9.359 -22.609  0.00  0.00    +0.184 C 
ATOM      6  C   UNL     1      32.053 -11.238 -21.455  0.00  0.00    +0.133 C 
ATOM      7  C   UNL     1      32.886 -11.401 -23.586  0.00  0.00    +0.165 C 
ATOM      8  C   UNL     1      32.066  -9.069 -20.328  0.00  0.00    -0.011 C 
ATOM      9  C   UNL     1      31.471 -11.782 -20.313  0.00  0.00    +0.029 C 
ATOM     10  C   UNL     1      31.484  -9.637 -19.200  0.00  0.00    -0.004 C 
ATOM     11  C   UNL     1      31.185 -10.996 -19.192  0.00  0.00    +0.002 C 
ATOM     12  H   UNL     1      33.487  -7.584 -21.807  0.00  0.00    +0.154 HD
ENDROOT
BRANCH   1  15
ATOM     13  N   UNL     1      33.233  -4.332 -26.803  0.00  0.00    -0.236 N 
ATOM     14  N   UNL     1      32.048  -3.711 -26.681  0.00  0.00    -0.180 NA
ATOM     15  C   UNL     1      33.318  -7.075 -23.748  0.00  0.00    +0.050 C 
ATOM     16  C   UNL     1      32.321  -5.306 -25.062  0.00  0.00    +0.037 C 
ATOM     17  C   UNL     1      33.459  -5.300 -25.863  0.00  0.00    +0.067 C 
ATOM     18  C   UNL     1      32.242  -6.205 -23.986  0.00  0.00    +0.018 C 
ATOM     19  C   UNL     1      34.449  -7.044 -24.575  0.00  0.00    +0.016 C 
ATOM     20  C   UNL     1      34.543  -6.154 -25.650  0.00  0.00    +0.017 C 
ATOM     21  C   UNL     1      31.496  -4.306 -25.620  0.00  0.00    +0.119 C 
ATOM     22  H   UNL     1      33.883  -4.109 -27.509  0.00  0.00    +0.174 HD
ENDBRANCH   1  15
BRANCH   7  24
ATOM     23  N   UNL     1      33.184 -13.563 -24.476  0.00  0.00    -0.398 NA
ATOM     24  C   UNL     1      33.169 -12.233 -24.725  0.00  0.00    +0.197 C 
ATOM     25  C   UNL     1      33.406 -11.680 -25.976  0.00  0.00    +0.098 C 
ATOM     26  C   UNL     1      33.447 -14.372 -25.527  0.00  0.00    +0.110 C 
ATOM     27  C   UNL     1      33.673 -12.544 -27.032  0.00  0.00    -0.016 C 
ATOM     28  C   UNL     1      33.696 -13.917 -26.812  0.00  0.00    +0.023 C 
ATOM     29  C   UNL     1      33.465 -15.838 -25.254  0.00  0.00    +0.066 C 
ENDBRANCH   7  24
TORSDOF 2
ENDMDL
