MODEL 1
REMARK VINA RESULT:      -2.4      0.000      0.000
REMARK  Name = 977
REMARK  0 active torsions:
REMARK  status: ('A' for Active; 'I' for Inactive)
REMARK                            x       y       z     vdW  Elec       q    Type
REMARK                         _______ _______ _______ _____ _____    ______ ____
ROOT
ATOM      1  O   UNL     1      36.047 -24.238  -9.761  0.00  0.00    +0.000 OA
ATOM      2  O   UNL     1      35.288 -25.063 -10.274  0.00  0.00    +0.000 OA
ENDROOT
TORSDOF 0
ENDMDL
MODEL 2
REMARK VINA RESULT:      -2.4      7.036      7.350
REMARK  Name = 977
REMARK  0 active torsions:
REMARK  status: ('A' for Active; 'I' for Inactive)
REMARK                            x       y       z     vdW  Elec       q    Type
REMARK                         _______ _______ _______ _____ _____    ______ ____
ROOT
ATOM      1  O   UNL     1      36.683 -27.262 -16.144  0.00  0.00    +0.000 OA
ATOM      2  O   UNL     1      36.651 -27.931 -17.178  0.00  0.00    +0.000 OA
ENDROOT
TORSDOF 0
ENDMDL
MODEL 3
REMARK VINA RESULT:      -2.4     12.824     12.911
REMARK  Name = 977
REMARK  0 active torsions:
REMARK  status: ('A' for Active; 'I' for Inactive)
REMARK                            x       y       z     vdW  Elec       q    Type
REMARK                         _______ _______ _______ _____ _____    ______ ____
ROOT
ATOM      1  O   UNL     1      26.204 -20.458 -17.911  0.00  0.00    +0.000 OA
ATOM      2  O   UNL     1      25.655 -21.380 -17.307  0.00  0.00    +0.000 OA
ENDROOT
TORSDOF 0
ENDMDL
MODEL 4
REMARK VINA RESULT:      -2.3      7.583      7.584
REMARK  Name = 977
REMARK  0 active torsions:
REMARK  status: ('A' for Active; 'I' for Inactive)
REMARK                            x       y       z     vdW  Elec       q    Type
REMARK                         _______ _______ _______ _____ _____    ______ ____
ROOT
ATOM      1  O   UNL     1      40.933 -26.601 -14.710  0.00  0.00    +0.000 OA
ATOM      2  O   UNL     1      40.702 -26.100 -15.812  0.00  0.00    +0.000 OA
ENDROOT
TORSDOF 0
ENDMDL
MODEL 5
REMARK VINA RESULT:      -2.1     10.891     11.214
REMARK  Name = 977
REMARK  0 active torsions:
REMARK  status: ('A' for Active; 'I' for Inactive)
REMARK                            x       y       z     vdW  Elec       q    Type
REMARK                         _______ _______ _______ _____ _____    ______ ____
ROOT
ATOM      1  O   UNL     1      27.758 -24.332 -17.472  0.00  0.00    +0.000 OA
ATOM      2  O   UNL     1      27.394 -23.222 -17.865  0.00  0.00    +0.000 OA
ENDROOT
TORSDOF 0
ENDMDL
MODEL 6
REMARK VINA RESULT:      -2.1     11.708     12.034
REMARK  Name = 977
REMARK  0 active torsions:
REMARK  status: ('A' for Active; 'I' for Inactive)
REMARK                            x       y       z     vdW  Elec       q    Type
REMARK                         _______ _______ _______ _____ _____    ______ ____
ROOT
ATOM      1  O   UNL     1      26.405 -20.815 -17.605  0.00  0.00    +0.000 OA
ATOM      2  O   UNL     1      27.328 -21.496 -17.156  0.00  0.00    +0.000 OA
ENDROOT
TORSDOF 0
ENDMDL
MODEL 7
REMARK VINA RESULT:      -2.0     11.182     11.538
REMARK  Name = 977
REMARK  0 active torsions:
REMARK  status: ('A' for Active; 'I' for Inactive)
REMARK                            x       y       z     vdW  Elec       q    Type
REMARK                         _______ _______ _______ _____ _____    ______ ____
ROOT
ATOM      1  O   UNL     1      26.687 -22.368 -16.188  0.00  0.00    +0.000 OA
ATOM      2  O   UNL     1      25.574 -22.035 -15.780  0.00  0.00    +0.000 OA
ENDROOT
TORSDOF 0
ENDMDL
MODEL 8
REMARK VINA RESULT:      -2.0      9.822     10.159
REMARK  Name = 977
REMARK  0 active torsions:
REMARK  status: ('A' for Active; 'I' for Inactive)
REMARK                            x       y       z     vdW  Elec       q    Type
REMARK                         _______ _______ _______ _____ _____    ______ ____
ROOT
ATOM      1  O   UNL     1      34.118 -24.977 -20.347  0.00  0.00    +0.000 OA
ATOM      2  O   UNL     1      33.988 -23.995 -19.615  0.00  0.00    +0.000 OA
ENDROOT
TORSDOF 0
ENDMDL
MODEL 9
REMARK VINA RESULT:      -2.0     17.435     17.462
REMARK  Name = 977
REMARK  0 active torsions:
REMARK  status: ('A' for Active; 'I' for Inactive)
REMARK                            x       y       z     vdW  Elec       q    Type
REMARK                         _______ _______ _______ _____ _____    ______ ____
ROOT
ATOM      1  O   UNL     1      42.350 -21.356 -26.270  0.00  0.00    +0.000 OA
ATOM      2  O   UNL     1      42.726 -21.299 -25.098  0.00  0.00    +0.000 OA
ENDROOT
TORSDOF 0
ENDMDL
