MODEL 1
REMARK VINA RESULT:      -2.3      0.000      0.000
REMARK  Name = 9547909
REMARK  3 active torsions:
REMARK  status: ('A' for Active; 'I' for Inactive)
REMARK    1  A    between atoms: C_3  and  C_26
REMARK    2  A    between atoms: C_7  and  N_17
REMARK    3  A    between atoms: N_25  and  S_31
REMARK                            x       y       z     vdW  Elec       q    Type
REMARK                         _______ _______ _______ _____ _____    ______ ____
ROOT
ATOM      1 CL   UNL     1      34.599 -23.465  -8.978  0.00  0.00    -0.082 Cl
ATOM      2  N   UNL     1      38.641 -25.452 -15.198  0.00  0.00    -0.248 NA
ATOM      3  C   UNL     1      37.216 -23.640 -14.432  0.00  0.00    +0.063 C 
ATOM      4  C   UNL     1      36.485 -23.592 -13.100  0.00  0.00    -0.016 C 
ATOM      5  C   UNL     1      37.363 -25.056 -14.953  0.00  0.00    +0.063 C 
ATOM      6  C   UNL     1      35.180 -24.101 -12.914  0.00  0.00    +0.011 C 
ATOM      7  C   UNL     1      34.360 -24.675 -14.017  0.00  0.00    +0.047 C 
ATOM      8  C   UNL     1      36.264 -25.896 -15.164  0.00  0.00    +0.015 C 
ATOM      9  C   UNL     1      37.170 -23.035 -11.998  0.00  0.00    -0.003 C 
ATOM     10  C   UNL     1      34.870 -25.481 -14.970  0.00  0.00    +0.016 C 
ATOM     11  C   UNL     1      34.623 -24.054 -11.617  0.00  0.00    +0.012 C 
ATOM     12  C   UNL     1      36.514 -27.178 -15.668  0.00  0.00    +0.003 C 
ATOM     13  C   UNL     1      36.591 -22.989 -10.732  0.00  0.00    +0.011 C 
ATOM     14  C   UNL     1      35.318 -23.505 -10.541  0.00  0.00    +0.058 C 
ATOM     15  C   UNL     1      38.835 -26.703 -15.668  0.00  0.00    +0.098 C 
ATOM     16  C   UNL     1      37.814 -27.597 -15.920  0.00  0.00    +0.021 C 
ENDROOT
BRANCH   7  17
ATOM     17  N   UNL     1      33.036 -24.343 -14.016  0.00  0.00    -0.312 N 
ATOM     18  N   UNL     1      30.293 -23.890 -14.672  0.00  0.00    +0.386 N 
ATOM     19  C   UNL     1      32.006 -25.249 -13.509  0.00  0.00    +0.067 C 
ATOM     20  C   UNL     1      32.574 -22.988 -14.328  0.00  0.00    +0.067 C 
ATOM     21  C   UNL     1      30.797 -25.247 -14.443  0.00  0.00    -0.060 C 
ATOM     22  C   UNL     1      31.350 -23.050 -15.241  0.00  0.00    -0.060 C 
ATOM     23  H   UNL     1      29.983 -23.491 -13.786  0.00  0.00    -0.084 HD
ATOM     24  H   UNL     1      29.510 -23.931 -15.326  0.00  0.00    -0.084 HD
ENDBRANCH   7  17
BRANCH   3  26
ATOM     25  N   UNL     1      36.234 -21.905 -18.248  0.00  0.00    -0.159 NA
ATOM     26  C   UNL     1      36.652 -22.671 -15.468  0.00  0.00    +0.013 C 
ATOM     27  C   UNL     1      37.775 -22.080 -16.331  0.00  0.00    +0.020 C 
ATOM     28  C   UNL     1      35.616 -23.367 -16.361  0.00  0.00    +0.020 C 
ATOM     29  C   UNL     1      37.218 -21.158 -17.411  0.00  0.00    +0.095 C 
ATOM     30  C   UNL     1      35.092 -22.426 -17.441  0.00  0.00    +0.095 C 
BRANCH  25  31
ATOM     31  S   UNL     1      35.800 -21.143 -19.721  0.00  0.00    +0.046 S 
ATOM     32  O   UNL     1      36.121 -22.032 -20.815  0.00  0.00    -0.157 OA
ATOM     33  O   UNL     1      36.265 -19.774 -19.689  0.00  0.00    -0.157 OA
ATOM     34  C   UNL     1      34.037 -21.130 -19.523  0.00  0.00    +0.196 C 
ENDBRANCH  25  31
ENDBRANCH   3  26
TORSDOF 3
ENDMDL
