MODEL 1
REMARK VINA RESULT:      -4.8      0.000      0.000
REMARK  Name = 6926437
REMARK  4 active torsions:
REMARK  status: ('A' for Active; 'I' for Inactive)
REMARK    1  A    between atoms: CA_1  and  N_2
REMARK    2  A    between atoms: CA_1  and  C_8
REMARK    3  A    between atoms: CA_1  and  C_9
REMARK    4  A    between atoms: C_9  and  S_12
REMARK                            x       y       z     vdW  Elec       q    Type
REMARK                         _______ _______ _______ _____ _____    ______ ____
ROOT
ATOM      1  CA  UNL     1      36.721 -23.587 -12.916  0.00  0.00    +0.049 C 
ENDROOT
BRANCH   1   2
ATOM      2  N   UNL     1      35.236 -23.525 -12.711  0.00  0.00    +0.389 N 
ATOM      3  H1  UNL     1      34.913 -22.568 -12.852  0.00  0.00    -0.088 HD
ATOM      4  H2  UNL     1      35.010 -23.825 -11.763  0.00  0.00    -0.088 HD
ATOM      5  H3  UNL     1      34.775 -24.140 -13.382  0.00  0.00    -0.088 HD
ENDBRANCH   1   2
BRANCH   1   8
ATOM      6  O   UNL     1      36.828 -23.830 -10.563  0.00  0.00    -0.248 OA
ATOM      7  OXT UNL     1      38.687 -23.095 -11.669  0.00  0.00    -0.248 OA
ATOM      8  C   UNL     1      37.494 -23.499 -11.585  0.00  0.00    +0.346 C 
ENDBRANCH   1   8
BRANCH   1   9
ATOM      9  C   UNL     1      37.080 -24.841 -13.760  0.00  0.00    +0.028 C 
ATOM     10  C   UNL     1      38.353 -24.674 -14.604  0.00  0.00    +0.009 C 
ATOM     11  C   UNL     1      37.228 -26.085 -12.866  0.00  0.00    +0.009 C 
BRANCH   9  12
ATOM     12  S   UNL     1      35.696 -25.209 -14.934  0.00  0.00    -0.171 S 
ATOM     13  H   UNL     1      35.069 -26.353 -14.551  0.00  0.00    +0.102 HD
ENDBRANCH   9  12
ENDBRANCH   1   9
TORSDOF 4
ENDMDL
MODEL 2
REMARK VINA RESULT:      -4.7      3.017      3.346
REMARK  Name = 6926437
REMARK  4 active torsions:
REMARK  status: ('A' for Active; 'I' for Inactive)
REMARK    1  A    between atoms: CA_1  and  N_2
REMARK    2  A    between atoms: CA_1  and  C_8
REMARK    3  A    between atoms: CA_1  and  C_9
REMARK    4  A    between atoms: C_9  and  S_12
REMARK                            x       y       z     vdW  Elec       q    Type
REMARK                         _______ _______ _______ _____ _____    ______ ____
ROOT
ATOM      1  CA  UNL     1      38.638 -25.066 -13.458  0.00  0.00    +0.049 C 
ENDROOT
BRANCH   1   2
ATOM      2  N   UNL     1      38.123 -26.159 -12.568  0.00  0.00    +0.389 N 
ATOM      3  H1  UNL     1      38.567 -26.090 -11.652  0.00  0.00    -0.088 HD
ATOM      4  H2  UNL     1      38.338 -27.066 -12.983  0.00  0.00    -0.088 HD
ATOM      5  H3  UNL     1      37.113 -26.064 -12.463  0.00  0.00    -0.088 HD
ENDBRANCH   1   2
BRANCH   1   8
ATOM      6  O   UNL     1      39.742 -26.653 -14.825  0.00  0.00    -0.248 OA
ATOM      7  OXT UNL     1      40.833 -24.712 -14.307  0.00  0.00    -0.248 OA
ATOM      8  C   UNL     1      39.860 -25.517 -14.283  0.00  0.00    +0.346 C 
ENDBRANCH   1   8
BRANCH   1   9
ATOM      9  C   UNL     1      37.476 -24.507 -14.325  0.00  0.00    +0.028 C 
ATOM     10  C   UNL     1      37.942 -23.589 -15.465  0.00  0.00    +0.009 C 
ATOM     11  C   UNL     1      36.627 -25.648 -14.913  0.00  0.00    +0.009 C 
BRANCH   9  12
ATOM     12  S   UNL     1      36.337 -23.511 -13.257  0.00  0.00    -0.171 S 
ATOM     13  H   UNL     1      36.660 -23.700 -11.950  0.00  0.00    +0.102 HD
ENDBRANCH   9  12
ENDBRANCH   1   9
TORSDOF 4
ENDMDL
MODEL 3
REMARK VINA RESULT:      -4.6     11.191     11.718
REMARK  Name = 6926437
REMARK  4 active torsions:
REMARK  status: ('A' for Active; 'I' for Inactive)
REMARK    1  A    between atoms: CA_1  and  N_2
REMARK    2  A    between atoms: CA_1  and  C_8
REMARK    3  A    between atoms: CA_1  and  C_9
REMARK    4  A    between atoms: C_9  and  S_12
REMARK                            x       y       z     vdW  Elec       q    Type
REMARK                         _______ _______ _______ _____ _____    ______ ____
ROOT
ATOM      1  CA  UNL     1      42.104 -14.402 -15.798  0.00  0.00    +0.049 C 
ENDROOT
BRANCH   1   2
ATOM      2  N   UNL     1      41.193 -13.452 -15.078  0.00  0.00    +0.389 N 
ATOM      3  H1  UNL     1      40.526 -13.054 -15.739  0.00  0.00    -0.088 HD
ATOM      4  H2  UNL     1      41.744 -12.704 -14.658  0.00  0.00    -0.088 HD
ATOM      5  H3  UNL     1      40.688 -13.954 -14.348  0.00  0.00    -0.088 HD
ENDBRANCH   1   2
BRANCH   1   8
ATOM      6  O   UNL     1      40.373 -15.990 -15.504  0.00  0.00    -0.248 OA
ATOM      7  OXT UNL     1      42.506 -16.748 -15.817  0.00  0.00    -0.248 OA
ATOM      8  C   UNL     1      41.615 -15.861 -15.702  0.00  0.00    +0.346 C 
ENDBRANCH   1   8
BRANCH   1   9
ATOM      9  C   UNL     1      42.320 -13.915 -17.257  0.00  0.00    +0.028 C 
ATOM     10  C   UNL     1      43.568 -14.509 -17.929  0.00  0.00    +0.009 C 
ATOM     11  C   UNL     1      41.088 -14.215 -18.129  0.00  0.00    +0.009 C 
BRANCH   9  12
ATOM     12  S   UNL     1      42.525 -12.074 -17.267  0.00  0.00    -0.171 S 
ATOM     13  H   UNL     1      41.335 -11.485 -16.974  0.00  0.00    +0.102 HD
ENDBRANCH   9  12
ENDBRANCH   1   9
TORSDOF 4
ENDMDL
MODEL 4
REMARK VINA RESULT:      -4.5      7.968      8.487
REMARK  Name = 6926437
REMARK  4 active torsions:
REMARK  status: ('A' for Active; 'I' for Inactive)
REMARK    1  A    between atoms: CA_1  and  N_2
REMARK    2  A    between atoms: CA_1  and  C_8
REMARK    3  A    between atoms: CA_1  and  C_9
REMARK    4  A    between atoms: C_9  and  S_12
REMARK                            x       y       z     vdW  Elec       q    Type
REMARK                         _______ _______ _______ _____ _____    ______ ____
ROOT
ATOM      1  CA  UNL     1      29.391 -24.588 -15.746  0.00  0.00    +0.049 C 
ENDROOT
BRANCH   1   2
ATOM      2  N   UNL     1      28.800 -25.358 -14.602  0.00  0.00    +0.389 N 
ATOM      3  H1  UNL     1      28.744 -24.757 -13.780  0.00  0.00    -0.088 HD
ATOM      4  H2  UNL     1      29.389 -26.165 -14.394  0.00  0.00    -0.088 HD
ATOM      5  H3  UNL     1      27.864 -25.676 -14.855  0.00  0.00    -0.088 HD
ENDBRANCH   1   2
BRANCH   1   8
ATOM      6  O   UNL     1      27.411 -23.291 -15.687  0.00  0.00    -0.248 OA
ATOM      7  OXT UNL     1      28.551 -23.453 -17.661  0.00  0.00    -0.248 OA
ATOM      8  C   UNL     1      28.351 -23.683 -16.436  0.00  0.00    +0.346 C 
ENDBRANCH   1   8
BRANCH   1   9
ATOM      9  C   UNL     1      30.655 -23.824 -15.263  0.00  0.00    +0.028 C 
ATOM     10  C   UNL     1      31.649 -23.498 -16.389  0.00  0.00    +0.009 C 
ATOM     11  C   UNL     1      30.271 -22.521 -14.539  0.00  0.00    +0.009 C 
BRANCH   9  12
ATOM     12  S   UNL     1      31.562 -24.857 -14.023  0.00  0.00    -0.171 S 
ATOM     13  H   UNL     1      30.700 -25.260 -13.051  0.00  0.00    +0.102 HD
ENDBRANCH   9  12
ENDBRANCH   1   9
TORSDOF 4
ENDMDL
MODEL 5
REMARK VINA RESULT:      -4.5      3.145      3.738
REMARK  Name = 6926437
REMARK  4 active torsions:
REMARK  status: ('A' for Active; 'I' for Inactive)
REMARK    1  A    between atoms: CA_1  and  N_2
REMARK    2  A    between atoms: CA_1  and  C_8
REMARK    3  A    between atoms: CA_1  and  C_9
REMARK    4  A    between atoms: C_9  and  S_12
REMARK                            x       y       z     vdW  Elec       q    Type
REMARK                         _______ _______ _______ _____ _____    ______ ____
ROOT
ATOM      1  CA  UNL     1      37.064 -24.927 -14.944  0.00  0.00    +0.049 C 
ENDROOT
BRANCH   1   2
ATOM      2  N   UNL     1      38.335 -24.190 -15.248  0.00  0.00    +0.389 N 
ATOM      3  H1  UNL     1      38.346 -23.307 -14.740  0.00  0.00    -0.088 HD
ATOM      4  H2  UNL     1      38.392 -24.008 -16.250  0.00  0.00    -0.088 HD
ATOM      5  H3  UNL     1      39.133 -24.757 -14.959  0.00  0.00    -0.088 HD
ENDBRANCH   1   2
BRANCH   1   8
ATOM      6  O   UNL     1      36.232 -26.997 -15.738  0.00  0.00    -0.248 OA
ATOM      7  OXT UNL     1      38.272 -26.964 -14.708  0.00  0.00    -0.248 OA
ATOM      8  C   UNL     1      37.209 -26.447 -15.154  0.00  0.00    +0.346 C 
ENDBRANCH   1   8
BRANCH   1   9
ATOM      9  C   UNL     1      36.563 -24.542 -13.525  0.00  0.00    +0.028 C 
ATOM     10  C   UNL     1      36.797 -25.633 -12.469  0.00  0.00    +0.009 C 
ATOM     11  C   UNL     1      37.212 -23.231 -13.046  0.00  0.00    +0.009 C 
BRANCH   9  12
ATOM     12  S   UNL     1      34.739 -24.225 -13.582  0.00  0.00    -0.171 S 
ATOM     13  H   UNL     1      34.373 -23.488 -12.499  0.00  0.00    +0.102 HD
ENDBRANCH   9  12
ENDBRANCH   1   9
TORSDOF 4
ENDMDL
MODEL 6
REMARK VINA RESULT:      -4.5     11.361     11.865
REMARK  Name = 6926437
REMARK  4 active torsions:
REMARK  status: ('A' for Active; 'I' for Inactive)
REMARK    1  A    between atoms: CA_1  and  N_2
REMARK    2  A    between atoms: CA_1  and  C_8
REMARK    3  A    between atoms: CA_1  and  C_9
REMARK    4  A    between atoms: C_9  and  S_12
REMARK                            x       y       z     vdW  Elec       q    Type
REMARK                         _______ _______ _______ _____ _____    ______ ____
ROOT
ATOM      1  CA  UNL     1      35.373 -16.927 -22.229  0.00  0.00    +0.049 C 
ENDROOT
BRANCH   1   2
ATOM      2  N   UNL     1      35.331 -16.653 -23.704  0.00  0.00    +0.389 N 
ATOM      3  H1  UNL     1      35.840 -15.793 -23.905  0.00  0.00    -0.088 HD
ATOM      4  H2  UNL     1      34.361 -16.554 -24.004  0.00  0.00    -0.088 HD
ATOM      5  H3  UNL     1      35.765 -17.428 -24.205  0.00  0.00    -0.088 HD
ENDBRANCH   1   2
BRANCH   1   8
ATOM      6  O   UNL     1      33.444 -15.566 -22.049  0.00  0.00    -0.248 OA
ATOM      7  OXT UNL     1      34.883 -15.659 -20.276  0.00  0.00    -0.248 OA
ATOM      8  C   UNL     1      34.477 -15.958 -21.434  0.00  0.00    +0.346 C 
ENDBRANCH   1   8
BRANCH   1   9
ATOM      9  C   UNL     1      35.054 -18.425 -21.966  0.00  0.00    +0.028 C 
ATOM     10  C   UNL     1      33.777 -18.649 -21.142  0.00  0.00    +0.009 C 
ATOM     11  C   UNL     1      34.944 -19.207 -23.287  0.00  0.00    +0.009 C 
BRANCH   9  12
ATOM     12  S   UNL     1      36.450 -19.194 -21.024  0.00  0.00    -0.171 S 
ATOM     13  H   UNL     1      37.633 -18.728 -21.505  0.00  0.00    +0.102 HD
ENDBRANCH   9  12
ENDBRANCH   1   9
TORSDOF 4
ENDMDL
MODEL 7
REMARK VINA RESULT:      -4.3      3.057      3.691
REMARK  Name = 6926437
REMARK  4 active torsions:
REMARK  status: ('A' for Active; 'I' for Inactive)
REMARK    1  A    between atoms: CA_1  and  N_2
REMARK    2  A    between atoms: CA_1  and  C_8
REMARK    3  A    between atoms: CA_1  and  C_9
REMARK    4  A    between atoms: C_9  and  S_12
REMARK                            x       y       z     vdW  Elec       q    Type
REMARK                         _______ _______ _______ _____ _____    ______ ____
ROOT
ATOM      1  CA  UNL     1      36.412 -25.528 -14.185  0.00  0.00    +0.049 C 
ENDROOT
BRANCH   1   2
ATOM      2  N   UNL     1      34.938 -25.365 -14.417  0.00  0.00    +0.389 N 
ATOM      3  H1  UNL     1      34.691 -24.379 -14.351  0.00  0.00    -0.088 HD
ATOM      4  H2  UNL     1      34.423 -25.893 -13.712  0.00  0.00    -0.088 HD
ATOM      5  H3  UNL     1      34.700 -25.714 -15.345  0.00  0.00    -0.088 HD
ENDBRANCH   1   2
BRANCH   1   8
ATOM      6  O   UNL     1      38.047 -27.204 -14.538  0.00  0.00    -0.248 OA
ATOM      7  OXT UNL     1      36.405 -26.934 -16.105  0.00  0.00    -0.248 OA
ATOM      8  C   UNL     1      37.009 -26.673 -15.027  0.00  0.00    +0.346 C 
ENDBRANCH   1   8
BRANCH   1   9
ATOM      9  C   UNL     1      37.127 -24.165 -14.396  0.00  0.00    +0.028 C 
ATOM     10  C   UNL     1      37.267 -23.335 -13.110  0.00  0.00    +0.009 C 
ATOM     11  C   UNL     1      38.520 -24.363 -15.021  0.00  0.00    +0.009 C 
BRANCH   9  12
ATOM     12  S   UNL     1      36.160 -23.142 -15.599  0.00  0.00    -0.171 S 
ATOM     13  H   UNL     1      36.940 -22.128 -16.060  0.00  0.00    +0.102 HD
ENDBRANCH   9  12
ENDBRANCH   1   9
TORSDOF 4
ENDMDL
MODEL 8
REMARK VINA RESULT:      -4.3      3.253      3.695
REMARK  Name = 6926437
REMARK  4 active torsions:
REMARK  status: ('A' for Active; 'I' for Inactive)
REMARK    1  A    between atoms: CA_1  and  N_2
REMARK    2  A    between atoms: CA_1  and  C_8
REMARK    3  A    between atoms: CA_1  and  C_9
REMARK    4  A    between atoms: C_9  and  S_12
REMARK                            x       y       z     vdW  Elec       q    Type
REMARK                         _______ _______ _______ _____ _____    ______ ____
ROOT
ATOM      1  CA  UNL     1      37.162 -24.391 -14.510  0.00  0.00    +0.049 C 
ENDROOT
BRANCH   1   2
ATOM      2  N   UNL     1      38.172 -24.021 -15.557  0.00  0.00    +0.389 N 
ATOM      3  H1  UNL     1      39.090 -23.921 -15.124  0.00  0.00    -0.088 HD
ATOM      4  H2  UNL     1      37.903 -23.139 -15.993  0.00  0.00    -0.088 HD
ATOM      5  H3  UNL     1      38.210 -24.754 -16.265  0.00  0.00    -0.088 HD
ENDBRANCH   1   2
BRANCH   1   8
ATOM      6  O   UNL     1      34.888 -24.986 -14.787  0.00  0.00    -0.248 OA
ATOM      7  OXT UNL     1      36.488 -26.337 -15.702  0.00  0.00    -0.248 OA
ATOM      8  C   UNL     1      36.073 -25.332 -15.061  0.00  0.00    +0.346 C 
ENDBRANCH   1   8
BRANCH   1   9
ATOM      9  C   UNL     1      37.891 -24.951 -13.257  0.00  0.00    +0.028 C 
ATOM     10  C   UNL     1      37.189 -26.163 -12.624  0.00  0.00    +0.009 C 
ATOM     11  C   UNL     1      39.346 -25.328 -13.586  0.00  0.00    +0.009 C 
BRANCH   9  12
ATOM     12  S   UNL     1      37.977 -23.635 -11.957  0.00  0.00    -0.171 S 
ATOM     13  H   UNL     1      38.235 -24.207 -10.750  0.00  0.00    +0.102 HD
ENDBRANCH   9  12
ENDBRANCH   1   9
TORSDOF 4
ENDMDL
MODEL 9
REMARK VINA RESULT:      -4.3      1.776      2.363
REMARK  Name = 6926437
REMARK  4 active torsions:
REMARK  status: ('A' for Active; 'I' for Inactive)
REMARK    1  A    between atoms: CA_1  and  N_2
REMARK    2  A    between atoms: CA_1  and  C_8
REMARK    3  A    between atoms: CA_1  and  C_9
REMARK    4  A    between atoms: C_9  and  S_12
REMARK                            x       y       z     vdW  Elec       q    Type
REMARK                         _______ _______ _______ _____ _____    ______ ____
ROOT
ATOM      1  CA  UNL     1      37.163 -24.976 -12.691  0.00  0.00    +0.049 C 
ENDROOT
BRANCH   1   2
ATOM      2  N   UNL     1      38.216 -26.039 -12.582  0.00  0.00    +0.389 N 
ATOM      3  H1  UNL     1      37.931 -26.857 -13.120  0.00  0.00    -0.088 HD
ATOM      4  H2  UNL     1      38.336 -26.300 -11.603  0.00  0.00    -0.088 HD
ATOM      5  H3  UNL     1      39.098 -25.682 -12.950  0.00  0.00    -0.088 HD
ENDBRANCH   1   2
BRANCH   1   8
ATOM      6  O   UNL     1      38.857 -23.564 -11.831  0.00  0.00    -0.248 OA
ATOM      7  OXT UNL     1      36.704 -22.797 -11.851  0.00  0.00    -0.248 OA
ATOM      8  C   UNL     1      37.618 -23.642 -12.067  0.00  0.00    +0.346 C 
ENDBRANCH   1   8
BRANCH   1   9
ATOM      9  C   UNL     1      36.704 -24.844 -14.170  0.00  0.00    +0.028 C 
ATOM     10  C   UNL     1      35.230 -24.441 -14.327  0.00  0.00    +0.009 C 
ATOM     11  C   UNL     1      37.585 -23.840 -14.934  0.00  0.00    +0.009 C 
BRANCH   9  12
ATOM     12  S   UNL     1      36.914 -26.473 -15.026  0.00  0.00    -0.171 S 
ATOM     13  H   UNL     1      37.489 -27.362 -14.173  0.00  0.00    +0.102 HD
ENDBRANCH   9  12
ENDBRANCH   1   9
TORSDOF 4
ENDMDL
