MODEL 1
REMARK VINA RESULT:     -10.7      0.000      0.000
REMARK  Name = 25181321
REMARK  3 active torsions:
REMARK  status: ('A' for Active; 'I' for Inactive)
REMARK    1  A    between atoms: N_1  and  C_17
REMARK    2  A    between atoms: C_6  and  C_14
REMARK    3  A    between atoms: C_22  and  O_23
REMARK                            x       y       z     vdW  Elec       q    Type
REMARK                         _______ _______ _______ _____ _____    ______ ____
ROOT
ATOM      1  N   UNL     1      33.420 -15.163 -23.756  0.00  0.00    -0.265 N 
ATOM      2  N   UNL     1      33.851 -15.909 -25.804  0.00  0.00    -0.250 NA
ATOM      3  C   UNL     1      34.023 -16.382 -23.581  0.00  0.00    +0.067 C 
ATOM      4  C   UNL     1      34.283 -16.826 -24.875  0.00  0.00    +0.074 C 
ATOM      5  C   UNL     1      34.354 -17.112 -22.438  0.00  0.00    +0.020 C 
ATOM      6  C   UNL     1      34.976 -18.348 -22.639  0.00  0.00    +0.052 C 
ATOM      7  C   UNL     1      33.341 -14.924 -25.099  0.00  0.00    +0.224 C 
ATOM      8  C   UNL     1      34.909 -18.071 -25.058  0.00  0.00    +0.073 C 
ATOM      9  C   UNL     1      35.250 -18.821 -23.924  0.00  0.00    -0.015 C 
ENDROOT
BRANCH   6  14
ATOM     10  S   UNL     1      34.333 -21.990 -19.320  0.00  0.00    +0.011 S 
ATOM     11  O   UNL     1      34.460 -20.132 -21.177  0.00  0.00    -0.412 OA
ATOM     12  N   UNL     1      36.387 -19.058 -20.736  0.00  0.00    -0.132 NA
ATOM     13  N   UNL     1      36.198 -20.057 -19.837  0.00  0.00    -0.237 N 
ATOM     14  C   UNL     1      35.345 -19.154 -21.486  0.00  0.00    +0.248 A 
ATOM     15  C   UNL     1      35.032 -20.717 -20.093  0.00  0.00    +0.264 A 
ATOM     16  H   UNL     1      36.816 -20.275 -19.102  0.00  0.00    +0.193 HD
ENDBRANCH   6  14
BRANCH   1  17
ATOM     17  C   UNL     1      32.962 -14.306 -22.755  0.00  0.00    +0.053 C 
ATOM     18  C   UNL     1      33.055 -14.686 -21.416  0.00  0.00    +0.018 C 
ATOM     19  C   UNL     1      32.411 -13.070 -23.094  0.00  0.00    +0.018 C 
ATOM     20  C   UNL     1      32.598 -13.829 -20.416  0.00  0.00    +0.038 C 
ATOM     21  C   UNL     1      31.952 -12.214 -22.093  0.00  0.00    +0.038 C 
ATOM     22  C   UNL     1      32.046 -12.593 -20.753  0.00  0.00    +0.139 C 
BRANCH  22  23
ATOM     23  O   UNL     1      31.599 -11.757 -19.776  0.00  0.00    -0.471 OA
ATOM     24  C   UNL     1      31.568 -10.363 -20.079  0.00  0.00    +0.252 C 
ENDBRANCH  22  23
ENDBRANCH   1  17
TORSDOF 3
ENDMDL
MODEL 2
REMARK VINA RESULT:     -10.6      3.194      6.857
REMARK  Name = 25181321
REMARK  3 active torsions:
REMARK  status: ('A' for Active; 'I' for Inactive)
REMARK    1  A    between atoms: N_1  and  C_17
REMARK    2  A    between atoms: C_6  and  C_14
REMARK    3  A    between atoms: C_22  and  O_23
REMARK                            x       y       z     vdW  Elec       q    Type
REMARK                         _______ _______ _______ _____ _____    ______ ____
ROOT
ATOM      1  N   UNL     1      34.668 -17.596 -23.700  0.00  0.00    -0.265 N 
ATOM      2  N   UNL     1      34.430 -17.003 -25.828  0.00  0.00    -0.250 NA
ATOM      3  C   UNL     1      34.066 -16.365 -23.672  0.00  0.00    +0.067 C 
ATOM      4  C   UNL     1      33.927 -16.017 -25.012  0.00  0.00    +0.074 C 
ATOM      5  C   UNL     1      33.642 -15.550 -22.620  0.00  0.00    +0.020 C 
ATOM      6  C   UNL     1      33.054 -14.329 -22.967  0.00  0.00    +0.052 C 
ATOM      7  C   UNL     1      34.864 -17.935 -25.010  0.00  0.00    +0.224 C 
ATOM      8  C   UNL     1      33.334 -14.786 -25.343  0.00  0.00    +0.073 C 
ATOM      9  C   UNL     1      32.902 -13.953 -24.303  0.00  0.00    -0.015 C 
ENDROOT
BRANCH   6  14
ATOM     10  S   UNL     1      31.480  -9.986 -21.136  0.00  0.00    +0.011 S 
ATOM     11  O   UNL     1      32.328 -12.174 -22.324  0.00  0.00    -0.412 OA
ATOM     12  N   UNL     1      32.406 -13.693 -20.666  0.00  0.00    -0.132 NA
ATOM     13  N   UNL     1      31.977 -12.500 -20.181  0.00  0.00    -0.237 N 
ATOM     14  C   UNL     1      32.592 -13.438 -21.915  0.00  0.00    +0.248 A 
ATOM     15  C   UNL     1      31.925 -11.570 -21.177  0.00  0.00    +0.264 A 
ATOM     16  H   UNL     1      31.737 -12.331 -19.242  0.00  0.00    +0.193 HD
ENDBRANCH   6  14
BRANCH   1  17
ATOM     17  C   UNL     1      35.024 -18.378 -22.602  0.00  0.00    +0.053 C 
ATOM     18  C   UNL     1      36.327 -18.329 -22.105  0.00  0.00    +0.018 C 
ATOM     19  C   UNL     1      34.079 -19.209 -22.001  0.00  0.00    +0.018 C 
ATOM     20  C   UNL     1      36.683 -19.111 -21.007  0.00  0.00    +0.038 C 
ATOM     21  C   UNL     1      34.436 -19.991 -20.903  0.00  0.00    +0.038 C 
ATOM     22  C   UNL     1      35.738 -19.942 -20.405  0.00  0.00    +0.139 C 
BRANCH  22  23
ATOM     23  O   UNL     1      36.087 -20.705 -19.333  0.00  0.00    -0.471 OA
ATOM     24  C   UNL     1      35.297 -21.866 -19.080  0.00  0.00    +0.252 C 
ENDBRANCH  22  23
ENDBRANCH   1  17
TORSDOF 3
ENDMDL
MODEL 3
REMARK VINA RESULT:     -10.2      6.181     10.284
REMARK  Name = 25181321
REMARK  3 active torsions:
REMARK  status: ('A' for Active; 'I' for Inactive)
REMARK    1  A    between atoms: N_1  and  C_17
REMARK    2  A    between atoms: C_6  and  C_14
REMARK    3  A    between atoms: C_22  and  O_23
REMARK                            x       y       z     vdW  Elec       q    Type
REMARK                         _______ _______ _______ _____ _____    ______ ____
ROOT
ATOM      1  N   UNL     1      36.299 -22.634 -16.430  0.00  0.00    -0.265 N 
ATOM      2  N   UNL     1      37.678 -23.230 -14.793  0.00  0.00    -0.250 NA
ATOM      3  C   UNL     1      35.506 -23.226 -15.481  0.00  0.00    +0.067 C 
ATOM      4  C   UNL     1      36.390 -23.588 -14.469  0.00  0.00    +0.074 C 
ATOM      5  C   UNL     1      34.132 -23.468 -15.422  0.00  0.00    +0.020 C 
ATOM      6  C   UNL     1      33.655 -24.109 -14.274  0.00  0.00    +0.052 C 
ATOM      7  C   UNL     1      37.587 -22.660 -15.973  0.00  0.00    +0.224 C 
ATOM      8  C   UNL     1      35.893 -24.232 -13.323  0.00  0.00    +0.073 C 
ATOM      9  C   UNL     1      34.518 -24.485 -13.243  0.00  0.00    -0.015 C 
ENDROOT
BRANCH   6  14
ATOM     10  S   UNL     1      28.922 -24.015 -15.787  0.00  0.00    +0.011 S 
ATOM     11  O   UNL     1      31.484 -23.945 -15.193  0.00  0.00    -0.412 OA
ATOM     12  N   UNL     1      31.606 -24.993 -13.206  0.00  0.00    -0.132 NA
ATOM     13  N   UNL     1      30.318 -24.959 -13.633  0.00  0.00    -0.237 N 
ATOM     14  C   UNL     1      32.232 -24.388 -14.156  0.00  0.00    +0.248 A 
ATOM     15  C   UNL     1      30.230 -24.326 -14.838  0.00  0.00    +0.264 A 
ATOM     16  H   UNL     1      29.554 -25.339 -13.142  0.00  0.00    +0.193 HD
ENDBRANCH   6  14
BRANCH   1  17
ATOM     17  C   UNL     1      35.885 -22.097 -17.649  0.00  0.00    +0.053 C 
ATOM     18  C   UNL     1      36.765 -21.323 -18.404  0.00  0.00    +0.018 C 
ATOM     19  C   UNL     1      34.590 -22.333 -18.111  0.00  0.00    +0.018 C 
ATOM     20  C   UNL     1      36.351 -20.786 -19.623  0.00  0.00    +0.038 C 
ATOM     21  C   UNL     1      34.176 -21.795 -19.329  0.00  0.00    +0.038 C 
ATOM     22  C   UNL     1      35.057 -21.022 -20.086  0.00  0.00    +0.139 C 
BRANCH  22  23
ATOM     23  O   UNL     1      34.653 -20.497 -21.275  0.00  0.00    -0.471 OA
ATOM     24  C   UNL     1      33.711 -19.427 -21.225  0.00  0.00    +0.252 C 
ENDBRANCH  22  23
ENDBRANCH   1  17
TORSDOF 3
ENDMDL
MODEL 4
REMARK VINA RESULT:      -9.9      6.796     10.421
REMARK  Name = 25181321
REMARK  3 active torsions:
REMARK  status: ('A' for Active; 'I' for Inactive)
REMARK    1  A    between atoms: N_1  and  C_17
REMARK    2  A    between atoms: C_6  and  C_14
REMARK    3  A    between atoms: C_22  and  O_23
REMARK                            x       y       z     vdW  Elec       q    Type
REMARK                         _______ _______ _______ _____ _____    ______ ____
ROOT
ATOM      1  N   UNL     1      30.799 -23.906 -14.924  0.00  0.00    -0.265 N 
ATOM      2  N   UNL     1      32.199 -24.956 -13.554  0.00  0.00    -0.250 NA
ATOM      3  C   UNL     1      32.046 -23.726 -15.466  0.00  0.00    +0.067 C 
ATOM      4  C   UNL     1      32.902 -24.391 -14.593  0.00  0.00    +0.074 C 
ATOM      5  C   UNL     1      32.485 -23.059 -16.611  0.00  0.00    +0.020 C 
ATOM      6  C   UNL     1      33.861 -23.080 -16.863  0.00  0.00    +0.052 C 
ATOM      7  C   UNL     1      30.943 -24.646 -13.784  0.00  0.00    +0.224 C 
ATOM      8  C   UNL     1      34.281 -24.402 -14.862  0.00  0.00    +0.073 C 
ATOM      9  C   UNL     1      34.744 -23.739 -16.005  0.00  0.00    -0.015 C 
ENDROOT
BRANCH   6  14
ATOM     10  S   UNL     1      33.525 -20.159 -20.869  0.00  0.00    +0.011 S 
ATOM     11  O   UNL     1      33.464 -21.661 -18.711  0.00  0.00    -0.412 OA
ATOM     12  N   UNL     1      35.574 -22.417 -18.519  0.00  0.00    -0.132 NA
ATOM     13  N   UNL     1      35.467 -21.616 -19.610  0.00  0.00    -0.237 N 
ATOM     14  C   UNL     1      34.378 -22.402 -18.041  0.00  0.00    +0.248 A 
ATOM     15  C   UNL     1      34.191 -21.151 -19.738  0.00  0.00    +0.264 A 
ATOM     16  H   UNL     1      36.206 -21.401 -20.223  0.00  0.00    +0.193 HD
ENDBRANCH   6  14
BRANCH   1  17
ATOM     17  C   UNL     1      29.591 -23.427 -15.429  0.00  0.00    +0.053 C 
ATOM     18  C   UNL     1      28.899 -22.426 -14.747  0.00  0.00    +0.018 C 
ATOM     19  C   UNL     1      29.075 -23.950 -16.614  0.00  0.00    +0.018 C 
ATOM     20  C   UNL     1      27.691 -21.947 -15.252  0.00  0.00    +0.038 C 
ATOM     21  C   UNL     1      27.866 -23.471 -17.119  0.00  0.00    +0.038 C 
ATOM     22  C   UNL     1      27.174 -22.469 -16.438  0.00  0.00    +0.139 C 
BRANCH  22  23
ATOM     23  O   UNL     1      25.994 -22.001 -16.930  0.00  0.00    -0.471 OA
ATOM     24  C   UNL     1      26.048 -21.251 -18.142  0.00  0.00    +0.252 C 
ENDBRANCH  22  23
ENDBRANCH   1  17
TORSDOF 3
ENDMDL
MODEL 5
REMARK VINA RESULT:      -9.8      5.842      9.936
REMARK  Name = 25181321
REMARK  3 active torsions:
REMARK  status: ('A' for Active; 'I' for Inactive)
REMARK    1  A    between atoms: N_1  and  C_17
REMARK    2  A    between atoms: C_6  and  C_14
REMARK    3  A    between atoms: C_22  and  O_23
REMARK                            x       y       z     vdW  Elec       q    Type
REMARK                         _______ _______ _______ _____ _____    ______ ____
ROOT
ATOM      1  N   UNL     1      35.705 -22.636 -16.737  0.00  0.00    -0.265 N 
ATOM      2  N   UNL     1      36.769 -23.450 -14.964  0.00  0.00    -0.250 NA
ATOM      3  C   UNL     1      34.730 -23.186 -15.947  0.00  0.00    +0.067 C 
ATOM      4  C   UNL     1      35.419 -23.687 -14.846  0.00  0.00    +0.074 C 
ATOM      5  C   UNL     1      33.345 -23.285 -16.094  0.00  0.00    +0.020 C 
ATOM      6  C   UNL     1      32.647 -23.927 -15.067  0.00  0.00    +0.052 C 
ATOM      7  C   UNL     1      36.905 -22.818 -16.108  0.00  0.00    +0.224 C 
ATOM      8  C   UNL     1      34.701 -24.329 -13.822  0.00  0.00    +0.073 C 
ATOM      9  C   UNL     1      33.310 -24.440 -13.950  0.00  0.00    -0.015 C 
ENDROOT
BRANCH   6  14
ATOM     10  S   UNL     1      28.138 -22.750 -16.794  0.00  0.00    +0.011 S 
ATOM     11  O   UNL     1      30.614 -23.196 -16.024  0.00  0.00    -0.412 OA
ATOM     12  N   UNL     1      30.425 -24.884 -14.549  0.00  0.00    -0.132 NA
ATOM     13  N   UNL     1      29.200 -24.551 -15.031  0.00  0.00    -0.237 N 
ATOM     14  C   UNL     1      31.202 -24.061 -15.165  0.00  0.00    +0.248 A 
ATOM     15  C   UNL     1      29.300 -23.528 -15.927  0.00  0.00    +0.264 A 
ATOM     16  H   UNL     1      28.357 -24.987 -14.770  0.00  0.00    +0.193 HD
ENDBRANCH   6  14
BRANCH   1  17
ATOM     17  C   UNL     1      35.526 -22.001 -17.966  0.00  0.00    +0.053 C 
ATOM     18  C   UNL     1      34.265 -21.981 -18.563  0.00  0.00    +0.018 C 
ATOM     19  C   UNL     1      36.607 -21.387 -18.598  0.00  0.00    +0.018 C 
ATOM     20  C   UNL     1      34.086 -21.346 -19.791  0.00  0.00    +0.038 C 
ATOM     21  C   UNL     1      36.428 -20.753 -19.827  0.00  0.00    +0.038 C 
ATOM     22  C   UNL     1      35.167 -20.732 -20.424  0.00  0.00    +0.139 C 
BRANCH  22  23
ATOM     23  O   UNL     1      34.992 -20.113 -21.623  0.00  0.00    -0.471 OA
ATOM     24  C   UNL     1      34.805 -18.698 -21.602  0.00  0.00    +0.252 C 
ENDBRANCH  22  23
ENDBRANCH   1  17
TORSDOF 3
ENDMDL
MODEL 6
REMARK VINA RESULT:      -9.7      6.841     10.781
REMARK  Name = 25181321
REMARK  3 active torsions:
REMARK  status: ('A' for Active; 'I' for Inactive)
REMARK    1  A    between atoms: N_1  and  C_17
REMARK    2  A    between atoms: C_6  and  C_14
REMARK    3  A    between atoms: C_22  and  O_23
REMARK                            x       y       z     vdW  Elec       q    Type
REMARK                         _______ _______ _______ _____ _____    ______ ____
ROOT
ATOM      1  N   UNL     1      33.901 -23.741 -14.171  0.00  0.00    -0.265 N 
ATOM      2  N   UNL     1      35.848 -23.840 -13.103  0.00  0.00    -0.250 NA
ATOM      3  C   UNL     1      34.834 -23.286 -15.067  0.00  0.00    +0.067 C 
ATOM      4  C   UNL     1      36.041 -23.359 -14.377  0.00  0.00    +0.074 C 
ATOM      5  C   UNL     1      34.729 -22.832 -16.383  0.00  0.00    +0.020 C 
ATOM      6  C   UNL     1      35.916 -22.437 -17.009  0.00  0.00    +0.052 C 
ATOM      7  C   UNL     1      34.556 -24.059 -13.013  0.00  0.00    +0.224 C 
ATOM      8  C   UNL     1      37.223 -22.958 -15.022  0.00  0.00    +0.073 C 
ATOM      9  C   UNL     1      37.141 -22.499 -16.343  0.00  0.00    -0.015 C 
ENDROOT
BRANCH   6  14
ATOM     10  S   UNL     1      37.082 -19.345 -20.720  0.00  0.00    +0.011 S 
ATOM     11  O   UNL     1      36.606 -20.843 -18.611  0.00  0.00    -0.412 OA
ATOM     12  N   UNL     1      35.229 -22.445 -19.386  0.00  0.00    -0.132 NA
ATOM     13  N   UNL     1      35.558 -21.591 -20.389  0.00  0.00    -0.237 N 
ATOM     14  C   UNL     1      35.870 -21.955 -18.381  0.00  0.00    +0.248 A 
ATOM     15  C   UNL     1      36.393 -20.614 -19.933  0.00  0.00    +0.264 A 
ATOM     16  H   UNL     1      35.237 -21.667 -21.317  0.00  0.00    +0.193 HD
ENDBRANCH   6  14
BRANCH   1  17
ATOM     17  C   UNL     1      32.528 -23.862 -14.382  0.00  0.00    +0.053 C 
ATOM     18  C   UNL     1      31.901 -25.094 -14.198  0.00  0.00    +0.018 C 
ATOM     19  C   UNL     1      31.783 -22.751 -14.778  0.00  0.00    +0.018 C 
ATOM     20  C   UNL     1      30.528 -25.216 -14.410  0.00  0.00    +0.038 C 
ATOM     21  C   UNL     1      30.410 -22.874 -14.990  0.00  0.00    +0.038 C 
ATOM     22  C   UNL     1      29.782 -24.106 -14.805  0.00  0.00    +0.139 C 
BRANCH  22  23
ATOM     23  O   UNL     1      28.442 -24.225 -15.012  0.00  0.00    -0.471 OA
ATOM     24  C   UNL     1      27.832 -23.270 -15.879  0.00  0.00    +0.252 C 
ENDBRANCH  22  23
ENDBRANCH   1  17
TORSDOF 3
ENDMDL
MODEL 7
REMARK VINA RESULT:      -9.7      5.272      8.199
REMARK  Name = 25181321
REMARK  3 active torsions:
REMARK  status: ('A' for Active; 'I' for Inactive)
REMARK    1  A    between atoms: N_1  and  C_17
REMARK    2  A    between atoms: C_6  and  C_14
REMARK    3  A    between atoms: C_22  and  O_23
REMARK                            x       y       z     vdW  Elec       q    Type
REMARK                         _______ _______ _______ _____ _____    ______ ____
ROOT
ATOM      1  N   UNL     1      32.475  -7.881 -21.465  0.00  0.00    -0.265 N 
ATOM      2  N   UNL     1      31.749  -7.967 -19.366  0.00  0.00    -0.250 NA
ATOM      3  C   UNL     1      32.291  -9.213 -21.196  0.00  0.00    +0.067 C 
ATOM      4  C   UNL     1      31.837  -9.240 -19.880  0.00  0.00    +0.074 C 
ATOM      5  C   UNL     1      32.476 -10.362 -21.967  0.00  0.00    +0.020 C 
ATOM      6  C   UNL     1      32.183 -11.585 -21.355  0.00  0.00    +0.052 C 
ATOM      7  C   UNL     1      32.137  -7.178 -20.342  0.00  0.00    +0.224 C 
ATOM      8  C   UNL     1      31.547 -10.478 -19.282  0.00  0.00    +0.073 C 
ATOM      9  C   UNL     1      31.726 -11.644 -20.037  0.00  0.00    -0.015 C 
ENDROOT
BRANCH   6  14
ATOM     10  S   UNL     1      33.056 -14.250 -25.457  0.00  0.00    +0.011 S 
ATOM     11  O   UNL     1      32.618 -12.638 -23.425  0.00  0.00    -0.412 OA
ATOM     12  N   UNL     1      32.295 -14.033 -21.690  0.00  0.00    -0.132 NA
ATOM     13  N   UNL     1      32.536 -14.747 -22.819  0.00  0.00    -0.237 N 
ATOM     14  C   UNL     1      32.357 -12.817 -22.109  0.00  0.00    +0.248 A 
ATOM     15  C   UNL     1      32.733 -13.913 -23.880  0.00  0.00    +0.264 A 
ATOM     16  H   UNL     1      32.563 -15.730 -22.866  0.00  0.00    +0.193 HD
ENDBRANCH   6  14
BRANCH   1  17
ATOM     17  C   UNL     1      32.925  -7.325 -22.662  0.00  0.00    +0.053 C 
ATOM     18  C   UNL     1      34.229  -7.563 -23.094  0.00  0.00    +0.018 C 
ATOM     19  C   UNL     1      32.070  -6.528 -23.425  0.00  0.00    +0.018 C 
ATOM     20  C   UNL     1      34.679  -7.006 -24.291  0.00  0.00    +0.038 C 
ATOM     21  C   UNL     1      32.521  -5.971 -24.621  0.00  0.00    +0.038 C 
ATOM     22  C   UNL     1      33.825  -6.211 -25.055  0.00  0.00    +0.139 C 
BRANCH  22  23
ATOM     23  O   UNL     1      34.265  -5.667 -26.223  0.00  0.00    -0.471 OA
ATOM     24  C   UNL     1      33.323  -4.910 -26.981  0.00  0.00    +0.252 C 
ENDBRANCH  22  23
ENDBRANCH   1  17
TORSDOF 3
ENDMDL
MODEL 8
REMARK VINA RESULT:      -9.7      4.232      6.740
REMARK  Name = 25181321
REMARK  3 active torsions:
REMARK  status: ('A' for Active; 'I' for Inactive)
REMARK    1  A    between atoms: N_1  and  C_17
REMARK    2  A    between atoms: C_6  and  C_14
REMARK    3  A    between atoms: C_22  and  O_23
REMARK                            x       y       z     vdW  Elec       q    Type
REMARK                         _______ _______ _______ _____ _____    ______ ____
ROOT
ATOM      1  N   UNL     1      31.957  -9.901 -21.485  0.00  0.00    -0.265 N 
ATOM      2  N   UNL     1      31.567 -10.939 -19.559  0.00  0.00    -0.250 NA
ATOM      3  C   UNL     1      32.154 -11.233 -21.741  0.00  0.00    +0.067 C 
ATOM      4  C   UNL     1      31.904 -11.860 -20.524  0.00  0.00    +0.074 C 
ATOM      5  C   UNL     1      32.518 -11.923 -22.899  0.00  0.00    +0.020 C 
ATOM      6  C   UNL     1      32.629 -13.314 -22.794  0.00  0.00    +0.052 C 
ATOM      7  C   UNL     1      31.607  -9.776 -20.169  0.00  0.00    +0.224 C 
ATOM      8  C   UNL     1      32.020 -13.258 -20.437  0.00  0.00    +0.073 C 
ATOM      9  C   UNL     1      32.384 -13.971 -21.586  0.00  0.00    -0.015 C 
ENDROOT
BRANCH   6  14
ATOM     10  S   UNL     1      34.566 -17.237 -25.149  0.00  0.00    +0.011 S 
ATOM     11  O   UNL     1      33.599 -15.273 -23.692  0.00  0.00    -0.412 OA
ATOM     12  N   UNL     1      32.847 -13.793 -25.211  0.00  0.00    -0.132 NA
ATOM     13  N   UNL     1      33.379 -14.873 -25.839  0.00  0.00    -0.237 N 
ATOM     14  C   UNL     1      33.005 -14.087 -23.966  0.00  0.00    +0.248 A 
ATOM     15  C   UNL     1      33.839 -15.778 -24.929  0.00  0.00    +0.264 A 
ATOM     16  H   UNL     1      33.426 -14.985 -26.816  0.00  0.00    +0.193 HD
ENDBRANCH   6  14
BRANCH   1  17
ATOM     17  C   UNL     1      32.085  -8.847 -22.390  0.00  0.00    +0.053 C 
ATOM     18  C   UNL     1      33.282  -8.135 -22.464  0.00  0.00    +0.018 C 
ATOM     19  C   UNL     1      31.016  -8.506 -23.218  0.00  0.00    +0.018 C 
ATOM     20  C   UNL     1      33.410  -7.082 -23.369  0.00  0.00    +0.038 C 
ATOM     21  C   UNL     1      31.145  -7.452 -24.122  0.00  0.00    +0.038 C 
ATOM     22  C   UNL     1      32.342  -6.740 -24.198  0.00  0.00    +0.139 C 
BRANCH  22  23
ATOM     23  O   UNL     1      32.468  -5.711 -25.081  0.00  0.00    -0.471 OA
ATOM     24  C   UNL     1      31.582  -4.605 -24.917  0.00  0.00    +0.252 C 
ENDBRANCH  22  23
ENDBRANCH   1  17
TORSDOF 3
ENDMDL
MODEL 9
REMARK VINA RESULT:      -9.4      6.208     10.573
REMARK  Name = 25181321
REMARK  3 active torsions:
REMARK  status: ('A' for Active; 'I' for Inactive)
REMARK    1  A    between atoms: N_1  and  C_17
REMARK    2  A    between atoms: C_6  and  C_14
REMARK    3  A    between atoms: C_22  and  O_23
REMARK                            x       y       z     vdW  Elec       q    Type
REMARK                         _______ _______ _______ _____ _____    ______ ____
ROOT
ATOM      1  N   UNL     1      34.260 -23.889 -14.681  0.00  0.00    -0.265 N 
ATOM      2  N   UNL     1      36.282 -24.045 -13.772  0.00  0.00    -0.250 NA
ATOM      3  C   UNL     1      35.110 -23.292 -15.576  0.00  0.00    +0.067 C 
ATOM      4  C   UNL     1      36.367 -23.403 -14.986  0.00  0.00    +0.074 C 
ATOM      5  C   UNL     1      34.896 -22.684 -16.814  0.00  0.00    +0.020 C 
ATOM      6  C   UNL     1      36.021 -22.169 -17.466  0.00  0.00    +0.052 C 
ATOM      7  C   UNL     1      35.007 -24.323 -13.621  0.00  0.00    +0.224 C 
ATOM      8  C   UNL     1      37.486 -22.881 -15.656  0.00  0.00    +0.073 C 
ATOM      9  C   UNL     1      37.294 -22.266 -16.899  0.00  0.00    -0.015 C 
ENDROOT
BRANCH   6  14
ATOM     10  S   UNL     1      33.445 -19.900 -21.058  0.00  0.00    +0.011 S 
ATOM     11  O   UNL     1      34.598 -21.114 -19.030  0.00  0.00    -0.412 OA
ATOM     12  N   UNL     1      36.750 -21.297 -19.663  0.00  0.00    -0.132 NA
ATOM     13  N   UNL     1      36.032 -20.677 -20.635  0.00  0.00    -0.237 N 
ATOM     14  C   UNL     1      35.860 -21.524 -18.759  0.00  0.00    +0.248 A 
ATOM     15  C   UNL     1      34.725 -20.560 -20.264  0.00  0.00    +0.264 A 
ATOM     16  H   UNL     1      36.404 -20.358 -21.489  0.00  0.00    +0.193 HD
ENDBRANCH   6  14
BRANCH   1  17
ATOM     17  C   UNL     1      32.880 -24.036 -14.810  0.00  0.00    +0.053 C 
ATOM     18  C   UNL     1      32.185 -24.881 -13.945  0.00  0.00    +0.018 C 
ATOM     19  C   UNL     1      32.194 -23.339 -15.805  0.00  0.00    +0.018 C 
ATOM     20  C   UNL     1      30.804 -25.028 -14.074  0.00  0.00    +0.038 C 
ATOM     21  C   UNL     1      30.814 -23.487 -15.935  0.00  0.00    +0.038 C 
ATOM     22  C   UNL     1      30.118 -24.331 -15.068  0.00  0.00    +0.139 C 
BRANCH  22  23
ATOM     23  O   UNL     1      28.770 -24.475 -15.194  0.00  0.00    -0.471 OA
ATOM     24  C   UNL     1      28.193 -24.103 -16.445  0.00  0.00    +0.252 C 
ENDBRANCH  22  23
ENDBRANCH   1  17
TORSDOF 3
ENDMDL
