MODEL 1
REMARK VINA RESULT:      -8.1      0.000      0.000
REMARK  Name = 77991
REMARK  5 active torsions:
REMARK  status: ('A' for Active; 'I' for Inactive)
REMARK    1  A    between atoms: C_1  and  C_7
REMARK    2  A    between atoms: C_4  and  O_13
REMARK    3  A    between atoms: C_7  and  N_9
REMARK    4  A    between atoms: O_13  and  C_16
REMARK    5  A    between atoms: N_15  and  C_18
REMARK                            x       y       z     vdW  Elec       q    Type
REMARK                         _______ _______ _______ _____ _____    ______ ____
ROOT
ATOM      1  C   UNL     1      34.716 -16.307 -22.857  0.00  0.00    -0.039 C 
ATOM      2  C   UNL     1      35.038 -17.241 -21.872  0.00  0.00    +0.031 C 
ATOM      3  C   UNL     1      34.564 -16.714 -24.183  0.00  0.00    -0.006 C 
ATOM      4  C   UNL     1      35.198 -18.558 -22.240  0.00  0.00    +0.150 C 
ATOM      5  C   UNL     1      34.733 -18.056 -24.523  0.00  0.00    +0.003 C 
ATOM      6  C   UNL     1      35.054 -18.991 -23.540  0.00  0.00    +0.038 C 
ENDROOT
BRANCH   1   7
ATOM      7  C   UNL     1      34.536 -14.872 -22.493  0.00  0.00    -0.035 C 
ATOM      8  C   UNL     1      34.409 -14.654 -20.974  0.00  0.00    -0.018 C 
BRANCH   7   9
ATOM      9  N   UNL     1      33.358 -14.268 -23.144  0.00  0.00    +0.388 N 
ATOM     10  C   UNL     1      33.759 -13.096 -23.913  0.00  0.00    -0.100 C 
ATOM     11  C   UNL     1      32.359 -13.919 -22.141  0.00  0.00    -0.100 C 
ATOM     12  H   UNL     1      32.944 -14.946 -23.785  0.00  0.00    -0.079 HD
ENDBRANCH   7   9
ENDBRANCH   1   7
BRANCH   4  13
ATOM     13  O   UNL     1      35.520 -19.496 -21.254  0.00  0.00    -0.410 OA
BRANCH  13  16
ATOM     14  O   UNL     1      33.255 -19.731 -20.842  0.00  0.00    -0.226 OA
ATOM     15  N   UNL     1      34.770 -21.190 -19.851  0.00  0.00    -0.244 N 
ATOM     16  C   UNL     1      34.411 -20.109 -20.663  0.00  0.00    +0.409 C 
ATOM     17  C   UNL     1      33.745 -21.952 -19.152  0.00  0.00    +0.118 C 
BRANCH  15  18
ATOM     18  C   UNL     1      36.146 -21.633 -19.647  0.00  0.00    +0.097 C 
ATOM     19  C   UNL     1      36.474 -21.653 -18.166  0.00  0.00    +0.023 C 
ENDBRANCH  15  18
ENDBRANCH  13  16
ENDBRANCH   4  13
TORSDOF 5
ENDMDL
MODEL 2
REMARK VINA RESULT:      -7.9      2.100      5.947
REMARK  Name = 77991
REMARK  5 active torsions:
REMARK  status: ('A' for Active; 'I' for Inactive)
REMARK    1  A    between atoms: C_1  and  C_7
REMARK    2  A    between atoms: C_4  and  O_13
REMARK    3  A    between atoms: C_7  and  N_9
REMARK    4  A    between atoms: O_13  and  C_16
REMARK    5  A    between atoms: N_15  and  C_18
REMARK                            x       y       z     vdW  Elec       q    Type
REMARK                         _______ _______ _______ _____ _____    ______ ____
ROOT
ATOM      1  C   UNL     1      35.025 -18.776 -22.030  0.00  0.00    -0.039 C 
ATOM      2  C   UNL     1      35.173 -17.390 -22.076  0.00  0.00    +0.031 C 
ATOM      3  C   UNL     1      34.772 -19.490 -23.201  0.00  0.00    -0.006 C 
ATOM      4  C   UNL     1      35.063 -16.755 -23.292  0.00  0.00    +0.150 C 
ATOM      5  C   UNL     1      34.667 -18.818 -24.418  0.00  0.00    +0.003 C 
ATOM      6  C   UNL     1      34.814 -17.432 -24.465  0.00  0.00    +0.038 C 
ENDROOT
BRANCH   1   7
ATOM      7  C   UNL     1      35.138 -19.495 -20.728  0.00  0.00    -0.035 C 
ATOM      8  C   UNL     1      36.546 -20.064 -20.481  0.00  0.00    -0.018 C 
BRANCH   7   9
ATOM      9  N   UNL     1      34.168 -20.600 -20.608  0.00  0.00    +0.388 N 
ATOM     10  C   UNL     1      32.834 -20.068 -20.359  0.00  0.00    -0.100 C 
ATOM     11  C   UNL     1      34.577 -21.508 -19.543  0.00  0.00    -0.100 C 
ATOM     12  H   UNL     1      34.146 -21.124 -21.484  0.00  0.00    -0.079 HD
ENDBRANCH   7   9
ENDBRANCH   1   7
BRANCH   4  13
ATOM     13  O   UNL     1      35.211 -15.365 -23.340  0.00  0.00    -0.410 OA
BRANCH  13  16
ATOM     14  O   UNL     1      33.626 -14.579 -24.833  0.00  0.00    -0.226 OA
ATOM     15  N   UNL     1      33.410 -14.116 -22.564  0.00  0.00    -0.244 N 
ATOM     16  C   UNL     1      34.042 -14.676 -23.679  0.00  0.00    +0.409 C 
ATOM     17  C   UNL     1      32.176 -13.360 -22.726  0.00  0.00    +0.118 C 
BRANCH  15  18
ATOM     18  C   UNL     1      33.910 -14.239 -21.199  0.00  0.00    +0.097 C 
ATOM     19  C   UNL     1      32.908 -14.988 -20.341  0.00  0.00    +0.023 C 
ENDBRANCH  15  18
ENDBRANCH  13  16
ENDBRANCH   4  13
TORSDOF 5
ENDMDL
MODEL 3
REMARK VINA RESULT:      -7.8      1.913      6.459
REMARK  Name = 77991
REMARK  5 active torsions:
REMARK  status: ('A' for Active; 'I' for Inactive)
REMARK    1  A    between atoms: C_1  and  C_7
REMARK    2  A    between atoms: C_4  and  O_13
REMARK    3  A    between atoms: C_7  and  N_9
REMARK    4  A    between atoms: O_13  and  C_16
REMARK    5  A    between atoms: N_15  and  C_18
REMARK                            x       y       z     vdW  Elec       q    Type
REMARK                         _______ _______ _______ _____ _____    ______ ____
ROOT
ATOM      1  C   UNL     1      35.087 -18.613 -22.016  0.00  0.00    -0.039 C 
ATOM      2  C   UNL     1      35.185 -17.221 -22.027  0.00  0.00    +0.031 C 
ATOM      3  C   UNL     1      34.822 -19.303 -23.199  0.00  0.00    -0.006 C 
ATOM      4  C   UNL     1      35.016 -16.558 -23.221  0.00  0.00    +0.150 C 
ATOM      5  C   UNL     1      34.655 -18.601 -24.393  0.00  0.00    +0.003 C 
ATOM      6  C   UNL     1      34.753 -17.211 -24.405  0.00  0.00    +0.038 C 
ENDROOT
BRANCH   1   7
ATOM      7  C   UNL     1      35.264 -19.363 -20.740  0.00  0.00    -0.035 C 
ATOM      8  C   UNL     1      36.720 -19.805 -20.506  0.00  0.00    -0.018 C 
BRANCH   7   9
ATOM      9  N   UNL     1      34.403 -20.558 -20.663  0.00  0.00    +0.388 N 
ATOM     10  C   UNL     1      33.039 -20.169 -20.327  0.00  0.00    -0.100 C 
ATOM     11  C   UNL     1      34.936 -21.494 -19.680  0.00  0.00    -0.100 C 
ATOM     12  H   UNL     1      34.390 -21.022 -21.572  0.00  0.00    -0.079 HD
ENDBRANCH   7   9
ENDBRANCH   1   7
BRANCH   4  13
ATOM     13  O   UNL     1      35.114 -15.163 -23.234  0.00  0.00    -0.410 OA
BRANCH  13  16
ATOM     14  O   UNL     1      34.096 -14.671 -21.214  0.00  0.00    -0.226 OA
ATOM     15  N   UNL     1      33.328 -13.677 -23.170  0.00  0.00    -0.244 N 
ATOM     16  C   UNL     1      34.170 -14.514 -22.431  0.00  0.00    +0.409 C 
ATOM     17  C   UNL     1      32.280 -12.918 -22.501  0.00  0.00    +0.118 C 
BRANCH  15  18
ATOM     18  C   UNL     1      33.425 -13.495 -24.615  0.00  0.00    +0.097 C 
ATOM     19  C   UNL     1      33.805 -12.062 -24.936  0.00  0.00    +0.023 C 
ENDBRANCH  15  18
ENDBRANCH  13  16
ENDBRANCH   4  13
TORSDOF 5
ENDMDL
MODEL 4
REMARK VINA RESULT:      -7.7      1.793      6.925
REMARK  Name = 77991
REMARK  5 active torsions:
REMARK  status: ('A' for Active; 'I' for Inactive)
REMARK    1  A    between atoms: C_1  and  C_7
REMARK    2  A    between atoms: C_4  and  O_13
REMARK    3  A    between atoms: C_7  and  N_9
REMARK    4  A    between atoms: O_13  and  C_16
REMARK    5  A    between atoms: N_15  and  C_18
REMARK                            x       y       z     vdW  Elec       q    Type
REMARK                         _______ _______ _______ _____ _____    ______ ____
ROOT
ATOM      1  C   UNL     1      34.415 -21.374 -19.480  0.00  0.00    -0.039 C 
ATOM      2  C   UNL     1      35.316 -20.535 -20.135  0.00  0.00    +0.031 C 
ATOM      3  C   UNL     1      33.042 -21.172 -19.624  0.00  0.00    -0.006 C 
ATOM      4  C   UNL     1      34.821 -19.516 -20.917  0.00  0.00    +0.150 C 
ATOM      5  C   UNL     1      32.571 -20.130 -20.424  0.00  0.00    +0.003 C 
ATOM      6  C   UNL     1      33.472 -19.291 -21.079  0.00  0.00    +0.038 C 
ENDROOT
BRANCH   1   7
ATOM      7  C   UNL     1      34.918 -22.487 -18.625  0.00  0.00    -0.035 C 
ATOM      8  C   UNL     1      33.825 -23.513 -18.277  0.00  0.00    -0.018 C 
BRANCH   7   9
ATOM      9  N   UNL     1      35.513 -22.005 -17.364  0.00  0.00    +0.388 N 
ATOM     10  C   UNL     1      36.964 -21.937 -17.491  0.00  0.00    -0.100 C 
ATOM     11  C   UNL     1      35.126 -22.880 -16.264  0.00  0.00    -0.100 C 
ATOM     12  H   UNL     1      35.165 -21.067 -17.165  0.00  0.00    -0.079 HD
ENDBRANCH   7   9
ENDBRANCH   1   7
BRANCH   4  13
ATOM     13  O   UNL     1      35.724 -18.674 -21.574  0.00  0.00    -0.410 OA
BRANCH  13  16
ATOM     14  O   UNL     1      35.306 -16.649 -20.533  0.00  0.00    -0.226 OA
ATOM     15  N   UNL     1      35.072 -16.836 -22.839  0.00  0.00    -0.244 N 
ATOM     16  C   UNL     1      35.362 -17.323 -21.560  0.00  0.00    +0.409 C 
ATOM     17  C   UNL     1      34.676 -15.447 -23.020  0.00  0.00    +0.118 C 
BRANCH  15  18
ATOM     18  C   UNL     1      35.144 -17.644 -24.052  0.00  0.00    +0.097 C 
ATOM     19  C   UNL     1      34.516 -16.897 -25.214  0.00  0.00    +0.023 C 
ENDBRANCH  15  18
ENDBRANCH  13  16
ENDBRANCH   4  13
TORSDOF 5
ENDMDL
MODEL 5
REMARK VINA RESULT:      -7.6      3.645      7.468
REMARK  Name = 77991
REMARK  5 active torsions:
REMARK  status: ('A' for Active; 'I' for Inactive)
REMARK    1  A    between atoms: C_1  and  C_7
REMARK    2  A    between atoms: C_4  and  O_13
REMARK    3  A    between atoms: C_7  and  N_9
REMARK    4  A    between atoms: O_13  and  C_16
REMARK    5  A    between atoms: N_15  and  C_18
REMARK                            x       y       z     vdW  Elec       q    Type
REMARK                         _______ _______ _______ _____ _____    ______ ____
ROOT
ATOM      1  C   UNL     1      34.352 -15.819 -22.648  0.00  0.00    -0.039 C 
ATOM      2  C   UNL     1      33.473 -14.868 -23.167  0.00  0.00    +0.031 C 
ATOM      3  C   UNL     1      34.543 -15.913 -21.269  0.00  0.00    -0.006 C 
ATOM      4  C   UNL     1      32.809 -14.037 -22.294  0.00  0.00    +0.150 C 
ATOM      5  C   UNL     1      33.855 -15.056 -20.410  0.00  0.00    +0.003 C 
ATOM      6  C   UNL     1      32.977 -14.105 -20.929  0.00  0.00    +0.038 C 
ENDROOT
BRANCH   1   7
ATOM      7  C   UNL     1      35.087 -16.735 -23.566  0.00  0.00    -0.035 C 
ATOM      8  C   UNL     1      34.577 -16.661 -25.017  0.00  0.00    -0.018 C 
BRANCH   7   9
ATOM      9  N   UNL     1      35.024 -18.143 -23.129  0.00  0.00    +0.388 N 
ATOM     10  C   UNL     1      36.294 -18.537 -22.530  0.00  0.00    -0.100 C 
ATOM     11  C   UNL     1      34.690 -19.002 -24.259  0.00  0.00    -0.100 C 
ATOM     12  H   UNL     1      34.292 -18.243 -22.424  0.00  0.00    -0.079 HD
ENDBRANCH   7   9
ENDBRANCH   1   7
BRANCH   4  13
ATOM     13  O   UNL     1      31.928 -13.083 -22.814  0.00  0.00    -0.410 OA
BRANCH  13  16
ATOM     14  O   UNL     1      33.405 -11.528 -23.685  0.00  0.00    -0.226 OA
ATOM     15  N   UNL     1      31.844 -10.876 -22.089  0.00  0.00    -0.244 N 
ATOM     16  C   UNL     1      32.474 -11.801 -22.928  0.00  0.00    +0.409 C 
ATOM     17  C   UNL     1      32.280  -9.487 -22.074  0.00  0.00    +0.118 C 
BRANCH  15  18
ATOM     18  C   UNL     1      30.738 -11.209 -21.198  0.00  0.00    +0.097 C 
ATOM     19  C   UNL     1      31.156 -11.017 -19.752  0.00  0.00    +0.023 C 
ENDBRANCH  15  18
ENDBRANCH  13  16
ENDBRANCH   4  13
TORSDOF 5
ENDMDL
MODEL 6
REMARK VINA RESULT:      -7.6      2.796      4.605
REMARK  Name = 77991
REMARK  5 active torsions:
REMARK  status: ('A' for Active; 'I' for Inactive)
REMARK    1  A    between atoms: C_1  and  C_7
REMARK    2  A    between atoms: C_4  and  O_13
REMARK    3  A    between atoms: C_7  and  N_9
REMARK    4  A    between atoms: O_13  and  C_16
REMARK    5  A    between atoms: N_15  and  C_18
REMARK                            x       y       z     vdW  Elec       q    Type
REMARK                         _______ _______ _______ _____ _____    ______ ____
ROOT
ATOM      1  C   UNL     1      33.241 -12.811 -23.408  0.00  0.00    -0.039 C 
ATOM      2  C   UNL     1      34.246 -13.734 -23.695  0.00  0.00    +0.031 C 
ATOM      3  C   UNL     1      32.340 -13.059 -22.373  0.00  0.00    -0.006 C 
ATOM      4  C   UNL     1      34.325 -14.881 -22.938  0.00  0.00    +0.150 C 
ATOM      5  C   UNL     1      32.446 -14.231 -21.623  0.00  0.00    +0.003 C 
ATOM      6  C   UNL     1      33.451 -15.154 -21.909  0.00  0.00    +0.038 C 
ENDROOT
BRANCH   1   7
ATOM      7  C   UNL     1      33.128 -11.558 -24.210  0.00  0.00    -0.035 C 
ATOM      8  C   UNL     1      33.990 -11.586 -25.484  0.00  0.00    -0.018 C 
BRANCH   7   9
ATOM      9  N   UNL     1      33.493 -10.357 -23.434  0.00  0.00    +0.388 N 
ATOM     10  C   UNL     1      32.336  -9.480 -23.300  0.00  0.00    -0.100 C 
ATOM     11  C   UNL     1      34.602  -9.665 -24.080  0.00  0.00    -0.100 C 
ATOM     12  H   UNL     1      33.792 -10.639 -22.500  0.00  0.00    -0.079 HD
ENDBRANCH   7   9
ENDBRANCH   1   7
BRANCH   4  13
ATOM     13  O   UNL     1      35.333 -15.807 -23.224  0.00  0.00    -0.410 OA
BRANCH  13  16
ATOM     14  O   UNL     1      34.415 -16.701 -25.152  0.00  0.00    -0.226 OA
ATOM     15  N   UNL     1      35.158 -18.112 -23.460  0.00  0.00    -0.244 N 
ATOM     16  C   UNL     1      34.924 -16.863 -24.044  0.00  0.00    +0.409 C 
ATOM     17  C   UNL     1      34.796 -19.331 -24.170  0.00  0.00    +0.118 C 
BRANCH  15  18
ATOM     18  C   UNL     1      35.765 -18.295 -22.145  0.00  0.00    +0.097 C 
ATOM     19  C   UNL     1      34.720 -18.758 -21.148  0.00  0.00    +0.023 C 
ENDBRANCH  15  18
ENDBRANCH  13  16
ENDBRANCH   4  13
TORSDOF 5
ENDMDL
MODEL 7
REMARK VINA RESULT:      -7.6      3.004      5.115
REMARK  Name = 77991
REMARK  5 active torsions:
REMARK  status: ('A' for Active; 'I' for Inactive)
REMARK    1  A    between atoms: C_1  and  C_7
REMARK    2  A    between atoms: C_4  and  O_13
REMARK    3  A    between atoms: C_7  and  N_9
REMARK    4  A    between atoms: O_13  and  C_16
REMARK    5  A    between atoms: N_15  and  C_18
REMARK                            x       y       z     vdW  Elec       q    Type
REMARK                         _______ _______ _______ _____ _____    ______ ____
ROOT
ATOM      1  C   UNL     1      34.466 -20.077 -20.684  0.00  0.00    -0.039 C 
ATOM      2  C   UNL     1      33.456 -20.812 -20.064  0.00  0.00    +0.031 C 
ATOM      3  C   UNL     1      35.804 -20.343 -20.391  0.00  0.00    -0.006 C 
ATOM      4  C   UNL     1      33.810 -21.794 -19.167  0.00  0.00    +0.150 C 
ATOM      5  C   UNL     1      36.130 -21.345 -19.477  0.00  0.00    +0.003 C 
ATOM      6  C   UNL     1      35.121 -22.080 -18.857  0.00  0.00    +0.038 C 
ENDROOT
BRANCH   1   7
ATOM      7  C   UNL     1      34.117 -19.006 -21.661  0.00  0.00    -0.035 C 
ATOM      8  C   UNL     1      34.588 -19.326 -23.091  0.00  0.00    -0.018 C 
BRANCH   7   9
ATOM      9  N   UNL     1      34.668 -17.692 -21.280  0.00  0.00    +0.388 N 
ATOM     10  C   UNL     1      33.584 -16.749 -21.031  0.00  0.00    -0.100 C 
ATOM     11  C   UNL     1      35.558 -17.202 -22.325  0.00  0.00    -0.100 C 
ATOM     12  H   UNL     1      35.210 -17.792 -20.420  0.00  0.00    -0.079 HD
ENDBRANCH   7   9
ENDBRANCH   1   7
BRANCH   4  13
ATOM     13  O   UNL     1      32.798 -22.532 -18.545  0.00  0.00    -0.410 OA
BRANCH  13  16
ATOM     14  O   UNL     1      34.331 -23.611 -17.187  0.00  0.00    -0.226 OA
ATOM     15  N   UNL     1      32.164 -23.247 -16.426  0.00  0.00    -0.244 N 
ATOM     16  C   UNL     1      33.197 -23.170 -17.366  0.00  0.00    +0.409 C 
ATOM     17  C   UNL     1      32.395 -23.880 -15.136  0.00  0.00    +0.118 C 
BRANCH  15  18
ATOM     18  C   UNL     1      30.822 -22.718 -16.647  0.00  0.00    +0.097 C 
ATOM     19  C   UNL     1      30.029 -22.747 -15.354  0.00  0.00    +0.023 C 
ENDBRANCH  15  18
ENDBRANCH  13  16
ENDBRANCH   4  13
TORSDOF 5
ENDMDL
MODEL 8
REMARK VINA RESULT:      -7.5      8.063      9.910
REMARK  Name = 77991
REMARK  5 active torsions:
REMARK  status: ('A' for Active; 'I' for Inactive)
REMARK    1  A    between atoms: C_1  and  C_7
REMARK    2  A    between atoms: C_4  and  O_13
REMARK    3  A    between atoms: C_7  and  N_9
REMARK    4  A    between atoms: O_13  and  C_16
REMARK    5  A    between atoms: N_15  and  C_18
REMARK                            x       y       z     vdW  Elec       q    Type
REMARK                         _______ _______ _______ _____ _____    ______ ____
ROOT
ATOM      1  C   UNL     1      32.118 -23.371 -15.465  0.00  0.00    -0.039 C 
ATOM      2  C   UNL     1      33.370 -23.483 -14.862  0.00  0.00    +0.031 C 
ATOM      3  C   UNL     1      32.021 -23.128 -16.835  0.00  0.00    -0.006 C 
ATOM      4  C   UNL     1      34.494 -23.349 -15.646  0.00  0.00    +0.150 C 
ATOM      5  C   UNL     1      33.179 -22.996 -17.602  0.00  0.00    +0.003 C 
ATOM      6  C   UNL     1      34.431 -23.109 -17.001  0.00  0.00    +0.038 C 
ENDROOT
BRANCH   1   7
ATOM      7  C   UNL     1      30.880 -23.511 -14.644  0.00  0.00    -0.035 C 
ATOM      8  C   UNL     1      30.981 -24.639 -13.601  0.00  0.00    -0.018 C 
BRANCH   7   9
ATOM      9  N   UNL     1      29.681 -23.754 -15.468  0.00  0.00    +0.388 N 
ATOM     10  C   UNL     1      28.798 -22.595 -15.417  0.00  0.00    -0.100 C 
ATOM     11  C   UNL     1      28.994 -24.955 -15.007  0.00  0.00    -0.100 C 
ATOM     12  H   UNL     1      29.963 -23.899 -16.438  0.00  0.00    -0.079 HD
ENDBRANCH   7   9
ENDBRANCH   1   7
BRANCH   4  13
ATOM     13  O   UNL     1      35.751 -23.461 -15.043  0.00  0.00    -0.410 OA
BRANCH  13  16
ATOM     14  O   UNL     1      36.057 -25.675 -15.647  0.00  0.00    -0.226 OA
ATOM     15  N   UNL     1      36.691 -24.953 -13.529  0.00  0.00    -0.244 N 
ATOM     16  C   UNL     1      36.159 -24.778 -14.811  0.00  0.00    +0.409 C 
ATOM     17  C   UNL     1      37.170 -26.262 -13.108  0.00  0.00    +0.118 C 
BRANCH  15  18
ATOM     18  C   UNL     1      36.811 -23.882 -12.545  0.00  0.00    +0.097 C 
ATOM     19  C   UNL     1      35.647 -23.930 -11.575  0.00  0.00    +0.023 C 
ENDBRANCH  15  18
ENDBRANCH  13  16
ENDBRANCH   4  13
TORSDOF 5
ENDMDL
MODEL 9
REMARK VINA RESULT:      -7.5      4.219      8.741
REMARK  Name = 77991
REMARK  5 active torsions:
REMARK  status: ('A' for Active; 'I' for Inactive)
REMARK    1  A    between atoms: C_1  and  C_7
REMARK    2  A    between atoms: C_4  and  O_13
REMARK    3  A    between atoms: C_7  and  N_9
REMARK    4  A    between atoms: O_13  and  C_16
REMARK    5  A    between atoms: N_15  and  C_18
REMARK                            x       y       z     vdW  Elec       q    Type
REMARK                         _______ _______ _______ _____ _____    ______ ____
ROOT
ATOM      1  C   UNL     1      32.033 -23.116 -15.515  0.00  0.00    -0.039 C 
ATOM      2  C   UNL     1      32.097 -22.997 -16.903  0.00  0.00    +0.031 C 
ATOM      3  C   UNL     1      33.207 -23.219 -14.768  0.00  0.00    -0.006 C 
ATOM      4  C   UNL     1      33.333 -22.985 -17.508  0.00  0.00    +0.150 C 
ATOM      5  C   UNL     1      34.445 -23.203 -15.411  0.00  0.00    +0.003 C 
ATOM      6  C   UNL     1      34.510 -23.085 -16.798  0.00  0.00    +0.038 C 
ENDROOT
BRANCH   1   7
ATOM      7  C   UNL     1      30.709 -23.132 -14.828  0.00  0.00    -0.035 C 
ATOM      8  C   UNL     1      30.696 -24.033 -13.580  0.00  0.00    -0.018 C 
BRANCH   7   9
ATOM      9  N   UNL     1      29.616 -23.568 -15.719  0.00  0.00    +0.388 N 
ATOM     10  C   UNL     1      28.622 -22.508 -15.843  0.00  0.00    -0.100 C 
ATOM     11  C   UNL     1      29.014 -24.792 -15.208  0.00  0.00    -0.100 C 
ATOM     12  H   UNL     1      29.996 -23.761 -16.647  0.00  0.00    -0.079 HD
ENDBRANCH   7   9
ENDBRANCH   1   7
BRANCH   4  13
ATOM     13  O   UNL     1      33.399 -22.866 -18.900  0.00  0.00    -0.410 OA
BRANCH  13  16
ATOM     14  O   UNL     1      32.335 -20.847 -19.285  0.00  0.00    -0.226 OA
ATOM     15  N   UNL     1      34.551 -21.130 -19.929  0.00  0.00    -0.244 N 
ATOM     16  C   UNL     1      33.342 -21.549 -19.366  0.00  0.00    +0.409 C 
ATOM     17  C   UNL     1      34.679 -19.784 -20.468  0.00  0.00    +0.118 C 
BRANCH  15  18
ATOM     18  C   UNL     1      35.742 -21.970 -20.017  0.00  0.00    +0.097 C 
ATOM     19  C   UNL     1      36.841 -21.413 -19.132  0.00  0.00    +0.023 C 
ENDBRANCH  15  18
ENDBRANCH  13  16
ENDBRANCH   4  13
TORSDOF 5
ENDMDL
