MODEL 1
REMARK VINA RESULT:     -10.3      0.000      0.000
REMARK  Name = 449013
REMARK  7 active torsions:
REMARK  status: ('A' for Active; 'I' for Inactive)
REMARK    1  A    between atoms: C_1  and  N_2
REMARK    2  A    between atoms: C_1  and  C_12
REMARK    3  A    between atoms: C_1  and  C_16
REMARK    4  A    between atoms: C_6  and  C_9
REMARK    5  A    between atoms: C_12  and  O_14
REMARK    6  A    between atoms: C_16  and  C_17
REMARK    7  A    between atoms: C_17  and  C_18
REMARK                            x       y       z     vdW  Elec       q    Type
REMARK                         _______ _______ _______ _____ _____    ______ ____
ROOT
ATOM      1  C   UNL     1      35.823 -24.551 -13.477  0.00  0.00    +0.087 C 
ENDROOT
BRANCH   1   2
ATOM      2  N   UNL     1      37.041 -25.271 -13.878  0.00  0.00    -0.246 NA
ATOM      3  N   UNL     1      38.310 -26.883 -14.657  0.00  0.00    -0.251 NA
ATOM      4  C   UNL     1      38.299 -24.794 -13.778  0.00  0.00    +0.125 C 
ATOM      5  C   UNL     1      37.074 -26.515 -14.403  0.00  0.00    +0.201 C 
ATOM      6  C   UNL     1      39.079 -25.815 -14.269  0.00  0.00    +0.124 C 
BRANCH   6   9
ATOM      7  O   UNL     1      41.165 -24.817 -14.759  0.00  0.00    -0.269 OA
ATOM      8  N   UNL     1      41.191 -26.974 -14.023  0.00  0.00    -0.324 N 
ATOM      9  C   UNL     1      40.505 -25.810 -14.381  0.00  0.00    +0.257 C 
ATOM     10  H   UNL     1      42.173 -27.007 -14.088  0.00  0.00    +0.145 HD
ATOM     11  H   UNL     1      40.692 -27.762 -13.708  0.00  0.00    +0.145 HD
ENDBRANCH   6   9
ENDBRANCH   1   2
BRANCH   1  12
ATOM     12  C   UNL     1      35.719 -24.373 -11.940  0.00  0.00    +0.125 C 
ATOM     13  C   UNL     1      36.590 -23.246 -11.392  0.00  0.00    +0.033 C 
BRANCH  12  14
ATOM     14  O   UNL     1      36.041 -25.586 -11.266  0.00  0.00    -0.383 OA
ATOM     15  H   UNL     1      36.932 -25.522 -10.891  0.00  0.00    +0.210 HD
ENDBRANCH  12  14
ENDBRANCH   1  12
BRANCH   1  16
ATOM     16  C   UNL     1      35.640 -23.200 -14.217  0.00  0.00    +0.023 C 
BRANCH  16  17
ATOM     17  C   UNL     1      36.085 -23.203 -15.692  0.00  0.00    +0.028 C 
BRANCH  17  18
ATOM     18  C   UNL     1      34.998 -22.899 -16.678  0.00  0.00    -0.022 C 
ATOM     19  C   UNL     1      35.248 -22.191 -17.866  0.00  0.00    -0.004 C 
ATOM     20  C   UNL     1      33.714 -23.348 -16.373  0.00  0.00    -0.004 C 
ATOM     21  C   UNL     1      34.178 -21.936 -18.756  0.00  0.00    -0.000 C 
ATOM     22  C   UNL     1      36.535 -21.731 -18.189  0.00  0.00    -0.000 C 
ATOM     23  C   UNL     1      32.661 -23.098 -17.248  0.00  0.00    -0.000 C 
ATOM     24  C   UNL     1      32.891 -22.396 -18.434  0.00  0.00    -0.000 C 
ATOM     25  C   UNL     1      34.426 -21.229 -19.943  0.00  0.00    -0.000 C 
ATOM     26  C   UNL     1      36.763 -21.030 -19.373  0.00  0.00    -0.000 C 
ATOM     27  C   UNL     1      35.710 -20.779 -20.249  0.00  0.00    -0.000 C 
ENDBRANCH  17  18
ENDBRANCH  16  17
ENDBRANCH   1  16
TORSDOF 7
ENDMDL
MODEL 2
REMARK VINA RESULT:     -10.2      1.528      2.111
REMARK  Name = 449013
REMARK  7 active torsions:
REMARK  status: ('A' for Active; 'I' for Inactive)
REMARK    1  A    between atoms: C_1  and  N_2
REMARK    2  A    between atoms: C_1  and  C_12
REMARK    3  A    between atoms: C_1  and  C_16
REMARK    4  A    between atoms: C_6  and  C_9
REMARK    5  A    between atoms: C_12  and  O_14
REMARK    6  A    between atoms: C_16  and  C_17
REMARK    7  A    between atoms: C_17  and  C_18
REMARK                            x       y       z     vdW  Elec       q    Type
REMARK                         _______ _______ _______ _____ _____    ______ ____
ROOT
ATOM      1  C   UNL     1      35.730 -23.961 -15.648  0.00  0.00    +0.087 C 
ENDROOT
BRANCH   1   2
ATOM      2  N   UNL     1      36.887 -24.795 -15.288  0.00  0.00    -0.246 NA
ATOM      3  N   UNL     1      38.057 -26.592 -14.823  0.00  0.00    -0.251 NA
ATOM      4  C   UNL     1      38.132 -24.337 -15.040  0.00  0.00    +0.125 C 
ATOM      5  C   UNL     1      36.868 -26.138 -15.152  0.00  0.00    +0.201 C 
ATOM      6  C   UNL     1      38.850 -25.474 -14.752  0.00  0.00    +0.124 C 
BRANCH   6   9
ATOM      7  O   UNL     1      40.957 -24.521 -14.261  0.00  0.00    -0.269 OA
ATOM      8  N   UNL     1      40.811 -26.796 -14.230  0.00  0.00    -0.324 N 
ATOM      9  C   UNL     1      40.239 -25.534 -14.416  0.00  0.00    +0.257 C 
ATOM     10  H   UNL     1      41.765 -26.874 -13.999  0.00  0.00    +0.145 HD
ATOM     11  H   UNL     1      40.261 -27.605 -14.332  0.00  0.00    +0.145 HD
ENDBRANCH   6   9
ENDBRANCH   1   2
BRANCH   1  12
ATOM     12  C   UNL     1      34.660 -23.915 -14.526  0.00  0.00    +0.125 C 
ATOM     13  C   UNL     1      33.291 -23.438 -15.002  0.00  0.00    +0.033 C 
BRANCH  12  14
ATOM     14  O   UNL     1      35.095 -23.096 -13.444  0.00  0.00    -0.383 OA
ATOM     15  H   UNL     1      34.391 -23.036 -12.781  0.00  0.00    +0.210 HD
ENDBRANCH  12  14
ENDBRANCH   1  12
BRANCH   1  16
ATOM     16  C   UNL     1      36.124 -22.535 -16.113  0.00  0.00    +0.023 C 
BRANCH  16  17
ATOM     17  C   UNL     1      36.449 -22.409 -17.615  0.00  0.00    +0.028 C 
BRANCH  17  18
ATOM     18  C   UNL     1      35.320 -21.910 -18.463  0.00  0.00    -0.022 C 
ATOM     19  C   UNL     1      35.516 -20.958 -19.478  0.00  0.00    -0.004 C 
ATOM     20  C   UNL     1      34.051 -22.430 -18.210  0.00  0.00    -0.004 C 
ATOM     21  C   UNL     1      34.408 -20.527 -20.244  0.00  0.00    -0.000 C 
ATOM     22  C   UNL     1      36.787 -20.423 -19.746  0.00  0.00    -0.000 C 
ATOM     23  C   UNL     1      32.961 -22.007 -18.964  0.00  0.00    -0.000 C 
ATOM     24  C   UNL     1      33.137 -21.061 -19.976  0.00  0.00    -0.000 C 
ATOM     25  C   UNL     1      34.603 -19.574 -21.258  0.00  0.00    -0.000 C 
ATOM     26  C   UNL     1      36.962 -19.479 -20.758  0.00  0.00    -0.000 C 
ATOM     27  C   UNL     1      35.872 -19.054 -21.512  0.00  0.00    -0.000 C 
ENDBRANCH  17  18
ENDBRANCH  16  17
ENDBRANCH   1  16
TORSDOF 7
ENDMDL
MODEL 3
REMARK VINA RESULT:     -10.2      8.729     12.348
REMARK  Name = 449013
REMARK  7 active torsions:
REMARK  status: ('A' for Active; 'I' for Inactive)
REMARK    1  A    between atoms: C_1  and  N_2
REMARK    2  A    between atoms: C_1  and  C_12
REMARK    3  A    between atoms: C_1  and  C_16
REMARK    4  A    between atoms: C_6  and  C_9
REMARK    5  A    between atoms: C_12  and  O_14
REMARK    6  A    between atoms: C_16  and  C_17
REMARK    7  A    between atoms: C_17  and  C_18
REMARK                            x       y       z     vdW  Elec       q    Type
REMARK                         _______ _______ _______ _____ _____    ______ ____
ROOT
ATOM      1  C   UNL     1      33.665 -15.960 -23.105  0.00  0.00    +0.087 C 
ENDROOT
BRANCH   1   2
ATOM      2  N   UNL     1      33.328 -14.531 -23.018  0.00  0.00    -0.246 NA
ATOM      3  N   UNL     1      32.350 -12.690 -22.333  0.00  0.00    -0.251 NA
ATOM      4  C   UNL     1      33.871 -13.553 -23.774  0.00  0.00    +0.125 C 
ATOM      5  C   UNL     1      32.426 -13.992 -22.169  0.00  0.00    +0.201 C 
ATOM      6  C   UNL     1      33.249 -12.410 -23.332  0.00  0.00    +0.124 C 
BRANCH   6   9
ATOM      7  O   UNL     1      32.731 -10.114 -23.551  0.00  0.00    -0.269 OA
ATOM      8  N   UNL     1      34.601 -10.865 -24.616  0.00  0.00    -0.324 N 
ATOM      9  C   UNL     1      33.474 -11.083 -23.819  0.00  0.00    +0.257 C 
ATOM     10  H   UNL     1      34.786  -9.964 -24.969  0.00  0.00    +0.145 HD
ATOM     11  H   UNL     1      35.207 -11.611 -24.826  0.00  0.00    +0.145 HD
ENDBRANCH   6   9
ENDBRANCH   1   2
BRANCH   1  12
ATOM     12  C   UNL     1      34.684 -16.261 -24.234  0.00  0.00    +0.125 C 
ATOM     13  C   UNL     1      34.344 -17.502 -25.053  0.00  0.00    +0.033 C 
BRANCH  12  14
ATOM     14  O   UNL     1      36.001 -16.391 -23.707  0.00  0.00    -0.383 OA
ATOM     15  H   UNL     1      36.632 -16.499 -24.436  0.00  0.00    +0.210 HD
ENDBRANCH  12  14
ENDBRANCH   1  12
BRANCH   1  16
ATOM     16  C   UNL     1      34.124 -16.564 -21.752  0.00  0.00    +0.023 C 
BRANCH  16  17
ATOM     17  C   UNL     1      33.674 -18.017 -21.505  0.00  0.00    +0.028 C 
BRANCH  17  18
ATOM     18  C   UNL     1      34.750 -18.934 -21.009  0.00  0.00    -0.022 C 
ATOM     19  C   UNL     1      34.458 -20.111 -20.300  0.00  0.00    -0.004 C 
ATOM     20  C   UNL     1      36.071 -18.575 -21.280  0.00  0.00    -0.004 C 
ATOM     21  C   UNL     1      35.520 -20.934 -19.859  0.00  0.00    -0.000 C 
ATOM     22  C   UNL     1      33.134 -20.487 -20.018  0.00  0.00    -0.000 C 
ATOM     23  C   UNL     1      37.116 -19.385 -20.846  0.00  0.00    -0.000 C 
ATOM     24  C   UNL     1      36.844 -20.559 -20.140  0.00  0.00    -0.000 C 
ATOM     25  C   UNL     1      35.228 -22.111 -19.149  0.00  0.00    -0.000 C 
ATOM     26  C   UNL     1      32.863 -21.659 -19.313  0.00  0.00    -0.000 C 
ATOM     27  C   UNL     1      33.908 -22.470 -18.878  0.00  0.00    -0.000 C 
ENDBRANCH  17  18
ENDBRANCH  16  17
ENDBRANCH   1  16
TORSDOF 7
ENDMDL
MODEL 4
REMARK VINA RESULT:     -10.2      5.108      7.856
REMARK  Name = 449013
REMARK  7 active torsions:
REMARK  status: ('A' for Active; 'I' for Inactive)
REMARK    1  A    between atoms: C_1  and  N_2
REMARK    2  A    between atoms: C_1  and  C_12
REMARK    3  A    between atoms: C_1  and  C_16
REMARK    4  A    between atoms: C_6  and  C_9
REMARK    5  A    between atoms: C_12  and  O_14
REMARK    6  A    between atoms: C_16  and  C_17
REMARK    7  A    between atoms: C_17  and  C_18
REMARK                            x       y       z     vdW  Elec       q    Type
REMARK                         _______ _______ _______ _____ _____    ______ ____
ROOT
ATOM      1  C   UNL     1      30.783 -23.222 -14.375  0.00  0.00    +0.087 C 
ENDROOT
BRANCH   1   2
ATOM      2  N   UNL     1      29.732 -22.883 -15.346  0.00  0.00    -0.246 NA
ATOM      3  N   UNL     1      28.767 -22.516 -17.283  0.00  0.00    -0.251 NA
ATOM      4  C   UNL     1      28.461 -22.548 -15.037  0.00  0.00    +0.125 C 
ATOM      5  C   UNL     1      29.889 -22.855 -16.687  0.00  0.00    +0.201 C 
ATOM      6  C   UNL     1      27.873 -22.323 -16.259  0.00  0.00    +0.124 C 
BRANCH   6   9
ATOM      7  O   UNL     1      25.604 -22.087 -15.640  0.00  0.00    -0.269 OA
ATOM      8  N   UNL     1      26.201 -21.338 -17.708  0.00  0.00    -0.324 N 
ATOM      9  C   UNL     1      26.514 -21.937 -16.484  0.00  0.00    +0.257 C 
ATOM     10  H   UNL     1      25.275 -21.060 -17.898  0.00  0.00    +0.145 HD
ATOM     11  H   UNL     1      26.905 -21.196 -18.381  0.00  0.00    +0.145 HD
ENDBRANCH   6   9
ENDBRANCH   1   2
BRANCH   1  12
ATOM     12  C   UNL     1      30.829 -24.740 -14.059  0.00  0.00    +0.125 C 
ATOM     13  C   UNL     1      29.919 -25.580 -14.951  0.00  0.00    +0.033 C 
BRANCH  12  14
ATOM     14  O   UNL     1      30.506 -24.985 -12.694  0.00  0.00    -0.383 OA
ATOM     15  H   UNL     1      29.924 -24.281 -12.368  0.00  0.00    +0.210 HD
ENDBRANCH  12  14
ENDBRANCH   1  12
BRANCH   1  16
ATOM     16  C   UNL     1      32.182 -22.684 -14.774  0.00  0.00    +0.023 C 
BRANCH  16  17
ATOM     17  C   UNL     1      33.120 -23.728 -15.411  0.00  0.00    +0.028 C 
BRANCH  17  18
ATOM     18  C   UNL     1      34.446 -23.193 -15.858  0.00  0.00    -0.022 C 
ATOM     19  C   UNL     1      34.644 -22.680 -17.151  0.00  0.00    -0.004 C 
ATOM     20  C   UNL     1      35.491 -23.220 -14.936  0.00  0.00    -0.004 C 
ATOM     21  C   UNL     1      35.920 -22.189 -17.512  0.00  0.00    -0.000 C 
ATOM     22  C   UNL     1      33.603 -22.645 -18.093  0.00  0.00    -0.000 C 
ATOM     23  C   UNL     1      36.747 -22.737 -15.290  0.00  0.00    -0.000 C 
ATOM     24  C   UNL     1      36.962 -22.224 -16.571  0.00  0.00    -0.000 C 
ATOM     25  C   UNL     1      36.119 -21.677 -18.805  0.00  0.00    -0.000 C 
ATOM     26  C   UNL     1      33.818 -22.132 -19.372  0.00  0.00    -0.000 C 
ATOM     27  C   UNL     1      35.074 -21.649 -19.728  0.00  0.00    -0.000 C 
ENDBRANCH  17  18
ENDBRANCH  16  17
ENDBRANCH   1  16
TORSDOF 7
ENDMDL
MODEL 5
REMARK VINA RESULT:      -9.9      4.654      7.188
REMARK  Name = 449013
REMARK  7 active torsions:
REMARK  status: ('A' for Active; 'I' for Inactive)
REMARK    1  A    between atoms: C_1  and  N_2
REMARK    2  A    between atoms: C_1  and  C_12
REMARK    3  A    between atoms: C_1  and  C_16
REMARK    4  A    between atoms: C_6  and  C_9
REMARK    5  A    between atoms: C_12  and  O_14
REMARK    6  A    between atoms: C_16  and  C_17
REMARK    7  A    between atoms: C_17  and  C_18
REMARK                            x       y       z     vdW  Elec       q    Type
REMARK                         _______ _______ _______ _____ _____    ______ ____
ROOT
ATOM      1  C   UNL     1      32.375 -23.036 -15.830  0.00  0.00    +0.087 C 
ENDROOT
BRANCH   1   2
ATOM      2  N   UNL     1      30.955 -23.355 -16.040  0.00  0.00    -0.246 NA
ATOM      3  N   UNL     1      29.111 -24.540 -16.144  0.00  0.00    -0.251 NA
ATOM      4  C   UNL     1      30.004 -22.475 -16.420  0.00  0.00    +0.125 C 
ATOM      5  C   UNL     1      30.399 -24.575 -15.882  0.00  0.00    +0.201 C 
ATOM      6  C   UNL     1      28.859 -23.233 -16.479  0.00  0.00    +0.124 C 
BRANCH   6   9
ATOM      7  O   UNL     1      27.075 -22.873 -17.988  0.00  0.00    -0.269 OA
ATOM      8  N   UNL     1      26.773 -22.183 -15.837  0.00  0.00    -0.324 N 
ATOM      9  C   UNL     1      27.555 -22.766 -16.838  0.00  0.00    +0.257 C 
ATOM     10  H   UNL     1      25.871 -21.850 -16.049  0.00  0.00    +0.145 HD
ATOM     11  H   UNL     1      27.125 -22.104 -14.921  0.00  0.00    +0.145 HD
ENDBRANCH   6   9
ENDBRANCH   1   2
BRANCH   1  12
ATOM     12  C   UNL     1      32.924 -23.620 -14.503  0.00  0.00    +0.125 C 
ATOM     13  C   UNL     1      32.084 -23.261 -13.280  0.00  0.00    +0.033 C 
BRANCH  12  14
ATOM     14  O   UNL     1      34.271 -23.209 -14.286  0.00  0.00    -0.383 OA
ATOM     15  H   UNL     1      34.279 -22.347 -13.843  0.00  0.00    +0.210 HD
ENDBRANCH  12  14
ENDBRANCH   1  12
BRANCH   1  16
ATOM     16  C   UNL     1      33.274 -23.423 -17.034  0.00  0.00    +0.023 C 
BRANCH  16  17
ATOM     17  C   UNL     1      33.077 -22.559 -18.295  0.00  0.00    +0.028 C 
BRANCH  17  18
ATOM     18  C   UNL     1      34.319 -21.893 -18.802  0.00  0.00    -0.022 C 
ATOM     19  C   UNL     1      34.283 -20.931 -19.825  0.00  0.00    -0.004 C 
ATOM     20  C   UNL     1      35.529 -22.264 -18.216  0.00  0.00    -0.004 C 
ATOM     21  C   UNL     1      35.492 -20.338 -20.260  0.00  0.00    -0.000 C 
ATOM     22  C   UNL     1      33.074 -20.546 -20.427  0.00  0.00    -0.000 C 
ATOM     23  C   UNL     1      36.718 -21.681 -18.643  0.00  0.00    -0.000 C 
ATOM     24  C   UNL     1      36.701 -20.723 -19.659  0.00  0.00    -0.000 C 
ATOM     25  C   UNL     1      35.456 -19.377 -21.283  0.00  0.00    -0.000 C 
ATOM     26  C   UNL     1      33.058 -19.588 -21.441  0.00  0.00    -0.000 C 
ATOM     27  C   UNL     1      34.247 -19.005 -21.870  0.00  0.00    -0.000 C 
ENDBRANCH  17  18
ENDBRANCH  16  17
ENDBRANCH   1  16
TORSDOF 7
ENDMDL
MODEL 6
REMARK VINA RESULT:      -9.9      1.834      3.261
REMARK  Name = 449013
REMARK  7 active torsions:
REMARK  status: ('A' for Active; 'I' for Inactive)
REMARK    1  A    between atoms: C_1  and  N_2
REMARK    2  A    between atoms: C_1  and  C_12
REMARK    3  A    between atoms: C_1  and  C_16
REMARK    4  A    between atoms: C_6  and  C_9
REMARK    5  A    between atoms: C_12  and  O_14
REMARK    6  A    between atoms: C_16  and  C_17
REMARK    7  A    between atoms: C_17  and  C_18
REMARK                            x       y       z     vdW  Elec       q    Type
REMARK                         _______ _______ _______ _____ _____    ______ ____
ROOT
ATOM      1  C   UNL     1      33.607 -24.224 -15.327  0.00  0.00    +0.087 C 
ENDROOT
BRANCH   1   2
ATOM      2  N   UNL     1      35.000 -24.341 -14.871  0.00  0.00    -0.246 NA
ATOM      3  N   UNL     1      36.925 -23.770 -13.984  0.00  0.00    -0.251 NA
ATOM      4  C   UNL     1      35.769 -25.444 -14.985  0.00  0.00    +0.125 C 
ATOM      5  C   UNL     1      35.710 -23.360 -14.273  0.00  0.00    +0.201 C 
ATOM      6  C   UNL     1      36.968 -25.070 -14.425  0.00  0.00    +0.124 C 
BRANCH   6   9
ATOM      7  O   UNL     1      38.188 -27.078 -14.683  0.00  0.00    -0.269 OA
ATOM      8  N   UNL     1      39.276 -25.315 -13.733  0.00  0.00    -0.324 N 
ATOM      9  C   UNL     1      38.134 -25.889 -14.298  0.00  0.00    +0.257 C 
ATOM     10  H   UNL     1      40.096 -25.850 -13.629  0.00  0.00    +0.145 HD
ATOM     11  H   UNL     1      39.260 -24.376 -13.437  0.00  0.00    +0.145 HD
ENDBRANCH   6   9
ENDBRANCH   1   2
BRANCH   1  12
ATOM     12  C   UNL     1      32.588 -24.430 -14.176  0.00  0.00    +0.125 C 
ATOM     13  C   UNL     1      31.800 -23.172 -13.821  0.00  0.00    +0.033 C 
BRANCH  12  14
ATOM     14  O   UNL     1      33.235 -24.925 -13.008  0.00  0.00    -0.383 OA
ATOM     15  H   UNL     1      33.862 -25.622 -13.256  0.00  0.00    +0.210 HD
ENDBRANCH  12  14
ENDBRANCH   1  12
BRANCH   1  16
ATOM     16  C   UNL     1      33.325 -22.911 -16.104  0.00  0.00    +0.023 C 
BRANCH  16  17
ATOM     17  C   UNL     1      33.390 -23.039 -17.638  0.00  0.00    +0.028 C 
BRANCH  17  18
ATOM     18  C   UNL     1      34.484 -22.250 -18.290  0.00  0.00    -0.022 C 
ATOM     19  C   UNL     1      34.230 -21.352 -19.341  0.00  0.00    -0.004 C 
ATOM     20  C   UNL     1      35.781 -22.438 -17.812  0.00  0.00    -0.004 C 
ATOM     21  C   UNL     1      35.307 -20.637 -19.914  0.00  0.00    -0.000 C 
ATOM     22  C   UNL     1      32.931 -21.151 -19.835  0.00  0.00    -0.000 C 
ATOM     23  C   UNL     1      36.840 -21.733 -18.375  0.00  0.00    -0.000 C 
ATOM     24  C   UNL     1      36.607 -20.837 -19.420  0.00  0.00    -0.000 C 
ATOM     25  C   UNL     1      35.054 -19.739 -20.965  0.00  0.00    -0.000 C 
ATOM     26  C   UNL     1      32.698 -20.255 -20.879  0.00  0.00    -0.000 C 
ATOM     27  C   UNL     1      33.758 -19.551 -21.443  0.00  0.00    -0.000 C 
ENDBRANCH  17  18
ENDBRANCH  16  17
ENDBRANCH   1  16
TORSDOF 7
ENDMDL
MODEL 7
REMARK VINA RESULT:      -9.9     10.839     13.756
REMARK  Name = 449013
REMARK  7 active torsions:
REMARK  status: ('A' for Active; 'I' for Inactive)
REMARK    1  A    between atoms: C_1  and  N_2
REMARK    2  A    between atoms: C_1  and  C_12
REMARK    3  A    between atoms: C_1  and  C_16
REMARK    4  A    between atoms: C_6  and  C_9
REMARK    5  A    between atoms: C_12  and  O_14
REMARK    6  A    between atoms: C_16  and  C_17
REMARK    7  A    between atoms: C_17  and  C_18
REMARK                            x       y       z     vdW  Elec       q    Type
REMARK                         _______ _______ _______ _____ _____    ______ ____
ROOT
ATOM      1  C   UNL     1      33.565 -13.613 -22.536  0.00  0.00    +0.087 C 
ENDROOT
BRANCH   1   2
ATOM      2  N   UNL     1      34.186 -14.783 -21.896  0.00  0.00    -0.246 NA
ATOM      3  N   UNL     1      34.957 -16.086 -20.309  0.00  0.00    -0.251 NA
ATOM      4  C   UNL     1      34.652 -15.871 -22.544  0.00  0.00    +0.125 C 
ATOM      5  C   UNL     1      34.379 -14.935 -20.568  0.00  0.00    +0.201 C 
ATOM      6  C   UNL     1      35.130 -16.676 -21.536  0.00  0.00    +0.124 C 
BRANCH   6   9
ATOM      7  O   UNL     1      35.816 -18.807 -20.779  0.00  0.00    -0.269 OA
ATOM      8  N   UNL     1      36.241 -18.291 -22.958  0.00  0.00    -0.324 N 
ATOM      9  C   UNL     1      35.736 -17.962 -21.697  0.00  0.00    +0.257 C 
ATOM     10  H   UNL     1      36.665 -19.167 -23.105  0.00  0.00    +0.145 HD
ATOM     11  H   UNL     1      36.174 -17.646 -23.699  0.00  0.00    +0.145 HD
ENDBRANCH   6   9
ENDBRANCH   1   2
BRANCH   1  12
ATOM     12  C   UNL     1      33.790 -13.588 -24.070  0.00  0.00    +0.125 C 
ATOM     13  C   UNL     1      33.971 -12.185 -24.641  0.00  0.00    +0.033 C 
BRANCH  12  14
ATOM     14  O   UNL     1      32.720 -14.238 -24.751  0.00  0.00    -0.383 OA
ATOM     15  H   UNL     1      32.998 -14.462 -25.652  0.00  0.00    +0.210 HD
ENDBRANCH  12  14
ENDBRANCH   1  12
BRANCH   1  16
ATOM     16  C   UNL     1      32.064 -13.446 -22.181  0.00  0.00    +0.023 C 
BRANCH  16  17
ATOM     17  C   UNL     1      31.480 -12.050 -22.476  0.00  0.00    +0.028 C 
BRANCH  17  18
ATOM     18  C   UNL     1      31.646 -11.052 -21.371  0.00  0.00    -0.022 C 
ATOM     19  C   UNL     1      32.033  -9.725 -21.619  0.00  0.00    -0.004 C 
ATOM     20  C   UNL     1      31.399 -11.491 -20.071  0.00  0.00    -0.004 C 
ATOM     21  C   UNL     1      32.172  -8.831 -20.531  0.00  0.00    -0.000 C 
ATOM     22  C   UNL     1      32.286  -9.266 -22.922  0.00  0.00    -0.000 C 
ATOM     23  C   UNL     1      31.535 -10.612 -19.000  0.00  0.00    -0.000 C 
ATOM     24  C   UNL     1      31.919  -9.289 -19.228  0.00  0.00    -0.000 C 
ATOM     25  C   UNL     1      32.559  -7.503 -20.779  0.00  0.00    -0.000 C 
ATOM     26  C   UNL     1      32.669  -7.944 -23.149  0.00  0.00    -0.000 C 
ATOM     27  C   UNL     1      32.806  -7.064 -22.079  0.00  0.00    -0.000 C 
ENDBRANCH  17  18
ENDBRANCH  16  17
ENDBRANCH   1  16
TORSDOF 7
ENDMDL
MODEL 8
REMARK VINA RESULT:      -9.8      8.201     11.502
REMARK  Name = 449013
REMARK  7 active torsions:
REMARK  status: ('A' for Active; 'I' for Inactive)
REMARK    1  A    between atoms: C_1  and  N_2
REMARK    2  A    between atoms: C_1  and  C_12
REMARK    3  A    between atoms: C_1  and  C_16
REMARK    4  A    between atoms: C_6  and  C_9
REMARK    5  A    between atoms: C_12  and  O_14
REMARK    6  A    between atoms: C_16  and  C_17
REMARK    7  A    between atoms: C_17  and  C_18
REMARK                            x       y       z     vdW  Elec       q    Type
REMARK                         _______ _______ _______ _____ _____    ______ ____
ROOT
ATOM      1  C   UNL     1      35.157 -16.240 -22.256  0.00  0.00    +0.087 C 
ENDROOT
BRANCH   1   2
ATOM      2  N   UNL     1      34.507 -15.423 -23.291  0.00  0.00    -0.246 NA
ATOM      3  N   UNL     1      33.641 -13.662 -24.272  0.00  0.00    -0.251 NA
ATOM      4  C   UNL     1      34.102 -15.869 -24.499  0.00  0.00    +0.125 C 
ATOM      5  C   UNL     1      34.221 -14.107 -23.181  0.00  0.00    +0.201 C 
ATOM      6  C   UNL     1      33.563 -14.755 -25.099  0.00  0.00    +0.124 C 
BRANCH   6   9
ATOM      7  O   UNL     1      32.437 -15.670 -26.965  0.00  0.00    -0.269 OA
ATOM      8  N   UNL     1      33.027 -13.471 -27.080  0.00  0.00    -0.324 N 
ATOM      9  C   UNL     1      32.988 -14.695 -26.407  0.00  0.00    +0.257 C 
ATOM     10  H   UNL     1      32.640 -13.393 -27.983  0.00  0.00    +0.145 HD
ATOM     11  H   UNL     1      33.441 -12.687 -26.653  0.00  0.00    +0.145 HD
ENDBRANCH   6   9
ENDBRANCH   1   2
BRANCH   1  12
ATOM     12  C   UNL     1      34.468 -16.101 -20.873  0.00  0.00    +0.125 C 
ATOM     13  C   UNL     1      32.954 -15.931 -20.955  0.00  0.00    +0.033 C 
BRANCH  12  14
ATOM     14  O   UNL     1      35.024 -15.016 -20.136  0.00  0.00    -0.383 OA
ATOM     15  H   UNL     1      34.882 -15.163 -19.188  0.00  0.00    +0.210 HD
ENDBRANCH  12  14
ENDBRANCH   1  12
BRANCH   1  16
ATOM     16  C   UNL     1      35.316 -17.729 -22.661  0.00  0.00    +0.023 C 
BRANCH  16  17
ATOM     17  C   UNL     1      35.865 -18.648 -21.552  0.00  0.00    +0.028 C 
BRANCH  17  18
ATOM     18  C   UNL     1      34.854 -19.571 -20.943  0.00  0.00    -0.022 C 
ATOM     19  C   UNL     1      35.200 -20.498 -19.945  0.00  0.00    -0.004 C 
ATOM     20  C   UNL     1      33.542 -19.478 -21.405  0.00  0.00    -0.004 C 
ATOM     21  C   UNL     1      34.198 -21.342 -19.411  0.00  0.00    -0.000 C 
ATOM     22  C   UNL     1      36.516 -20.606 -19.469  0.00  0.00    -0.000 C 
ATOM     23  C   UNL     1      32.557 -20.308 -20.879  0.00  0.00    -0.000 C 
ATOM     24  C   UNL     1      32.882 -21.235 -19.887  0.00  0.00    -0.000 C 
ATOM     25  C   UNL     1      34.543 -22.270 -18.414  0.00  0.00    -0.000 C 
ATOM     26  C   UNL     1      36.840 -21.533 -18.478  0.00  0.00    -0.000 C 
ATOM     27  C   UNL     1      35.855 -22.364 -17.951  0.00  0.00    -0.000 C 
ENDBRANCH  17  18
ENDBRANCH  16  17
ENDBRANCH   1  16
TORSDOF 7
ENDMDL
MODEL 9
REMARK VINA RESULT:      -9.8      1.940      3.583
REMARK  Name = 449013
REMARK  7 active torsions:
REMARK  status: ('A' for Active; 'I' for Inactive)
REMARK    1  A    between atoms: C_1  and  N_2
REMARK    2  A    between atoms: C_1  and  C_12
REMARK    3  A    between atoms: C_1  and  C_16
REMARK    4  A    between atoms: C_6  and  C_9
REMARK    5  A    between atoms: C_12  and  O_14
REMARK    6  A    between atoms: C_16  and  C_17
REMARK    7  A    between atoms: C_17  and  C_18
REMARK                            x       y       z     vdW  Elec       q    Type
REMARK                         _______ _______ _______ _____ _____    ______ ____
ROOT
ATOM      1  C   UNL     1      34.444 -23.732 -16.310  0.00  0.00    +0.087 C 
ENDROOT
BRANCH   1   2
ATOM      2  N   UNL     1      35.633 -24.023 -15.496  0.00  0.00    -0.246 NA
ATOM      3  N   UNL     1      37.640 -23.796 -14.638  0.00  0.00    -0.251 NA
ATOM      4  C   UNL     1      35.773 -25.081 -14.669  0.00  0.00    +0.125 C 
ATOM      5  C   UNL     1      36.756 -23.275 -15.460  0.00  0.00    +0.201 C 
ATOM      6  C   UNL     1      37.033 -24.922 -14.141  0.00  0.00    +0.124 C 
BRANCH   6   9
ATOM      7  O   UNL     1      37.074 -26.317 -12.233  0.00  0.00    -0.269 OA
ATOM      8  N   UNL     1      39.025 -26.075 -13.387  0.00  0.00    -0.324 N 
ATOM      9  C   UNL     1      37.669 -25.790 -13.198  0.00  0.00    +0.257 C 
ATOM     10  H   UNL     1      39.495 -26.668 -12.756  0.00  0.00    +0.145 HD
ATOM     11  H   UNL     1      39.509 -25.683 -14.149  0.00  0.00    +0.145 HD
ENDBRANCH   6   9
ENDBRANCH   1   2
BRANCH   1  12
ATOM     12  C   UNL     1      33.147 -23.662 -15.461  0.00  0.00    +0.125 C 
ATOM     13  C   UNL     1      31.900 -23.323 -16.271  0.00  0.00    +0.033 C 
BRANCH  12  14
ATOM     14  O   UNL     1      33.287 -22.725 -14.397  0.00  0.00    -0.383 OA
ATOM     15  H   UNL     1      34.097 -22.207 -14.526  0.00  0.00    +0.210 HD
ENDBRANCH  12  14
ENDBRANCH   1  12
BRANCH   1  16
ATOM     16  C   UNL     1      34.605 -22.472 -17.200  0.00  0.00    +0.023 C 
BRANCH  16  17
ATOM     17  C   UNL     1      34.457 -22.725 -18.714  0.00  0.00    +0.028 C 
BRANCH  17  18
ATOM     18  C   UNL     1      34.147 -21.506 -19.528  0.00  0.00    -0.022 C 
ATOM     19  C   UNL     1      35.160 -20.698 -20.072  0.00  0.00    -0.004 C 
ATOM     20  C   UNL     1      32.803 -21.197 -19.731  0.00  0.00    -0.004 C 
ATOM     21  C   UNL     1      34.802 -19.560 -20.832  0.00  0.00    -0.000 C 
ATOM     22  C   UNL     1      36.519 -20.994 -19.877  0.00  0.00    -0.000 C 
ATOM     23  C   UNL     1      32.450 -20.078 -20.480  0.00  0.00    -0.000 C 
ATOM     24  C   UNL     1      33.443 -19.263 -21.028  0.00  0.00    -0.000 C 
ATOM     25  C   UNL     1      35.813 -18.751 -21.376  0.00  0.00    -0.000 C 
ATOM     26  C   UNL     1      37.510 -20.179 -20.425  0.00  0.00    -0.000 C 
ATOM     27  C   UNL     1      37.158 -19.059 -21.173  0.00  0.00    -0.000 C 
ENDBRANCH  17  18
ENDBRANCH  16  17
ENDBRANCH   1  16
TORSDOF 7
ENDMDL
