MODEL 1
REMARK VINA RESULT:     -10.1      0.000      0.000
REMARK  Name = 16741275
REMARK  14 active torsions:
REMARK  status: ('A' for Active; 'I' for Inactive)
REMARK    1  A    between atoms: N_2  and  C_19
REMARK    2  A    between atoms: C_3  and  C_5
REMARK    3  A    between atoms: C_5  and  N_8
REMARK    4  A    between atoms: C_9  and  O_11
REMARK    5  A    between atoms: O_11  and  C_12
REMARK    6  A    between atoms: C_12  and  C_13
REMARK    7  A    between atoms: C_19  and  P_20
REMARK    8  A    between atoms: P_20  and  O_22
REMARK    9  A    between atoms: P_20  and  O_24
REMARK   10  A    between atoms: O_24  and  C_25
REMARK   11  A    between atoms: C_25  and  C_27
REMARK   12  A    between atoms: C_25  and  C_30
REMARK   13  A    between atoms: C_27  and  O_28
REMARK   14  A    between atoms: C_30  and  C_31
REMARK                            x       y       z     vdW  Elec       q    Type
REMARK                         _______ _______ _______ _____ _____    ______ ____
ROOT
ATOM      1  O   UNL     1      32.330 -13.476 -20.577  0.00  0.00    -0.273 OA
ATOM      2  N   UNL     1      31.993 -12.128 -22.435  0.00  0.00    -0.293 N 
ATOM      3  C   UNL     1      32.525 -13.219 -21.763  0.00  0.00    +0.241 C 
ATOM      4  H   UNL     1      32.211 -12.011 -23.389  0.00  0.00    +0.150 HD
ENDROOT
BRANCH   3   5
ATOM      5  C   UNL     1      33.357 -14.106 -22.680  0.00  0.00    +0.151 C 
ATOM      6  C   UNL     1      32.753 -14.165 -24.075  0.00  0.00    +0.031 C 
BRANCH   5   8
ATOM      7  O   UNL     1      35.458 -16.083 -23.006  0.00  0.00    -0.226 OA
ATOM      8  N   UNL     1      33.433 -15.418 -22.092  0.00  0.00    -0.264 N 
ATOM      9  C   UNL     1      34.476 -16.298 -22.304  0.00  0.00    +0.402 C 
ATOM     10  H   UNL     1      32.697 -15.705 -21.505  0.00  0.00    +0.153 HD
BRANCH   9  11
ATOM     11  O   UNL     1      34.256 -17.454 -21.611  0.00  0.00    -0.430 OA
BRANCH  11  12
ATOM     12  C   UNL     1      35.226 -18.491 -21.801  0.00  0.00    +0.237 C 
BRANCH  12  13
ATOM     13  C   UNL     1      34.871 -19.660 -20.930  0.00  0.00    +0.021 C 
ATOM     14  C   UNL     1      35.878 -20.464 -20.396  0.00  0.00    -0.001 C 
ATOM     15  C   UNL     1      33.533 -19.943 -20.653  0.00  0.00    -0.001 C 
ATOM     16  C   UNL     1      35.548 -21.551 -19.587  0.00  0.00    -0.000 C 
ATOM     17  C   UNL     1      33.203 -21.030 -19.844  0.00  0.00    -0.000 C 
ATOM     18  C   UNL     1      34.210 -21.833 -19.310  0.00  0.00    -0.000 C 
ENDBRANCH  12  13
ENDBRANCH  11  12
ENDBRANCH   9  11
ENDBRANCH   5   8
ENDBRANCH   3   5
BRANCH   2  19
ATOM     19  C   UNL     1      31.133 -11.154 -21.799  0.00  0.00    +0.207 C 
BRANCH  19  20
ATOM     20  P   UNL     1      31.861  -9.551 -22.058  0.00  0.00    +0.360 P 
ATOM     21  O   UNL     1      31.875  -8.676 -20.837  0.00  0.00    -0.256 OA
BRANCH  20  22
ATOM     22  O   UNL     1      30.999  -8.940 -23.284  0.00  0.00    -0.322 OA
ATOM     23  H   UNL     1      30.644  -9.665 -23.822  0.00  0.00    +0.220 HD
ENDBRANCH  20  22
BRANCH  20  24
ATOM     24  O   UNL     1      33.322  -9.819 -22.700  0.00  0.00    -0.284 OA
BRANCH  24  25
ATOM     25  C   UNL     1      33.713  -9.197 -23.910  0.00  0.00    +0.226 C 
BRANCH  25  27
ATOM     26  O   UNL     1      35.480  -9.780 -25.477  0.00  0.00    -0.248 OA
ATOM     27  C   UNL     1      34.694 -10.122 -24.603  0.00  0.00    +0.342 C 
BRANCH  27  28
ATOM     28  O   UNL     1      34.622 -11.393 -24.130  0.00  0.00    -0.479 OA
ATOM     29  H   UNL     1      35.358 -11.967 -24.216  0.00  0.00    +0.295 HD
ENDBRANCH  27  28
ENDBRANCH  25  27
BRANCH  25  30
ATOM     30  C   UNL     1      34.374  -7.856 -23.582  0.00  0.00    +0.068 C 
BRANCH  30  31
ATOM     31  C   UNL     1      33.851  -6.740 -24.454  0.00  0.00    -0.019 C 
ATOM     32  C   UNL     1      34.588  -6.313 -25.559  0.00  0.00    -0.004 C 
ATOM     33  C   UNL     1      32.630  -6.136 -24.156  0.00  0.00    -0.004 C 
ATOM     34  C   UNL     1      34.104  -5.283 -26.365  0.00  0.00    -0.000 C 
ATOM     35  C   UNL     1      32.145  -5.105 -24.961  0.00  0.00    -0.000 C 
ATOM     36  C   UNL     1      32.883  -4.678 -26.065  0.00  0.00    -0.000 C 
ENDBRANCH  30  31
ENDBRANCH  25  30
ENDBRANCH  24  25
ENDBRANCH  20  24
ENDBRANCH  19  20
ENDBRANCH   2  19
TORSDOF 14
ENDMDL
MODEL 2
REMARK VINA RESULT:      -9.9      4.362      7.221
REMARK  Name = 16741275
REMARK  14 active torsions:
REMARK  status: ('A' for Active; 'I' for Inactive)
REMARK    1  A    between atoms: N_2  and  C_19
REMARK    2  A    between atoms: C_3  and  C_5
REMARK    3  A    between atoms: C_5  and  N_8
REMARK    4  A    between atoms: C_9  and  O_11
REMARK    5  A    between atoms: O_11  and  C_12
REMARK    6  A    between atoms: C_12  and  C_13
REMARK    7  A    between atoms: C_19  and  P_20
REMARK    8  A    between atoms: P_20  and  O_22
REMARK    9  A    between atoms: P_20  and  O_24
REMARK   10  A    between atoms: O_24  and  C_25
REMARK   11  A    between atoms: C_25  and  C_27
REMARK   12  A    between atoms: C_25  and  C_30
REMARK   13  A    between atoms: C_27  and  O_28
REMARK   14  A    between atoms: C_30  and  C_31
REMARK                            x       y       z     vdW  Elec       q    Type
REMARK                         _______ _______ _______ _____ _____    ______ ____
ROOT
ATOM      1  O   UNL     1      36.209 -19.559 -20.226  0.00  0.00    -0.273 OA
ATOM      2  N   UNL     1      34.960 -19.221 -22.152  0.00  0.00    -0.293 N 
ATOM      3  C   UNL     1      35.228 -19.809 -20.924  0.00  0.00    +0.241 C 
ATOM      4  H   UNL     1      34.145 -19.492 -22.634  0.00  0.00    +0.150 HD
ENDROOT
BRANCH   3   5
ATOM      5  C   UNL     1      34.136 -20.784 -20.505  0.00  0.00    +0.151 C 
ATOM      6  C   UNL     1      32.762 -20.137 -20.602  0.00  0.00    +0.031 C 
BRANCH   5   8
ATOM      7  O   UNL     1      33.950 -23.476 -19.433  0.00  0.00    -0.226 OA
ATOM      8  N   UNL     1      34.410 -21.219 -19.160  0.00  0.00    -0.264 N 
ATOM      9  C   UNL     1      34.295 -22.528 -18.736  0.00  0.00    +0.402 C 
ATOM     10  H   UNL     1      34.697 -20.543 -18.505  0.00  0.00    +0.153 HD
BRANCH   9  11
ATOM     11  O   UNL     1      34.623 -22.617 -17.412  0.00  0.00    -0.430 OA
BRANCH  11  12
ATOM     12  C   UNL     1      34.150 -23.784 -16.729  0.00  0.00    +0.237 C 
BRANCH  12  13
ATOM     13  C   UNL     1      32.880 -23.447 -16.004  0.00  0.00    +0.021 C 
ATOM     14  C   UNL     1      32.866 -23.389 -14.611  0.00  0.00    -0.001 C 
ATOM     15  C   UNL     1      31.713 -23.190 -16.725  0.00  0.00    -0.001 C 
ATOM     16  C   UNL     1      31.686 -23.076 -13.937  0.00  0.00    -0.000 C 
ATOM     17  C   UNL     1      30.533 -22.877 -16.051  0.00  0.00    -0.000 C 
ATOM     18  C   UNL     1      30.519 -22.819 -14.658  0.00  0.00    -0.000 C 
ENDBRANCH  12  13
ENDBRANCH  11  12
ENDBRANCH   9  11
ENDBRANCH   5   8
ENDBRANCH   3   5
BRANCH   2  19
ATOM     19  C   UNL     1      35.822 -18.229 -22.755  0.00  0.00    +0.207 C 
BRANCH  19  20
ATOM     20  P   UNL     1      34.802 -17.186 -23.775  0.00  0.00    +0.360 P 
ATOM     21  O   UNL     1      34.189 -17.886 -24.953  0.00  0.00    -0.256 OA
BRANCH  20  22
ATOM     22  O   UNL     1      35.795 -15.974 -24.184  0.00  0.00    -0.322 OA
ATOM     23  H   UNL     1      36.613 -16.338 -24.556  0.00  0.00    +0.220 HD
ENDBRANCH  20  22
BRANCH  20  24
ATOM     24  O   UNL     1      33.729 -16.495 -22.780  0.00  0.00    -0.284 OA
BRANCH  24  25
ATOM     25  C   UNL     1      33.936 -15.189 -22.276  0.00  0.00    +0.226 C 
BRANCH  25  27
ATOM     26  O   UNL     1      34.918 -15.667 -20.103  0.00  0.00    -0.248 OA
ATOM     27  C   UNL     1      33.962 -15.281 -20.764  0.00  0.00    +0.342 C 
BRANCH  27  28
ATOM     28  O   UNL     1      32.797 -14.865 -20.204  0.00  0.00    -0.479 OA
ATOM     29  H   UNL     1      32.089 -15.469 -20.091  0.00  0.00    +0.295 HD
ENDBRANCH  27  28
ENDBRANCH  25  27
BRANCH  25  30
ATOM     30  C   UNL     1      32.785 -14.294 -22.743  0.00  0.00    +0.068 C 
BRANCH  30  31
ATOM     31  C   UNL     1      33.118 -13.568 -24.025  0.00  0.00    -0.019 C 
ATOM     32  C   UNL     1      32.908 -14.191 -25.255  0.00  0.00    -0.004 C 
ATOM     33  C   UNL     1      33.637 -12.275 -23.978  0.00  0.00    -0.004 C 
ATOM     34  C   UNL     1      33.215 -13.520 -26.438  0.00  0.00    -0.000 C 
ATOM     35  C   UNL     1      33.945 -11.602 -25.161  0.00  0.00    -0.000 C 
ATOM     36  C   UNL     1      33.734 -12.226 -26.391  0.00  0.00    -0.000 C 
ENDBRANCH  30  31
ENDBRANCH  25  30
ENDBRANCH  24  25
ENDBRANCH  20  24
ENDBRANCH  19  20
ENDBRANCH   2  19
TORSDOF 14
ENDMDL
MODEL 3
REMARK VINA RESULT:      -9.8      1.377      2.824
REMARK  Name = 16741275
REMARK  14 active torsions:
REMARK  status: ('A' for Active; 'I' for Inactive)
REMARK    1  A    between atoms: N_2  and  C_19
REMARK    2  A    between atoms: C_3  and  C_5
REMARK    3  A    between atoms: C_5  and  N_8
REMARK    4  A    between atoms: C_9  and  O_11
REMARK    5  A    between atoms: O_11  and  C_12
REMARK    6  A    between atoms: C_12  and  C_13
REMARK    7  A    between atoms: C_19  and  P_20
REMARK    8  A    between atoms: P_20  and  O_22
REMARK    9  A    between atoms: P_20  and  O_24
REMARK   10  A    between atoms: O_24  and  C_25
REMARK   11  A    between atoms: C_25  and  C_27
REMARK   12  A    between atoms: C_25  and  C_30
REMARK   13  A    between atoms: C_27  and  O_28
REMARK   14  A    between atoms: C_30  and  C_31
REMARK                            x       y       z     vdW  Elec       q    Type
REMARK                         _______ _______ _______ _____ _____    ______ ____
ROOT
ATOM      1  O   UNL     1      32.040 -13.110 -21.092  0.00  0.00    -0.273 OA
ATOM      2  N   UNL     1      32.193 -11.590 -22.838  0.00  0.00    -0.293 N 
ATOM      3  C   UNL     1      32.472 -12.788 -22.197  0.00  0.00    +0.241 C 
ATOM      4  H   UNL     1      32.592 -11.428 -23.725  0.00  0.00    +0.150 HD
ENDROOT
BRANCH   3   5
ATOM      5  C   UNL     1      33.353 -13.699 -23.042  0.00  0.00    +0.151 C 
ATOM      6  C   UNL     1      32.822 -13.803 -24.465  0.00  0.00    +0.031 C 
BRANCH   5   8
ATOM      7  O   UNL     1      35.380 -15.755 -23.353  0.00  0.00    -0.226 OA
ATOM      8  N   UNL     1      33.401 -14.993 -22.412  0.00  0.00    -0.264 N 
ATOM      9  C   UNL     1      34.410 -15.913 -22.620  0.00  0.00    +0.402 C 
ATOM     10  H   UNL     1      32.672 -15.235 -21.797  0.00  0.00    +0.153 HD
BRANCH   9  11
ATOM     11  O   UNL     1      34.171 -17.038 -21.882  0.00  0.00    -0.430 OA
BRANCH  11  12
ATOM     12  C   UNL     1      35.172 -18.059 -21.958  0.00  0.00    +0.237 C 
BRANCH  12  13
ATOM     13  C   UNL     1      34.731 -19.240 -21.142  0.00  0.00    +0.021 C 
ATOM     14  C   UNL     1      33.372 -19.481 -20.942  0.00  0.00    -0.001 C 
ATOM     15  C   UNL     1      35.681 -20.096 -20.585  0.00  0.00    -0.001 C 
ATOM     16  C   UNL     1      32.962 -20.577 -20.184  0.00  0.00    -0.000 C 
ATOM     17  C   UNL     1      35.271 -21.193 -19.827  0.00  0.00    -0.000 C 
ATOM     18  C   UNL     1      33.912 -21.434 -19.627  0.00  0.00    -0.000 C 
ENDBRANCH  12  13
ENDBRANCH  11  12
ENDBRANCH   9  11
ENDBRANCH   5   8
ENDBRANCH   3   5
BRANCH   2  19
ATOM     19  C   UNL     1      31.346 -10.568 -22.265  0.00  0.00    +0.207 C 
BRANCH  19  20
ATOM     20  P   UNL     1      32.285  -9.057 -22.227  0.00  0.00    +0.360 P 
ATOM     21  O   UNL     1      33.581  -9.117 -22.982  0.00  0.00    -0.256 OA
BRANCH  20  22
ATOM     22  O   UNL     1      32.467  -8.768 -20.644  0.00  0.00    -0.322 OA
ATOM     23  H   UNL     1      31.668  -9.045 -20.171  0.00  0.00    +0.220 HD
ENDBRANCH  20  22
BRANCH  20  24
ATOM     24  O   UNL     1      31.280  -7.891 -22.725  0.00  0.00    -0.284 OA
BRANCH  24  25
ATOM     25  C   UNL     1      31.740  -6.567 -22.929  0.00  0.00    +0.226 C 
BRANCH  25  27
ATOM     26  O   UNL     1      30.095  -5.094 -21.908  0.00  0.00    -0.248 OA
ATOM     27  C   UNL     1      31.153  -5.705 -21.829  0.00  0.00    +0.342 C 
BRANCH  27  28
ATOM     28  O   UNL     1      31.931  -5.695 -20.716  0.00  0.00    -0.479 OA
ATOM     29  H   UNL     1      32.290  -6.496 -20.388  0.00  0.00    +0.295 HD
ENDBRANCH  27  28
ENDBRANCH  25  27
BRANCH  25  30
ATOM     30  C   UNL     1      31.266  -6.088 -24.303  0.00  0.00    +0.068 C 
BRANCH  30  31
ATOM     31  C   UNL     1      32.418  -5.662 -25.181  0.00  0.00    -0.019 C 
ATOM     32  C   UNL     1      33.649  -6.310 -25.082  0.00  0.00    -0.004 C 
ATOM     33  C   UNL     1      32.251  -4.619 -26.092  0.00  0.00    -0.004 C 
ATOM     34  C   UNL     1      34.712  -5.916 -25.893  0.00  0.00    -0.000 C 
ATOM     35  C   UNL     1      33.314  -4.224 -26.904  0.00  0.00    -0.000 C 
ATOM     36  C   UNL     1      34.545  -4.872 -26.804  0.00  0.00    -0.000 C 
ENDBRANCH  30  31
ENDBRANCH  25  30
ENDBRANCH  24  25
ENDBRANCH  20  24
ENDBRANCH  19  20
ENDBRANCH   2  19
TORSDOF 14
ENDMDL
MODEL 4
REMARK VINA RESULT:      -9.7      4.331      7.342
REMARK  Name = 16741275
REMARK  14 active torsions:
REMARK  status: ('A' for Active; 'I' for Inactive)
REMARK    1  A    between atoms: N_2  and  C_19
REMARK    2  A    between atoms: C_3  and  C_5
REMARK    3  A    between atoms: C_5  and  N_8
REMARK    4  A    between atoms: C_9  and  O_11
REMARK    5  A    between atoms: O_11  and  C_12
REMARK    6  A    between atoms: C_12  and  C_13
REMARK    7  A    between atoms: C_19  and  P_20
REMARK    8  A    between atoms: P_20  and  O_22
REMARK    9  A    between atoms: P_20  and  O_24
REMARK   10  A    between atoms: O_24  and  C_25
REMARK   11  A    between atoms: C_25  and  C_27
REMARK   12  A    between atoms: C_25  and  C_30
REMARK   13  A    between atoms: C_27  and  O_28
REMARK   14  A    between atoms: C_30  and  C_31
REMARK                            x       y       z     vdW  Elec       q    Type
REMARK                         _______ _______ _______ _____ _____    ______ ____
ROOT
ATOM      1  O   UNL     1      36.441 -19.513 -20.236  0.00  0.00    -0.273 OA
ATOM      2  N   UNL     1      35.117 -19.166 -22.110  0.00  0.00    -0.293 N 
ATOM      3  C   UNL     1      35.452 -19.785 -20.914  0.00  0.00    +0.241 C 
ATOM      4  H   UNL     1      34.301 -19.458 -22.578  0.00  0.00    +0.150 HD
ENDROOT
BRANCH   3   5
ATOM      5  C   UNL     1      34.420 -20.825 -20.500  0.00  0.00    +0.151 C 
ATOM      6  C   UNL     1      33.021 -20.227 -20.478  0.00  0.00    +0.031 C 
BRANCH   5   8
ATOM      7  O   UNL     1      33.847 -23.446 -19.388  0.00  0.00    -0.226 OA
ATOM      8  N   UNL     1      34.786 -21.334 -19.203  0.00  0.00    -0.264 N 
ATOM      9  C   UNL     1      34.469 -22.601 -18.755  0.00  0.00    +0.402 C 
ATOM     10  H   UNL     1      35.293 -20.742 -18.601  0.00  0.00    +0.153 HD
BRANCH   9  11
ATOM     11  O   UNL     1      34.955 -22.781 -17.491  0.00  0.00    -0.430 OA
BRANCH  11  12
ATOM     12  C   UNL     1      34.016 -23.266 -16.524  0.00  0.00    +0.237 C 
BRANCH  12  13
ATOM     13  C   UNL     1      34.718 -23.457 -15.212  0.00  0.00    +0.021 C 
ATOM     14  C   UNL     1      36.053 -23.078 -15.073  0.00  0.00    -0.001 C 
ATOM     15  C   UNL     1      34.034 -24.012 -14.129  0.00  0.00    -0.001 C 
ATOM     16  C   UNL     1      36.706 -23.255 -13.854  0.00  0.00    -0.000 C 
ATOM     17  C   UNL     1      34.687 -24.189 -12.910  0.00  0.00    -0.000 C 
ATOM     18  C   UNL     1      36.022 -23.810 -12.771  0.00  0.00    -0.000 C 
ENDBRANCH  12  13
ENDBRANCH  11  12
ENDBRANCH   9  11
ENDBRANCH   5   8
ENDBRANCH   3   5
BRANCH   2  19
ATOM     19  C   UNL     1      35.913 -18.113 -22.701  0.00  0.00    +0.207 C 
BRANCH  19  20
ATOM     20  P   UNL     1      34.844 -17.176 -23.773  0.00  0.00    +0.360 P 
ATOM     21  O   UNL     1      34.256 -17.970 -24.904  0.00  0.00    -0.256 OA
BRANCH  20  22
ATOM     22  O   UNL     1      35.782 -15.950 -24.260  0.00  0.00    -0.322 OA
ATOM     23  H   UNL     1      35.907 -15.328 -23.527  0.00  0.00    +0.220 HD
ENDBRANCH  20  22
BRANCH  20  24
ATOM     24  O   UNL     1      33.747 -16.474 -22.813  0.00  0.00    -0.284 OA
BRANCH  24  25
ATOM     25  C   UNL     1      33.956 -15.174 -22.293  0.00  0.00    +0.226 C 
BRANCH  25  27
ATOM     26  O   UNL     1      34.935 -15.732 -20.137  0.00  0.00    -0.248 OA
ATOM     27  C   UNL     1      33.995 -15.287 -20.782  0.00  0.00    +0.342 C 
BRANCH  27  28
ATOM     28  O   UNL     1      32.860 -14.817 -20.204  0.00  0.00    -0.479 OA
ATOM     29  H   UNL     1      32.904 -14.366 -19.383  0.00  0.00    +0.295 HD
ENDBRANCH  27  28
ENDBRANCH  25  27
BRANCH  25  30
ATOM     30  C   UNL     1      32.802 -14.274 -22.739  0.00  0.00    +0.068 C 
BRANCH  30  31
ATOM     31  C   UNL     1      33.128 -13.525 -24.009  0.00  0.00    -0.019 C 
ATOM     32  C   UNL     1      32.920 -14.128 -25.249  0.00  0.00    -0.004 C 
ATOM     33  C   UNL     1      33.638 -12.229 -23.942  0.00  0.00    -0.004 C 
ATOM     34  C   UNL     1      33.220 -13.435 -26.421  0.00  0.00    -0.000 C 
ATOM     35  C   UNL     1      33.939 -11.535 -25.114  0.00  0.00    -0.000 C 
ATOM     36  C   UNL     1      33.731 -12.139 -26.353  0.00  0.00    -0.000 C 
ENDBRANCH  30  31
ENDBRANCH  25  30
ENDBRANCH  24  25
ENDBRANCH  20  24
ENDBRANCH  19  20
ENDBRANCH   2  19
TORSDOF 14
ENDMDL
MODEL 5
REMARK VINA RESULT:      -9.7      2.112     11.551
REMARK  Name = 16741275
REMARK  14 active torsions:
REMARK  status: ('A' for Active; 'I' for Inactive)
REMARK    1  A    between atoms: N_2  and  C_19
REMARK    2  A    between atoms: C_3  and  C_5
REMARK    3  A    between atoms: C_5  and  N_8
REMARK    4  A    between atoms: C_9  and  O_11
REMARK    5  A    between atoms: O_11  and  C_12
REMARK    6  A    between atoms: C_12  and  C_13
REMARK    7  A    between atoms: C_19  and  P_20
REMARK    8  A    between atoms: P_20  and  O_22
REMARK    9  A    between atoms: P_20  and  O_24
REMARK   10  A    between atoms: O_24  and  C_25
REMARK   11  A    between atoms: C_25  and  C_27
REMARK   12  A    between atoms: C_25  and  C_30
REMARK   13  A    between atoms: C_27  and  O_28
REMARK   14  A    between atoms: C_30  and  C_31
REMARK                            x       y       z     vdW  Elec       q    Type
REMARK                         _______ _______ _______ _____ _____    ______ ____
ROOT
ATOM      1  O   UNL     1      31.898 -12.841 -22.859  0.00  0.00    -0.273 OA
ATOM      2  N   UNL     1      32.387 -13.665 -20.746  0.00  0.00    -0.293 N 
ATOM      3  C   UNL     1      32.125 -12.659 -21.665  0.00  0.00    +0.241 C 
ATOM      4  H   UNL     1      32.557 -13.413 -19.809  0.00  0.00    +0.150 HD
ENDROOT
BRANCH   3   5
ATOM      5  C   UNL     1      32.104 -11.281 -21.016  0.00  0.00    +0.151 C 
ATOM      6  C   UNL     1      31.163 -11.257 -19.820  0.00  0.00    +0.031 C 
BRANCH   5   8
ATOM      7  O   UNL     1      32.390  -8.394 -20.914  0.00  0.00    -0.226 OA
ATOM      8  N   UNL     1      31.704 -10.320 -22.010  0.00  0.00    -0.264 N 
ATOM      9  C   UNL     1      31.880  -8.956 -21.876  0.00  0.00    +0.402 C 
ATOM     10  H   UNL     1      31.281 -10.654 -22.833  0.00  0.00    +0.153 HD
BRANCH   9  11
ATOM     11  O   UNL     1      31.400  -8.316 -22.984  0.00  0.00    -0.430 OA
BRANCH  11  12
ATOM     12  C   UNL     1      31.467  -6.886 -22.956  0.00  0.00    +0.237 C 
BRANCH  12  13
ATOM     13  C   UNL     1      32.401  -6.418 -24.034  0.00  0.00    +0.021 C 
ATOM     14  C   UNL     1      31.987  -5.444 -24.942  0.00  0.00    -0.001 C 
ATOM     15  C   UNL     1      33.685  -6.956 -24.126  0.00  0.00    -0.001 C 
ATOM     16  C   UNL     1      32.854  -5.009 -25.944  0.00  0.00    -0.000 C 
ATOM     17  C   UNL     1      34.553  -6.522 -25.127  0.00  0.00    -0.000 C 
ATOM     18  C   UNL     1      34.138  -5.548 -26.036  0.00  0.00    -0.000 C 
ENDBRANCH  12  13
ENDBRANCH  11  12
ENDBRANCH   9  11
ENDBRANCH   5   8
ENDBRANCH   3   5
BRANCH   2  19
ATOM     19  C   UNL     1      32.422 -15.066 -21.101  0.00  0.00    +0.207 C 
BRANCH  19  20
ATOM     20  P   UNL     1      34.123 -15.497 -21.400  0.00  0.00    +0.360 P 
ATOM     21  O   UNL     1      34.958 -15.612 -20.157  0.00  0.00    -0.256 OA
BRANCH  20  22
ATOM     22  O   UNL     1      34.629 -14.345 -22.418  0.00  0.00    -0.322 OA
ATOM     23  H   UNL     1      34.553 -14.664 -23.330  0.00  0.00    +0.220 HD
ENDBRANCH  20  22
BRANCH  20  24
ATOM     24  O   UNL     1      34.095 -16.837 -22.307  0.00  0.00    -0.284 OA
BRANCH  24  25
ATOM     25  C   UNL     1      34.708 -18.033 -21.862  0.00  0.00    +0.226 C 
BRANCH  25  27
ATOM     26  O   UNL     1      35.087 -19.264 -23.926  0.00  0.00    -0.248 OA
ATOM     27  C   UNL     1      35.530 -18.580 -23.012  0.00  0.00    +0.342 C 
BRANCH  27  28
ATOM     28  O   UNL     1      36.834 -18.209 -22.932  0.00  0.00    -0.479 OA
ATOM     29  H   UNL     1      37.425 -18.421 -23.629  0.00  0.00    +0.295 HD
ENDBRANCH  27  28
ENDBRANCH  25  27
BRANCH  25  30
ATOM     30  C   UNL     1      33.615 -19.026 -21.459  0.00  0.00    +0.068 C 
BRANCH  30  31
ATOM     31  C   UNL     1      34.143 -20.107 -20.547  0.00  0.00    -0.019 C 
ATOM     32  C   UNL     1      33.257 -20.956 -19.884  0.00  0.00    -0.004 C 
ATOM     33  C   UNL     1      35.518 -20.258 -20.367  0.00  0.00    -0.004 C 
ATOM     34  C   UNL     1      33.745 -21.956 -19.043  0.00  0.00    -0.000 C 
ATOM     35  C   UNL     1      36.007 -21.257 -19.525  0.00  0.00    -0.000 C 
ATOM     36  C   UNL     1      35.120 -22.105 -18.863  0.00  0.00    -0.000 C 
ENDBRANCH  30  31
ENDBRANCH  25  30
ENDBRANCH  24  25
ENDBRANCH  20  24
ENDBRANCH  19  20
ENDBRANCH   2  19
TORSDOF 14
ENDMDL
MODEL 6
REMARK VINA RESULT:      -9.7      2.207     10.686
REMARK  Name = 16741275
REMARK  14 active torsions:
REMARK  status: ('A' for Active; 'I' for Inactive)
REMARK    1  A    between atoms: N_2  and  C_19
REMARK    2  A    between atoms: C_3  and  C_5
REMARK    3  A    between atoms: C_5  and  N_8
REMARK    4  A    between atoms: C_9  and  O_11
REMARK    5  A    between atoms: O_11  and  C_12
REMARK    6  A    between atoms: C_12  and  C_13
REMARK    7  A    between atoms: C_19  and  P_20
REMARK    8  A    between atoms: P_20  and  O_22
REMARK    9  A    between atoms: P_20  and  O_24
REMARK   10  A    between atoms: O_24  and  C_25
REMARK   11  A    between atoms: C_25  and  C_27
REMARK   12  A    between atoms: C_25  and  C_30
REMARK   13  A    between atoms: C_27  and  O_28
REMARK   14  A    between atoms: C_30  and  C_31
REMARK                            x       y       z     vdW  Elec       q    Type
REMARK                         _______ _______ _______ _____ _____    ______ ____
ROOT
ATOM      1  O   UNL     1      31.551 -12.076 -22.474  0.00  0.00    -0.273 OA
ATOM      2  N   UNL     1      32.330 -13.294 -20.659  0.00  0.00    -0.293 N 
ATOM      3  C   UNL     1      31.930 -12.134 -21.306  0.00  0.00    +0.241 C 
ATOM      4  H   UNL     1      32.618 -13.233 -19.719  0.00  0.00    +0.150 HD
ENDROOT
BRANCH   3   5
ATOM      5  C   UNL     1      31.969 -10.922 -20.384  0.00  0.00    +0.151 C 
ATOM      6  C   UNL     1      30.702 -10.834 -19.547  0.00  0.00    +0.031 C 
BRANCH   5   8
ATOM      7  O   UNL     1      32.476  -8.206 -19.491  0.00  0.00    -0.226 OA
ATOM      8  N   UNL     1      32.138  -9.744 -21.194  0.00  0.00    -0.264 N 
ATOM      9  C   UNL     1      32.377  -8.484 -20.681  0.00  0.00    +0.402 C 
ATOM     10  H   UNL     1      32.079  -9.842 -22.172  0.00  0.00    +0.153 HD
BRANCH   9  11
ATOM     11  O   UNL     1      32.489  -7.581 -21.700  0.00  0.00    -0.430 OA
BRANCH  11  12
ATOM     12  C   UNL     1      33.622  -7.749 -22.561  0.00  0.00    +0.237 C 
BRANCH  12  13
ATOM     13  C   UNL     1      33.461  -6.862 -23.761  0.00  0.00    +0.021 C 
ATOM     14  C   UNL     1      32.279  -6.145 -23.944  0.00  0.00    -0.001 C 
ATOM     15  C   UNL     1      34.495  -6.754 -24.691  0.00  0.00    -0.001 C 
ATOM     16  C   UNL     1      32.129  -5.320 -25.059  0.00  0.00    -0.000 C 
ATOM     17  C   UNL     1      34.345  -5.929 -25.806  0.00  0.00    -0.000 C 
ATOM     18  C   UNL     1      33.163  -5.212 -25.990  0.00  0.00    -0.000 C 
ENDBRANCH  12  13
ENDBRANCH  11  12
ENDBRANCH   9  11
ENDBRANCH   5   8
ENDBRANCH   3   5
BRANCH   2  19
ATOM     19  C   UNL     1      32.345 -14.590 -21.303  0.00  0.00    +0.207 C 
BRANCH  19  20
ATOM     20  P   UNL     1      34.048 -15.040 -21.555  0.00  0.00    +0.360 P 
ATOM     21  O   UNL     1      34.826 -15.245 -20.287  0.00  0.00    -0.256 OA
BRANCH  20  22
ATOM     22  O   UNL     1      34.620 -13.841 -22.481  0.00  0.00    -0.322 OA
ATOM     23  H   UNL     1      34.086 -13.772 -23.287  0.00  0.00    +0.220 HD
ENDBRANCH  20  22
BRANCH  20  24
ATOM     24  O   UNL     1      34.033 -16.323 -22.541  0.00  0.00    -0.284 OA
BRANCH  24  25
ATOM     25  C   UNL     1      34.838 -16.360 -23.705  0.00  0.00    +0.226 C 
BRANCH  25  27
ATOM     26  O   UNL     1      33.157 -14.961 -24.769  0.00  0.00    -0.248 OA
ATOM     27  C   UNL     1      34.000 -15.844 -24.857  0.00  0.00    +0.342 C 
BRANCH  27  28
ATOM     28  O   UNL     1      34.300 -16.464 -26.027  0.00  0.00    -0.479 OA
ATOM     29  H   UNL     1      33.902 -17.286 -26.238  0.00  0.00    +0.295 HD
ENDBRANCH  27  28
ENDBRANCH  25  27
BRANCH  25  30
ATOM     30  C   UNL     1      35.272 -17.805 -23.956  0.00  0.00    +0.068 C 
BRANCH  30  31
ATOM     31  C   UNL     1      35.363 -18.599 -22.675  0.00  0.00    -0.019 C 
ATOM     32  C   UNL     1      34.269 -19.345 -22.236  0.00  0.00    -0.004 C 
ATOM     33  C   UNL     1      36.541 -18.588 -21.929  0.00  0.00    -0.004 C 
ATOM     34  C   UNL     1      34.353 -20.078 -21.053  0.00  0.00    -0.000 C 
ATOM     35  C   UNL     1      36.627 -19.321 -20.746  0.00  0.00    -0.000 C 
ATOM     36  C   UNL     1      35.532 -20.066 -20.308  0.00  0.00    -0.000 C 
ENDBRANCH  30  31
ENDBRANCH  25  30
ENDBRANCH  24  25
ENDBRANCH  20  24
ENDBRANCH  19  20
ENDBRANCH   2  19
TORSDOF 14
ENDMDL
MODEL 7
REMARK VINA RESULT:      -9.7      4.053      6.517
REMARK  Name = 16741275
REMARK  14 active torsions:
REMARK  status: ('A' for Active; 'I' for Inactive)
REMARK    1  A    between atoms: N_2  and  C_19
REMARK    2  A    between atoms: C_3  and  C_5
REMARK    3  A    between atoms: C_5  and  N_8
REMARK    4  A    between atoms: C_9  and  O_11
REMARK    5  A    between atoms: O_11  and  C_12
REMARK    6  A    between atoms: C_12  and  C_13
REMARK    7  A    between atoms: C_19  and  P_20
REMARK    8  A    between atoms: P_20  and  O_22
REMARK    9  A    between atoms: P_20  and  O_24
REMARK   10  A    between atoms: O_24  and  C_25
REMARK   11  A    between atoms: C_25  and  C_27
REMARK   12  A    between atoms: C_25  and  C_30
REMARK   13  A    between atoms: C_27  and  O_28
REMARK   14  A    between atoms: C_30  and  C_31
REMARK                            x       y       z     vdW  Elec       q    Type
REMARK                         _______ _______ _______ _____ _____    ______ ____
ROOT
ATOM      1  O   UNL     1      33.361 -19.465 -21.734  0.00  0.00    -0.273 OA
ATOM      2  N   UNL     1      35.223 -18.736 -22.911  0.00  0.00    -0.293 N 
ATOM      3  C   UNL     1      34.567 -19.232 -21.794  0.00  0.00    +0.241 C 
ATOM      4  H   UNL     1      36.195 -18.583 -22.857  0.00  0.00    +0.150 HD
ENDROOT
BRANCH   3   5
ATOM      5  C   UNL     1      35.524 -19.505 -20.642  0.00  0.00    +0.151 C 
ATOM      6  C   UNL     1      36.971 -19.420 -21.104  0.00  0.00    +0.031 C 
BRANCH   5   8
ATOM      7  O   UNL     1      36.755 -20.813 -18.361  0.00  0.00    -0.226 OA
ATOM      8  N   UNL     1      35.226 -20.807 -20.105  0.00  0.00    -0.264 N 
ATOM      9  C   UNL     1      35.866 -21.353 -19.010  0.00  0.00    +0.402 C 
ATOM     10  H   UNL     1      34.525 -21.339 -20.545  0.00  0.00    +0.153 HD
BRANCH   9  11
ATOM     11  O   UNL     1      35.361 -22.596 -18.750  0.00  0.00    -0.430 OA
BRANCH  11  12
ATOM     12  C   UNL     1      33.933 -22.705 -18.765  0.00  0.00    +0.237 C 
BRANCH  12  13
ATOM     13  C   UNL     1      33.447 -22.979 -17.371  0.00  0.00    +0.021 C 
ATOM     14  C   UNL     1      34.364 -23.216 -16.347  0.00  0.00    -0.001 C 
ATOM     15  C   UNL     1      32.079 -22.994 -17.100  0.00  0.00    -0.001 C 
ATOM     16  C   UNL     1      33.913 -23.470 -15.052  0.00  0.00    -0.000 C 
ATOM     17  C   UNL     1      31.628 -23.248 -15.805  0.00  0.00    -0.000 C 
ATOM     18  C   UNL     1      32.545 -23.486 -14.781  0.00  0.00    -0.000 C 
ENDBRANCH  12  13
ENDBRANCH  11  12
ENDBRANCH   9  11
ENDBRANCH   5   8
ENDBRANCH   3   5
BRANCH   2  19
ATOM     19  C   UNL     1      34.545 -18.433 -24.153  0.00  0.00    +0.207 C 
BRANCH  19  20
ATOM     20  P   UNL     1      34.602 -16.668 -24.373  0.00  0.00    +0.360 P 
ATOM     21  O   UNL     1      34.555 -16.223 -25.807  0.00  0.00    -0.256 OA
BRANCH  20  22
ATOM     22  O   UNL     1      35.959 -16.237 -23.604  0.00  0.00    -0.322 OA
ATOM     23  H   UNL     1      35.739 -15.911 -22.717  0.00  0.00    +0.220 HD
ENDBRANCH  20  22
BRANCH  20  24
ATOM     24  O   UNL     1      33.419 -16.061 -23.450  0.00  0.00    -0.284 OA
BRANCH  24  25
ATOM     25  C   UNL     1      33.668 -15.002 -22.545  0.00  0.00    +0.226 C 
BRANCH  25  27
ATOM     26  O   UNL     1      34.947 -15.879 -20.671  0.00  0.00    -0.248 OA
ATOM     27  C   UNL     1      33.862 -15.612 -21.171  0.00  0.00    +0.342 C 
BRANCH  27  28
ATOM     28  O   UNL     1      32.682 -15.818 -20.530  0.00  0.00    -0.479 OA
ATOM     29  H   UNL     1      32.439 -16.683 -20.263  0.00  0.00    +0.295 HD
ENDBRANCH  27  28
ENDBRANCH  25  27
BRANCH  25  30
ATOM     30  C   UNL     1      32.466 -14.056 -22.552  0.00  0.00    +0.068 C 
BRANCH  30  31
ATOM     31  C   UNL     1      32.824 -12.691 -23.089  0.00  0.00    -0.019 C 
ATOM     32  C   UNL     1      32.253 -11.548 -22.530  0.00  0.00    -0.004 C 
ATOM     33  C   UNL     1      33.726 -12.573 -24.146  0.00  0.00    -0.004 C 
ATOM     34  C   UNL     1      32.585 -10.288 -23.026  0.00  0.00    -0.000 C 
ATOM     35  C   UNL     1      34.058 -11.313 -24.644  0.00  0.00    -0.000 C 
ATOM     36  C   UNL     1      33.487 -10.170 -24.084  0.00  0.00    -0.000 C 
ENDBRANCH  30  31
ENDBRANCH  25  30
ENDBRANCH  24  25
ENDBRANCH  20  24
ENDBRANCH  19  20
ENDBRANCH   2  19
TORSDOF 14
ENDMDL
MODEL 8
REMARK VINA RESULT:      -9.7      7.883     14.579
REMARK  Name = 16741275
REMARK  14 active torsions:
REMARK  status: ('A' for Active; 'I' for Inactive)
REMARK    1  A    between atoms: N_2  and  C_19
REMARK    2  A    between atoms: C_3  and  C_5
REMARK    3  A    between atoms: C_5  and  N_8
REMARK    4  A    between atoms: C_9  and  O_11
REMARK    5  A    between atoms: O_11  and  C_12
REMARK    6  A    between atoms: C_12  and  C_13
REMARK    7  A    between atoms: C_19  and  P_20
REMARK    8  A    between atoms: P_20  and  O_22
REMARK    9  A    between atoms: P_20  and  O_24
REMARK   10  A    between atoms: O_24  and  C_25
REMARK   11  A    between atoms: C_25  and  C_27
REMARK   12  A    between atoms: C_25  and  C_30
REMARK   13  A    between atoms: C_27  and  O_28
REMARK   14  A    between atoms: C_30  and  C_31
REMARK                            x       y       z     vdW  Elec       q    Type
REMARK                         _______ _______ _______ _____ _____    ______ ____
ROOT
ATOM      1  O   UNL     1      36.901 -21.658 -18.912  0.00  0.00    -0.273 OA
ATOM      2  N   UNL     1      36.100 -22.277 -16.824  0.00  0.00    -0.293 N 
ATOM      3  C   UNL     1      35.965 -21.910 -18.155  0.00  0.00    +0.241 C 
ATOM      4  H   UNL     1      35.285 -22.457 -16.301  0.00  0.00    +0.150 HD
ENDROOT
BRANCH   3   5
ATOM      5  C   UNL     1      34.509 -21.894 -18.600  0.00  0.00    +0.151 C 
ATOM      6  C   UNL     1      33.970 -23.309 -18.748  0.00  0.00    +0.031 C 
BRANCH   5   8
ATOM      7  O   UNL     1      32.264 -20.360 -19.619  0.00  0.00    -0.226 OA
ATOM      8  N   UNL     1      34.424 -21.175 -19.844  0.00  0.00    -0.264 N 
ATOM      9  C   UNL     1      33.309 -20.468 -20.250  0.00  0.00    +0.402 C 
ATOM     10  H   UNL     1      35.207 -21.188 -20.440  0.00  0.00    +0.153 HD
BRANCH   9  11
ATOM     11  O   UNL     1      33.540 -19.899 -21.470  0.00  0.00    -0.430 OA
BRANCH  11  12
ATOM     12  C   UNL     1      34.841 -19.328 -21.657  0.00  0.00    +0.237 C 
BRANCH  12  13
ATOM     13  C   UNL     1      34.801 -18.390 -22.829  0.00  0.00    +0.021 C 
ATOM     14  C   UNL     1      34.563 -18.886 -24.110  0.00  0.00    -0.001 C 
ATOM     15  C   UNL     1      35.001 -17.023 -22.635  0.00  0.00    -0.001 C 
ATOM     16  C   UNL     1      34.526 -18.015 -25.199  0.00  0.00    -0.000 C 
ATOM     17  C   UNL     1      34.964 -16.153 -23.724  0.00  0.00    -0.000 C 
ATOM     18  C   UNL     1      34.726 -16.648 -25.006  0.00  0.00    -0.000 C 
ENDBRANCH  12  13
ENDBRANCH  11  12
ENDBRANCH   9  11
ENDBRANCH   5   8
ENDBRANCH   3   5
BRANCH   2  19
ATOM     19  C   UNL     1      37.383 -22.406 -16.169  0.00  0.00    +0.207 C 
BRANCH  19  20
ATOM     20  P   UNL     1      37.216 -23.654 -14.911  0.00  0.00    +0.360 P 
ATOM     21  O   UNL     1      38.515 -24.077 -14.286  0.00  0.00    -0.256 OA
BRANCH  20  22
ATOM     22  O   UNL     1      36.443 -24.854 -15.675  0.00  0.00    -0.322 OA
ATOM     23  H   UNL     1      35.504 -24.629 -15.763  0.00  0.00    +0.220 HD
ENDBRANCH  20  22
BRANCH  20  24
ATOM     24  O   UNL     1      36.125 -23.090 -13.859  0.00  0.00    -0.284 OA
BRANCH  24  25
ATOM     25  C   UNL     1      35.230 -23.964 -13.196  0.00  0.00    +0.226 C 
BRANCH  25  27
ATOM     26  O   UNL     1      36.425 -24.595 -11.173  0.00  0.00    -0.248 OA
ATOM     27  C   UNL     1      36.054 -24.873 -12.307  0.00  0.00    +0.342 C 
BRANCH  27  28
ATOM     28  O   UNL     1      36.328 -26.062 -12.903  0.00  0.00    -0.479 OA
ATOM     29  H   UNL     1      35.638 -26.559 -13.296  0.00  0.00    +0.295 HD
ENDBRANCH  27  28
ENDBRANCH  25  27
BRANCH  25  30
ATOM     30  C   UNL     1      34.468 -24.777 -14.244  0.00  0.00    +0.068 C 
BRANCH  30  31
ATOM     31  C   UNL     1      33.026 -24.344 -14.358  0.00  0.00    -0.019 C 
ATOM     32  C   UNL     1      32.685 -23.257 -15.161  0.00  0.00    -0.004 C 
ATOM     33  C   UNL     1      32.035 -25.032 -13.658  0.00  0.00    -0.004 C 
ATOM     34  C   UNL     1      31.353 -22.857 -15.266  0.00  0.00    -0.000 C 
ATOM     35  C   UNL     1      30.702 -24.633 -13.762  0.00  0.00    -0.000 C 
ATOM     36  C   UNL     1      30.361 -23.545 -14.566  0.00  0.00    -0.000 C 
ENDBRANCH  30  31
ENDBRANCH  25  30
ENDBRANCH  24  25
ENDBRANCH  20  24
ENDBRANCH  19  20
ENDBRANCH   2  19
TORSDOF 14
ENDMDL
MODEL 9
REMARK VINA RESULT:      -9.6      6.362     14.263
REMARK  Name = 16741275
REMARK  14 active torsions:
REMARK  status: ('A' for Active; 'I' for Inactive)
REMARK    1  A    between atoms: N_2  and  C_19
REMARK    2  A    between atoms: C_3  and  C_5
REMARK    3  A    between atoms: C_5  and  N_8
REMARK    4  A    between atoms: C_9  and  O_11
REMARK    5  A    between atoms: O_11  and  C_12
REMARK    6  A    between atoms: C_12  and  C_13
REMARK    7  A    between atoms: C_19  and  P_20
REMARK    8  A    between atoms: P_20  and  O_22
REMARK    9  A    between atoms: P_20  and  O_24
REMARK   10  A    between atoms: O_24  and  C_25
REMARK   11  A    between atoms: C_25  and  C_27
REMARK   12  A    between atoms: C_25  and  C_30
REMARK   13  A    between atoms: C_27  and  O_28
REMARK   14  A    between atoms: C_30  and  C_31
REMARK                            x       y       z     vdW  Elec       q    Type
REMARK                         _______ _______ _______ _____ _____    ______ ____
ROOT
ATOM      1  O   UNL     1      33.079 -22.309 -19.573  0.00  0.00    -0.273 OA
ATOM      2  N   UNL     1      34.865 -22.439 -18.097  0.00  0.00    -0.293 N 
ATOM      3  C   UNL     1      34.244 -22.053 -19.276  0.00  0.00    +0.241 C 
ATOM      4  H   UNL     1      35.805 -22.184 -17.955  0.00  0.00    +0.150 HD
ENDROOT
BRANCH   3   5
ATOM      5  C   UNL     1      35.165 -21.224 -20.163  0.00  0.00    +0.151 C 
ATOM      6  C   UNL     1      36.588 -21.228 -19.624  0.00  0.00    +0.031 C 
BRANCH   5   8
ATOM      7  O   UNL     1      34.904 -19.534 -22.509  0.00  0.00    -0.226 OA
ATOM      8  N   UNL     1      34.640 -19.885 -20.232  0.00  0.00    -0.264 N 
ATOM      9  C   UNL     1      34.554 -19.152 -21.399  0.00  0.00    +0.402 C 
ATOM     10  H   UNL     1      34.325 -19.469 -19.398  0.00  0.00    +0.153 HD
BRANCH   9  11
ATOM     11  O   UNL     1      34.015 -17.924 -21.136  0.00  0.00    -0.430 OA
BRANCH  11  12
ATOM     12  C   UNL     1      34.909 -16.811 -21.253  0.00  0.00    +0.237 C 
BRANCH  12  13
ATOM     13  C   UNL     1      34.159 -15.636 -21.809  0.00  0.00    +0.021 C 
ATOM     14  C   UNL     1      34.536 -15.083 -23.032  0.00  0.00    -0.001 C 
ATOM     15  C   UNL     1      33.083 -15.098 -21.102  0.00  0.00    -0.001 C 
ATOM     16  C   UNL     1      33.840 -13.991 -23.549  0.00  0.00    -0.000 C 
ATOM     17  C   UNL     1      32.386 -14.006 -21.619  0.00  0.00    -0.000 C 
ATOM     18  C   UNL     1      32.764 -13.453 -22.842  0.00  0.00    -0.000 C 
ENDBRANCH  12  13
ENDBRANCH  11  12
ENDBRANCH   9  11
ENDBRANCH   5   8
ENDBRANCH   3   5
BRANCH   2  19
ATOM     19  C   UNL     1      34.193 -23.201 -17.067  0.00  0.00    +0.207 C 
BRANCH  19  20
ATOM     20  P   UNL     1      35.269 -23.245 -15.650  0.00  0.00    +0.360 P 
ATOM     21  O   UNL     1      35.502 -21.906 -15.011  0.00  0.00    -0.256 OA
BRANCH  20  22
ATOM     22  O   UNL     1      36.617 -23.935 -16.223  0.00  0.00    -0.322 OA
ATOM     23  H   UNL     1      36.422 -24.843 -16.500  0.00  0.00    +0.220 HD
ENDBRANCH  20  22
BRANCH  20  24
ATOM     24  O   UNL     1      34.653 -24.359 -14.651  0.00  0.00    -0.284 OA
BRANCH  24  25
ATOM     25  C   UNL     1      33.943 -23.983 -13.485  0.00  0.00    +0.226 C 
BRANCH  25  27
ATOM     26  O   UNL     1      34.853 -25.031 -11.488  0.00  0.00    -0.248 OA
ATOM     27  C   UNL     1      34.889 -24.124 -12.310  0.00  0.00    +0.342 C 
BRANCH  27  28
ATOM     28  O   UNL     1      35.812 -23.129 -12.272  0.00  0.00    -0.479 OA
ATOM     29  H   UNL     1      35.546 -22.250 -12.081  0.00  0.00    +0.295 HD
ENDBRANCH  27  28
ENDBRANCH  25  27
BRANCH  25  30
ATOM     30  C   UNL     1      32.737 -24.909 -13.323  0.00  0.00    +0.068 C 
BRANCH  30  31
ATOM     31  C   UNL     1      31.528 -24.399 -14.071  0.00  0.00    -0.019 C 
ATOM     32  C   UNL     1      31.426 -23.047 -14.395  0.00  0.00    -0.004 C 
ATOM     33  C   UNL     1      30.511 -25.281 -14.437  0.00  0.00    -0.004 C 
ATOM     34  C   UNL     1      30.310 -22.576 -15.086  0.00  0.00    -0.000 C 
ATOM     35  C   UNL     1      29.394 -24.812 -15.127  0.00  0.00    -0.000 C 
ATOM     36  C   UNL     1      29.293 -23.459 -15.451  0.00  0.00    -0.000 C 
ENDBRANCH  30  31
ENDBRANCH  25  30
ENDBRANCH  24  25
ENDBRANCH  20  24
ENDBRANCH  19  20
ENDBRANCH   2  19
TORSDOF 14
ENDMDL
