MODEL 1
REMARK VINA RESULT:      -6.3      0.000      0.000
REMARK  Name = 72048
REMARK  15 active torsions:
REMARK  status: ('A' for Active; 'I' for Inactive)
REMARK    1  A    between atoms: C_1  and  N_2
REMARK    2  A    between atoms: C_1  and  C_14
REMARK    3  A    between atoms: N_2  and  C_5
REMARK    4  A    between atoms: C_5  and  C_7
REMARK    5  A    between atoms: C_5  and  C_11
REMARK    6  A    between atoms: C_7  and  O_8
REMARK    7  A    between atoms: O_8  and  C_9
REMARK    8  A    between atoms: C_11  and  S_12
REMARK    9  A    between atoms: C_14  and  N_15
REMARK   10  A    between atoms: N_15  and  C_18
REMARK   11  A    between atoms: C_18  and  C_20
REMARK   12  A    between atoms: C_18  and  C_24
REMARK   13  A    between atoms: C_20  and  O_21
REMARK   14  A    between atoms: O_21  and  C_22
REMARK   15  A    between atoms: C_24  and  S_25
REMARK                            x       y       z     vdW  Elec       q    Type
REMARK                         _______ _______ _______ _____ _____    ______ ____
ROOT
ATOM      1  C   UNL     1      33.207 -24.342 -14.316  0.00  0.00    -0.105 C 
ENDROOT
BRANCH   1   2
ATOM      2  N   UNL     1      32.961 -23.145 -15.106  0.00  0.00    +0.391 N 
ATOM      3  H   UNL     1      33.841 -22.647 -15.242  0.00  0.00    -0.084 HD
ATOM      4  H   UNL     1      32.294 -22.555 -14.608  0.00  0.00    -0.084 HD
BRANCH   2   5
ATOM      5  C   UNL     1      32.399 -23.497 -16.413  0.00  0.00    +0.050 C 
BRANCH   5   7
ATOM      6  O   UNL     1      34.618 -23.177 -17.362  0.00  0.00    -0.252 OA
ATOM      7  C   UNL     1      33.405 -23.032 -17.451  0.00  0.00    +0.297 C 
BRANCH   7   8
ATOM      8  O   UNL     1      32.750 -22.411 -18.476  0.00  0.00    -0.450 OA
BRANCH   8   9
ATOM      9  C   UNL     1      33.587 -21.861 -19.499  0.00  0.00    +0.208 C 
ATOM     10  C   UNL     1      32.948 -20.595 -20.030  0.00  0.00    +0.051 C 
ENDBRANCH   8   9
ENDBRANCH   7   8
ENDBRANCH   5   7
BRANCH   5  11
ATOM     11  C   UNL     1      31.051 -22.796 -16.587  0.00  0.00    +0.043 C 
BRANCH  11  12
ATOM     12  S   UNL     1      29.679 -23.771 -15.893  0.00  0.00    -0.170 S 
ATOM     13  H   UNL     1      30.128 -24.495 -14.833  0.00  0.00    +0.102 HD
ENDBRANCH  11  12
ENDBRANCH   5  11
ENDBRANCH   2   5
ENDBRANCH   1   2
BRANCH   1  14
ATOM     14  C   UNL     1      34.637 -24.336 -13.785  0.00  0.00    -0.105 C 
BRANCH  14  15
ATOM     15  N   UNL     1      35.577 -24.592 -14.872  0.00  0.00    +0.391 N 
ATOM     16  H   UNL     1      35.727 -23.729 -15.395  0.00  0.00    -0.084 HD
ATOM     17  H   UNL     1      35.187 -25.314 -15.478  0.00  0.00    -0.084 HD
BRANCH  15  18
ATOM     18  C   UNL     1      36.854 -25.061 -14.351  0.00  0.00    +0.050 C 
BRANCH  18  20
ATOM     19  O   UNL     1      36.353 -26.993 -15.747  0.00  0.00    -0.252 OA
ATOM     20  C   UNL     1      37.159 -26.363 -15.073  0.00  0.00    +0.297 C 
BRANCH  20  21
ATOM     21  O   UNL     1      38.454 -26.726 -14.833  0.00  0.00    -0.450 OA
BRANCH  21  22
ATOM     22  C   UNL     1      39.431 -25.703 -15.049  0.00  0.00    +0.208 C 
ATOM     23  C   UNL     1      40.616 -25.954 -14.140  0.00  0.00    +0.051 C 
ENDBRANCH  21  22
ENDBRANCH  20  21
ENDBRANCH  18  20
BRANCH  18  24
ATOM     24  C   UNL     1      36.737 -25.273 -12.840  0.00  0.00    +0.043 C 
BRANCH  24  25
ATOM     25  S   UNL     1      37.891 -24.217 -11.910  0.00  0.00    -0.170 S 
ATOM     26  H   UNL     1      38.895 -24.980 -11.401  0.00  0.00    +0.102 HD
ENDBRANCH  24  25
ENDBRANCH  18  24
ENDBRANCH  15  18
ENDBRANCH  14  15
ENDBRANCH   1  14
TORSDOF 15
ENDMDL
MODEL 2
REMARK VINA RESULT:      -6.2      0.751      6.810
REMARK  Name = 72048
REMARK  15 active torsions:
REMARK  status: ('A' for Active; 'I' for Inactive)
REMARK    1  A    between atoms: C_1  and  N_2
REMARK    2  A    between atoms: C_1  and  C_14
REMARK    3  A    between atoms: N_2  and  C_5
REMARK    4  A    between atoms: C_5  and  C_7
REMARK    5  A    between atoms: C_5  and  C_11
REMARK    6  A    between atoms: C_7  and  O_8
REMARK    7  A    between atoms: O_8  and  C_9
REMARK    8  A    between atoms: C_11  and  S_12
REMARK    9  A    between atoms: C_14  and  N_15
REMARK   10  A    between atoms: N_15  and  C_18
REMARK   11  A    between atoms: C_18  and  C_20
REMARK   12  A    between atoms: C_18  and  C_24
REMARK   13  A    between atoms: C_20  and  O_21
REMARK   14  A    between atoms: O_21  and  C_22
REMARK   15  A    between atoms: C_24  and  S_25
REMARK                            x       y       z     vdW  Elec       q    Type
REMARK                         _______ _______ _______ _____ _____    ______ ____
ROOT
ATOM      1  C   UNL     1      33.754 -24.231 -13.429  0.00  0.00    -0.105 C 
ENDROOT
BRANCH   1   2
ATOM      2  N   UNL     1      34.595 -25.037 -14.299  0.00  0.00    +0.391 N 
ATOM      3  H   UNL     1      34.388 -24.808 -15.272  0.00  0.00    -0.084 HD
ATOM      4  H   UNL     1      34.404 -26.023 -14.120  0.00  0.00    -0.084 HD
BRANCH   2   5
ATOM      5  C   UNL     1      36.013 -24.774 -14.034  0.00  0.00    +0.050 C 
BRANCH   5   7
ATOM      6  O   UNL     1      36.363 -26.535 -15.679  0.00  0.00    -0.252 OA
ATOM      7  C   UNL     1      36.791 -25.867 -14.746  0.00  0.00    +0.297 C 
BRANCH   7   8
ATOM      8  O   UNL     1      38.023 -26.001 -14.170  0.00  0.00    -0.450 OA
BRANCH   8   9
ATOM      9  C   UNL     1      39.121 -25.505 -14.941  0.00  0.00    +0.208 C 
ATOM     10  C   UNL     1      40.414 -26.027 -14.349  0.00  0.00    +0.051 C 
ENDBRANCH   8   9
ENDBRANCH   7   8
ENDBRANCH   5   7
BRANCH   5  11
ATOM     11  C   UNL     1      36.258 -24.806 -12.525  0.00  0.00    +0.043 C 
BRANCH  11  12
ATOM     12  S   UNL     1      37.068 -23.287 -11.933  0.00  0.00    -0.170 S 
ATOM     13  H   UNL     1      36.691 -22.238 -12.713  0.00  0.00    +0.102 HD
ENDBRANCH  11  12
ENDBRANCH   5  11
ENDBRANCH   2   5
ENDBRANCH   1   2
BRANCH   1  14
ATOM     14  C   UNL     1      32.345 -24.133 -14.004  0.00  0.00    -0.105 C 
BRANCH  14  15
ATOM     15  N   UNL     1      32.266 -23.029 -14.955  0.00  0.00    +0.391 N 
ATOM     16  H   UNL     1      33.187 -22.599 -15.045  0.00  0.00    -0.084 HD
ATOM     17  H   UNL     1      31.587 -22.350 -14.611  0.00  0.00    -0.084 HD
BRANCH  15  18
ATOM     18  C   UNL     1      31.831 -23.501 -16.262  0.00  0.00    +0.050 C 
BRANCH  18  20
ATOM     19  O   UNL     1      34.132 -23.672 -17.041  0.00  0.00    -0.252 OA
ATOM     20  C   UNL     1      32.991 -23.260 -17.213  0.00  0.00    +0.297 C 
BRANCH  20  21
ATOM     21  O   UNL     1      32.569 -22.497 -18.265  0.00  0.00    -0.450 OA
BRANCH  21  22
ATOM     22  C   UNL     1      33.599 -22.032 -19.142  0.00  0.00    +0.208 C 
ATOM     23  C   UNL     1      33.130 -20.765 -19.825  0.00  0.00    +0.051 C 
ENDBRANCH  21  22
ENDBRANCH  20  21
ENDBRANCH  18  20
BRANCH  18  24
ATOM     24  C   UNL     1      30.585 -22.725 -16.691  0.00  0.00    +0.043 C 
BRANCH  24  25
ATOM     25  S   UNL     1      29.098 -23.264 -15.788  0.00  0.00    -0.170 S 
ATOM     26  H   UNL     1      28.016 -23.184 -16.607  0.00  0.00    +0.102 HD
ENDBRANCH  24  25
ENDBRANCH  18  24
ENDBRANCH  15  18
ENDBRANCH  14  15
ENDBRANCH   1  14
TORSDOF 15
ENDMDL
MODEL 3
REMARK VINA RESULT:      -6.0     12.114     15.495
REMARK  Name = 72048
REMARK  15 active torsions:
REMARK  status: ('A' for Active; 'I' for Inactive)
REMARK    1  A    between atoms: C_1  and  N_2
REMARK    2  A    between atoms: C_1  and  C_14
REMARK    3  A    between atoms: N_2  and  C_5
REMARK    4  A    between atoms: C_5  and  C_7
REMARK    5  A    between atoms: C_5  and  C_11
REMARK    6  A    between atoms: C_7  and  O_8
REMARK    7  A    between atoms: O_8  and  C_9
REMARK    8  A    between atoms: C_11  and  S_12
REMARK    9  A    between atoms: C_14  and  N_15
REMARK   10  A    between atoms: N_15  and  C_18
REMARK   11  A    between atoms: C_18  and  C_20
REMARK   12  A    between atoms: C_18  and  C_24
REMARK   13  A    between atoms: C_20  and  O_21
REMARK   14  A    between atoms: O_21  and  C_22
REMARK   15  A    between atoms: C_24  and  S_25
REMARK                            x       y       z     vdW  Elec       q    Type
REMARK                         _______ _______ _______ _____ _____    ______ ____
ROOT
ATOM      1  C   UNL     1      34.051 -10.125 -23.986  0.00  0.00    -0.105 C 
ENDROOT
BRANCH   1   2
ATOM      2  N   UNL     1      32.873  -9.932 -23.155  0.00  0.00    +0.391 N 
ATOM      3  H   UNL     1      33.018 -10.389 -22.255  0.00  0.00    -0.084 HD
ATOM      4  H   UNL     1      32.066 -10.336 -23.631  0.00  0.00    -0.084 HD
BRANCH   2   5
ATOM      5  C   UNL     1      32.625  -8.504 -22.937  0.00  0.00    +0.050 C 
BRANCH   5   7
ATOM      6  O   UNL     1      32.803  -7.338 -20.806  0.00  0.00    -0.252 OA
ATOM      7  C   UNL     1      32.447  -8.324 -21.439  0.00  0.00    +0.297 C 
BRANCH   7   8
ATOM      8  O   UNL     1      31.856  -9.438 -20.912  0.00  0.00    -0.450 OA
BRANCH   8   9
ATOM      9  C   UNL     1      32.144  -9.695 -19.534  0.00  0.00    +0.208 C 
ATOM     10  C   UNL     1      31.168 -10.729 -19.012  0.00  0.00    +0.051 C 
ENDBRANCH   8   9
ENDBRANCH   7   8
ENDBRANCH   5   7
BRANCH   5  11
ATOM     11  C   UNL     1      31.369  -8.086 -23.703  0.00  0.00    +0.043 C 
BRANCH  11  12
ATOM     12  S   UNL     1      31.378  -6.312 -24.113  0.00  0.00    -0.170 S 
ATOM     13  H   UNL     1      30.451  -5.666 -23.355  0.00  0.00    +0.102 HD
ENDBRANCH  11  12
ENDBRANCH   5  11
ENDBRANCH   2   5
ENDBRANCH   1   2
BRANCH   1  14
ATOM     14  C   UNL     1      33.971 -11.467 -24.706  0.00  0.00    -0.105 C 
BRANCH  14  15
ATOM     15  N   UNL     1      34.103 -12.560 -23.748  0.00  0.00    +0.391 N 
ATOM     16  H   UNL     1      34.128 -12.175 -22.803  0.00  0.00    -0.084 HD
ATOM     17  H   UNL     1      34.965 -13.068 -23.949  0.00  0.00    -0.084 HD
BRANCH  15  18
ATOM     18  C   UNL     1      32.982 -13.483 -23.857  0.00  0.00    +0.050 C 
BRANCH  18  20
ATOM     19  O   UNL     1      31.976 -12.628 -21.811  0.00  0.00    -0.252 OA
ATOM     20  C   UNL     1      32.371 -13.582 -22.470  0.00  0.00    +0.297 C 
BRANCH  20  21
ATOM     21  O   UNL     1      32.357 -14.888 -22.069  0.00  0.00    -0.450 OA
BRANCH  21  22
ATOM     22  C   UNL     1      32.763 -15.123 -20.717  0.00  0.00    +0.208 C 
ATOM     23  C   UNL     1      34.275 -15.144 -20.653  0.00  0.00    +0.051 C 
ENDBRANCH  21  22
ENDBRANCH  20  21
ENDBRANCH  18  20
BRANCH  18  24
ATOM     24  C   UNL     1      33.491 -14.841 -24.344  0.00  0.00    +0.043 C 
BRANCH  24  25
ATOM     25  S   UNL     1      33.153 -15.105 -26.113  0.00  0.00    -0.170 S 
ATOM     26  H   UNL     1      33.511 -16.370 -26.460  0.00  0.00    +0.102 HD
ENDBRANCH  24  25
ENDBRANCH  18  24
ENDBRANCH  15  18
ENDBRANCH  14  15
ENDBRANCH   1  14
TORSDOF 15
ENDMDL
MODEL 4
REMARK VINA RESULT:      -6.0     12.074     16.020
REMARK  Name = 72048
REMARK  15 active torsions:
REMARK  status: ('A' for Active; 'I' for Inactive)
REMARK    1  A    between atoms: C_1  and  N_2
REMARK    2  A    between atoms: C_1  and  C_14
REMARK    3  A    between atoms: N_2  and  C_5
REMARK    4  A    between atoms: C_5  and  C_7
REMARK    5  A    between atoms: C_5  and  C_11
REMARK    6  A    between atoms: C_7  and  O_8
REMARK    7  A    between atoms: O_8  and  C_9
REMARK    8  A    between atoms: C_11  and  S_12
REMARK    9  A    between atoms: C_14  and  N_15
REMARK   10  A    between atoms: N_15  and  C_18
REMARK   11  A    between atoms: C_18  and  C_20
REMARK   12  A    between atoms: C_18  and  C_24
REMARK   13  A    between atoms: C_20  and  O_21
REMARK   14  A    between atoms: O_21  and  C_22
REMARK   15  A    between atoms: C_24  and  S_25
REMARK                            x       y       z     vdW  Elec       q    Type
REMARK                         _______ _______ _______ _____ _____    ______ ____
ROOT
ATOM      1  C   UNL     1      33.947 -11.453 -24.724  0.00  0.00    -0.105 C 
ENDROOT
BRANCH   1   2
ATOM      2  N   UNL     1      34.125 -12.591 -23.835  0.00  0.00    +0.391 N 
ATOM      3  H   UNL     1      34.212 -12.256 -22.875  0.00  0.00    -0.084 HD
ATOM      4  H   UNL     1      34.967 -13.095 -24.112  0.00  0.00    -0.084 HD
BRANCH   2   5
ATOM      5  C   UNL     1      32.979 -13.500 -23.926  0.00  0.00    +0.050 C 
BRANCH   5   7
ATOM      6  O   UNL     1      31.864 -12.643 -21.939  0.00  0.00    -0.252 OA
ATOM      7  C   UNL     1      32.384 -13.580 -22.531  0.00  0.00    +0.297 C 
BRANCH   7   8
ATOM      8  O   UNL     1      32.542 -14.844 -22.038  0.00  0.00    -0.450 OA
BRANCH   8   9
ATOM      9  C   UNL     1      32.922 -14.926 -20.660  0.00  0.00    +0.208 C 
ATOM     10  C   UNL     1      34.404 -15.225 -20.575  0.00  0.00    +0.051 C 
ENDBRANCH   8   9
ENDBRANCH   7   8
ENDBRANCH   5   7
BRANCH   5  11
ATOM     11  C   UNL     1      33.459 -14.870 -24.408  0.00  0.00    +0.043 C 
BRANCH  11  12
ATOM     12  S   UNL     1      33.103 -15.135 -26.174  0.00  0.00    -0.170 S 
ATOM     13  H   UNL     1      31.820 -15.565 -26.318  0.00  0.00    +0.102 HD
ENDBRANCH  11  12
ENDBRANCH   5  11
ENDBRANCH   2   5
ENDBRANCH   1   2
BRANCH   1  14
ATOM     14  C   UNL     1      34.001 -10.152 -23.929  0.00  0.00    -0.105 C 
BRANCH  14  15
ATOM     15  N   UNL     1      32.720  -9.911 -23.273  0.00  0.00    +0.391 N 
ATOM     16  H   UNL     1      32.688 -10.436 -22.399  0.00  0.00    -0.084 HD
ATOM     17  H   UNL     1      31.972 -10.212 -23.897  0.00  0.00    -0.084 HD
BRANCH  15  18
ATOM     18  C   UNL     1      32.545  -8.494 -22.985  0.00  0.00    +0.050 C 
BRANCH  18  20
ATOM     19  O   UNL     1      32.959  -7.416 -20.842  0.00  0.00    -0.252 OA
ATOM     20  C   UNL     1      32.509  -8.365 -21.472  0.00  0.00    +0.297 C 
BRANCH  20  21
ATOM     21  O   UNL     1      31.925  -9.475 -20.932  0.00  0.00    -0.450 OA
BRANCH  21  22
ATOM     22  C   UNL     1      32.054  -9.613 -19.514  0.00  0.00    +0.208 C 
ATOM     23  C   UNL     1      31.217 -10.787 -19.054  0.00  0.00    +0.051 C 
ENDBRANCH  21  22
ENDBRANCH  20  21
ENDBRANCH  18  20
BRANCH  18  24
ATOM     24  C   UNL     1      31.241  -8.007 -23.620  0.00  0.00    +0.043 C 
BRANCH  24  25
ATOM     25  S   UNL     1      31.248  -6.208 -23.903  0.00  0.00    -0.170 S 
ATOM     26  H   UNL     1      30.525  -5.921 -25.018  0.00  0.00    +0.102 HD
ENDBRANCH  24  25
ENDBRANCH  18  24
ENDBRANCH  15  18
ENDBRANCH  14  15
ENDBRANCH   1  14
TORSDOF 15
ENDMDL
MODEL 5
REMARK VINA RESULT:      -5.9      8.225     12.617
REMARK  Name = 72048
REMARK  15 active torsions:
REMARK  status: ('A' for Active; 'I' for Inactive)
REMARK    1  A    between atoms: C_1  and  N_2
REMARK    2  A    between atoms: C_1  and  C_14
REMARK    3  A    between atoms: N_2  and  C_5
REMARK    4  A    between atoms: C_5  and  C_7
REMARK    5  A    between atoms: C_5  and  C_11
REMARK    6  A    between atoms: C_7  and  O_8
REMARK    7  A    between atoms: O_8  and  C_9
REMARK    8  A    between atoms: C_11  and  S_12
REMARK    9  A    between atoms: C_14  and  N_15
REMARK   10  A    between atoms: N_15  and  C_18
REMARK   11  A    between atoms: C_18  and  C_20
REMARK   12  A    between atoms: C_18  and  C_24
REMARK   13  A    between atoms: C_20  and  O_21
REMARK   14  A    between atoms: O_21  and  C_22
REMARK   15  A    between atoms: C_24  and  S_25
REMARK                            x       y       z     vdW  Elec       q    Type
REMARK                         _______ _______ _______ _____ _____    ______ ____
ROOT
ATOM      1  C   UNL     1      33.725 -15.983 -20.508  0.00  0.00    -0.105 C 
ENDROOT
BRANCH   1   2
ATOM      2  N   UNL     1      34.811 -16.219 -21.446  0.00  0.00    +0.391 N 
ATOM      3  H   UNL     1      35.681 -16.344 -20.927  0.00  0.00    -0.084 HD
ATOM      4  H   UNL     1      34.885 -15.416 -22.071  0.00  0.00    -0.084 HD
BRANCH   2   5
ATOM      5  C   UNL     1      34.550 -17.418 -22.246  0.00  0.00    +0.050 C 
BRANCH   5   7
ATOM      6  O   UNL     1      35.899 -18.602 -20.601  0.00  0.00    -0.252 OA
ATOM      7  C   UNL     1      34.962 -18.603 -21.390  0.00  0.00    +0.297 C 
BRANCH   7   8
ATOM      8  O   UNL     1      34.145 -19.666 -21.655  0.00  0.00    -0.450 OA
BRANCH   8   9
ATOM      9  C   UNL     1      33.029 -19.820 -20.774  0.00  0.00    +0.208 C 
ATOM     10  C   UNL     1      33.315 -20.953 -19.811  0.00  0.00    +0.051 C 
ENDBRANCH   8   9
ENDBRANCH   7   8
ENDBRANCH   5   7
BRANCH   5  11
ATOM     11  C   UNL     1      35.365 -17.352 -23.538  0.00  0.00    +0.043 C 
BRANCH  11  12
ATOM     12  S   UNL     1      34.433 -17.986 -24.968  0.00  0.00    -0.170 S 
ATOM     13  H   UNL     1      34.424 -17.049 -25.955  0.00  0.00    +0.102 HD
ENDBRANCH  11  12
ENDBRANCH   5  11
ENDBRANCH   2   5
ENDBRANCH   1   2
BRANCH   1  14
ATOM     14  C   UNL     1      32.563 -15.290 -21.214  0.00  0.00    -0.105 C 
BRANCH  14  15
ATOM     15  N   UNL     1      32.870 -13.878 -21.418  0.00  0.00    +0.391 N 
ATOM     16  H   UNL     1      33.882 -13.758 -21.456  0.00  0.00    -0.084 HD
ATOM     17  H   UNL     1      32.476 -13.343 -20.643  0.00  0.00    -0.084 HD
BRANCH  15  18
ATOM     18  C   UNL     1      32.285 -13.395 -22.661  0.00  0.00    +0.050 C 
BRANCH  18  20
ATOM     19  O   UNL     1      34.405 -14.027 -23.679  0.00  0.00    -0.252 OA
ATOM     20  C   UNL     1      33.193 -13.881 -23.778  0.00  0.00    +0.297 C 
BRANCH  20  21
ATOM     21  O   UNL     1      32.452 -14.102 -24.905  0.00  0.00    -0.450 OA
BRANCH  21  22
ATOM     22  C   UNL     1      33.193 -14.503 -26.061  0.00  0.00    +0.208 C 
ATOM     23  C   UNL     1      33.240 -13.350 -27.041  0.00  0.00    +0.051 C 
ENDBRANCH  21  22
ENDBRANCH  20  21
ENDBRANCH  18  20
BRANCH  18  24
ATOM     24  C   UNL     1      32.211 -11.867 -22.624  0.00  0.00    +0.043 C 
BRANCH  24  25
ATOM     25  S   UNL     1      31.035 -11.269 -21.369  0.00  0.00    -0.170 S 
ATOM     26  H   UNL     1      31.662 -10.392 -20.541  0.00  0.00    +0.102 HD
ENDBRANCH  24  25
ENDBRANCH  18  24
ENDBRANCH  15  18
ENDBRANCH  14  15
ENDBRANCH   1  14
TORSDOF 15
ENDMDL
MODEL 6
REMARK VINA RESULT:      -5.9      7.990     11.027
REMARK  Name = 72048
REMARK  15 active torsions:
REMARK  status: ('A' for Active; 'I' for Inactive)
REMARK    1  A    between atoms: C_1  and  N_2
REMARK    2  A    between atoms: C_1  and  C_14
REMARK    3  A    between atoms: N_2  and  C_5
REMARK    4  A    between atoms: C_5  and  C_7
REMARK    5  A    between atoms: C_5  and  C_11
REMARK    6  A    between atoms: C_7  and  O_8
REMARK    7  A    between atoms: O_8  and  C_9
REMARK    8  A    between atoms: C_11  and  S_12
REMARK    9  A    between atoms: C_14  and  N_15
REMARK   10  A    between atoms: N_15  and  C_18
REMARK   11  A    between atoms: C_18  and  C_20
REMARK   12  A    between atoms: C_18  and  C_24
REMARK   13  A    between atoms: C_20  and  O_21
REMARK   14  A    between atoms: O_21  and  C_22
REMARK   15  A    between atoms: C_24  and  S_25
REMARK                            x       y       z     vdW  Elec       q    Type
REMARK                         _______ _______ _______ _____ _____    ______ ____
ROOT
ATOM      1  C   UNL     1      34.538 -15.583 -22.325  0.00  0.00    -0.105 C 
ENDROOT
BRANCH   1   2
ATOM      2  N   UNL     1      34.397 -14.136 -22.282  0.00  0.00    +0.391 N 
ATOM      3  H   UNL     1      35.297 -13.719 -22.043  0.00  0.00    -0.084 HD
ATOM      4  H   UNL     1      33.698 -13.896 -21.579  0.00  0.00    -0.084 HD
BRANCH   2   5
ATOM      5  C   UNL     1      33.956 -13.622 -23.581  0.00  0.00    +0.050 C 
BRANCH   5   7
ATOM      6  O   UNL     1      33.320 -11.277 -23.734  0.00  0.00    -0.252 OA
ATOM      7  C   UNL     1      33.105 -12.398 -23.291  0.00  0.00    +0.297 C 
BRANCH   7   8
ATOM      8  O   UNL     1      32.086 -12.739 -22.446  0.00  0.00    -0.450 OA
BRANCH   8   9
ATOM      9  C   UNL     1      31.420 -11.644 -21.810  0.00  0.00    +0.208 C 
ATOM     10  C   UNL     1      31.608 -11.758 -20.311  0.00  0.00    +0.051 C 
ENDBRANCH   8   9
ENDBRANCH   7   8
ENDBRANCH   5   7
BRANCH   5  11
ATOM     11  C   UNL     1      33.152 -14.703 -24.306  0.00  0.00    +0.043 C 
BRANCH  11  12
ATOM     12  S   UNL     1      33.009 -14.367 -26.089  0.00  0.00    -0.170 S 
ATOM     13  H   UNL     1      32.779 -13.040 -26.284  0.00  0.00    +0.102 HD
ENDBRANCH  11  12
ENDBRANCH   5  11
ENDBRANCH   2   5
ENDBRANCH   1   2
BRANCH   1  14
ATOM     14  C   UNL     1      34.616 -16.146 -20.909  0.00  0.00    -0.105 C 
BRANCH  14  15
ATOM     15  N   UNL     1      35.244 -17.463 -20.926  0.00  0.00    +0.391 N 
ATOM     16  H   UNL     1      35.287 -17.825 -19.973  0.00  0.00    -0.084 HD
ATOM     17  H   UNL     1      36.182 -17.373 -21.315  0.00  0.00    -0.084 HD
BRANCH  15  18
ATOM     18  C   UNL     1      34.483 -18.388 -21.753  0.00  0.00    +0.050 C 
BRANCH  18  20
ATOM     19  O   UNL     1      32.933 -19.962 -20.729  0.00  0.00    -0.252 OA
ATOM     20  C   UNL     1      34.076 -19.538 -20.848  0.00  0.00    +0.297 C 
BRANCH  20  21
ATOM     21  O   UNL     1      35.172 -20.001 -20.176  0.00  0.00    -0.450 OA
BRANCH  21  22
ATOM     22  C   UNL     1      35.072 -21.340 -19.682  0.00  0.00    +0.208 C 
ATOM     23  C   UNL     1      36.240 -21.613 -18.758  0.00  0.00    +0.051 C 
ENDBRANCH  21  22
ENDBRANCH  20  21
ENDBRANCH  18  20
BRANCH  18  24
ATOM     24  C   UNL     1      35.360 -18.870 -22.910  0.00  0.00    +0.043 C 
BRANCH  24  25
ATOM     25  S   UNL     1      34.549 -18.642 -24.525  0.00  0.00    -0.170 S 
ATOM     26  H   UNL     1      34.111 -19.844 -24.986  0.00  0.00    +0.102 HD
ENDBRANCH  24  25
ENDBRANCH  18  24
ENDBRANCH  15  18
ENDBRANCH  14  15
ENDBRANCH   1  14
TORSDOF 15
ENDMDL
MODEL 7
REMARK VINA RESULT:      -5.9      8.277     11.260
REMARK  Name = 72048
REMARK  15 active torsions:
REMARK  status: ('A' for Active; 'I' for Inactive)
REMARK    1  A    between atoms: C_1  and  N_2
REMARK    2  A    between atoms: C_1  and  C_14
REMARK    3  A    between atoms: N_2  and  C_5
REMARK    4  A    between atoms: C_5  and  C_7
REMARK    5  A    between atoms: C_5  and  C_11
REMARK    6  A    between atoms: C_7  and  O_8
REMARK    7  A    between atoms: O_8  and  C_9
REMARK    8  A    between atoms: C_11  and  S_12
REMARK    9  A    between atoms: C_14  and  N_15
REMARK   10  A    between atoms: N_15  and  C_18
REMARK   11  A    between atoms: C_18  and  C_20
REMARK   12  A    between atoms: C_18  and  C_24
REMARK   13  A    between atoms: C_20  and  O_21
REMARK   14  A    between atoms: O_21  and  C_22
REMARK   15  A    between atoms: C_24  and  S_25
REMARK                            x       y       z     vdW  Elec       q    Type
REMARK                         _______ _______ _______ _____ _____    ______ ____
ROOT
ATOM      1  C   UNL     1      33.778 -15.407 -21.776  0.00  0.00    -0.105 C 
ENDROOT
BRANCH   1   2
ATOM      2  N   UNL     1      34.616 -14.332 -22.283  0.00  0.00    +0.391 N 
ATOM      3  H   UNL     1      35.592 -14.626 -22.257  0.00  0.00    -0.084 HD
ATOM      4  H   UNL     1      34.479 -13.506 -21.700  0.00  0.00    -0.084 HD
BRANCH   2   5
ATOM      5  C   UNL     1      34.250 -14.001 -23.663  0.00  0.00    +0.050 C 
BRANCH   5   7
ATOM      6  O   UNL     1      32.389 -12.571 -23.012  0.00  0.00    -0.252 OA
ATOM      7  C   UNL     1      33.456 -12.707 -23.597  0.00  0.00    +0.297 C 
BRANCH   7   8
ATOM      8  O   UNL     1      34.105 -11.736 -24.306  0.00  0.00    -0.450 OA
BRANCH   8   9
ATOM      9  C   UNL     1      33.781 -10.389 -23.947  0.00  0.00    +0.208 C 
ATOM     10  C   UNL     1      34.920  -9.481 -24.361  0.00  0.00    +0.051 C 
ENDBRANCH   8   9
ENDBRANCH   7   8
ENDBRANCH   5   7
BRANCH   5  11
ATOM     11  C   UNL     1      33.415 -15.139 -24.252  0.00  0.00    +0.043 C 
BRANCH  11  12
ATOM     12  S   UNL     1      33.074 -14.890 -26.023  0.00  0.00    -0.170 S 
ATOM     13  H   UNL     1      32.642 -13.616 -26.227  0.00  0.00    +0.102 HD
ENDBRANCH  11  12
ENDBRANCH   5  11
ENDBRANCH   2   5
ENDBRANCH   1   2
BRANCH   1  14
ATOM     14  C   UNL     1      34.404 -16.014 -20.524  0.00  0.00    -0.105 C 
BRANCH  14  15
ATOM     15  N   UNL     1      35.260 -17.139 -20.884  0.00  0.00    +0.391 N 
ATOM     16  H   UNL     1      35.511 -17.652 -20.038  0.00  0.00    -0.084 HD
ATOM     17  H   UNL     1      36.096 -16.779 -21.345  0.00  0.00    -0.084 HD
BRANCH  15  18
ATOM     18  C   UNL     1      34.574 -18.039 -21.801  0.00  0.00    +0.050 C 
BRANCH  18  20
ATOM     19  O   UNL     1      33.053 -19.726 -20.924  0.00  0.00    -0.252 OA
ATOM     20  C   UNL     1      34.185 -19.263 -20.990  0.00  0.00    +0.297 C 
BRANCH  20  21
ATOM     21  O   UNL     1      35.283 -19.744 -20.334  0.00  0.00    -0.450 OA
BRANCH  21  22
ATOM     22  C   UNL     1      35.177 -21.089 -19.859  0.00  0.00    +0.208 C 
ATOM     23  C   UNL     1      36.394 -21.412 -19.018  0.00  0.00    +0.051 C 
ENDBRANCH  21  22
ENDBRANCH  20  21
ENDBRANCH  18  20
BRANCH  18  24
ATOM     24  C   UNL     1      35.515 -18.404 -22.950  0.00  0.00    +0.043 C 
BRANCH  24  25
ATOM     25  S   UNL     1      34.610 -18.769 -24.487  0.00  0.00    -0.170 S 
ATOM     26  H   UNL     1      34.534 -17.644 -25.247  0.00  0.00    +0.102 HD
ENDBRANCH  24  25
ENDBRANCH  18  24
ENDBRANCH  15  18
ENDBRANCH  14  15
ENDBRANCH   1  14
TORSDOF 15
ENDMDL
MODEL 8
REMARK VINA RESULT:      -5.9      8.026     12.604
REMARK  Name = 72048
REMARK  15 active torsions:
REMARK  status: ('A' for Active; 'I' for Inactive)
REMARK    1  A    between atoms: C_1  and  N_2
REMARK    2  A    between atoms: C_1  and  C_14
REMARK    3  A    between atoms: N_2  and  C_5
REMARK    4  A    between atoms: C_5  and  C_7
REMARK    5  A    between atoms: C_5  and  C_11
REMARK    6  A    between atoms: C_7  and  O_8
REMARK    7  A    between atoms: O_8  and  C_9
REMARK    8  A    between atoms: C_11  and  S_12
REMARK    9  A    between atoms: C_14  and  N_15
REMARK   10  A    between atoms: N_15  and  C_18
REMARK   11  A    between atoms: C_18  and  C_20
REMARK   12  A    between atoms: C_18  and  C_24
REMARK   13  A    between atoms: C_20  and  O_21
REMARK   14  A    between atoms: O_21  and  C_22
REMARK   15  A    between atoms: C_24  and  S_25
REMARK                            x       y       z     vdW  Elec       q    Type
REMARK                         _______ _______ _______ _____ _____    ______ ____
ROOT
ATOM      1  C   UNL     1      34.507 -16.048 -20.611  0.00  0.00    -0.105 C 
ENDROOT
BRANCH   1   2
ATOM      2  N   UNL     1      35.299 -17.250 -20.819  0.00  0.00    +0.391 N 
ATOM      3  H   UNL     1      35.436 -17.721 -19.925  0.00  0.00    -0.084 HD
ATOM      4  H   UNL     1      36.198 -16.985 -21.221  0.00  0.00    -0.084 HD
BRANCH   2   5
ATOM      5  C   UNL     1      34.619 -18.162 -21.744  0.00  0.00    +0.050 C 
BRANCH   5   7
ATOM      6  O   UNL     1      33.244 -20.010 -20.956  0.00  0.00    -0.252 OA
ATOM      7  C   UNL     1      34.320 -19.426 -20.957  0.00  0.00    +0.297 C 
BRANCH   7   8
ATOM      8  O   UNL     1      35.424 -19.789 -20.239  0.00  0.00    -0.450 OA
BRANCH   8   9
ATOM      9  C   UNL     1      35.658 -21.197 -20.137  0.00  0.00    +0.208 C 
ATOM     10  C   UNL     1      36.330 -21.490 -18.812  0.00  0.00    +0.051 C 
ENDBRANCH   8   9
ENDBRANCH   7   8
ENDBRANCH   5   7
BRANCH   5  11
ATOM     11  C   UNL     1      35.534 -18.448 -22.936  0.00  0.00    +0.043 C 
BRANCH  11  12
ATOM     12  S   UNL     1      34.593 -18.711 -24.472  0.00  0.00    -0.170 S 
ATOM     13  H   UNL     1      34.543 -20.041 -24.752  0.00  0.00    +0.102 HD
ENDBRANCH  11  12
ENDBRANCH   5  11
ENDBRANCH   2   5
ENDBRANCH   1   2
BRANCH   1  14
ATOM     14  C   UNL     1      33.916 -15.573 -21.935  0.00  0.00    -0.105 C 
BRANCH  14  15
ATOM     15  N   UNL     1      34.377 -14.221 -22.234  0.00  0.00    +0.391 N 
ATOM     16  H   UNL     1      35.377 -14.158 -22.039  0.00  0.00    -0.084 HD
ATOM     17  H   UNL     1      33.858 -13.563 -21.653  0.00  0.00    -0.084 HD
BRANCH  15  18
ATOM     18  C   UNL     1      34.144 -13.892 -23.633  0.00  0.00    +0.050 C 
BRANCH  18  20
ATOM     19  O   UNL     1      33.744 -11.589 -24.314  0.00  0.00    -0.252 OA
ATOM     20  C   UNL     1      33.414 -12.560 -23.645  0.00  0.00    +0.297 C 
BRANCH  20  21
ATOM     21  O   UNL     1      32.357 -12.610 -22.780  0.00  0.00    -0.450 OA
BRANCH  21  22
ATOM     22  C   UNL     1      31.882 -11.344 -22.313  0.00  0.00    +0.208 C 
ATOM     23  C   UNL     1      31.137 -11.547 -21.011  0.00  0.00    +0.051 C 
ENDBRANCH  21  22
ENDBRANCH  20  21
ENDBRANCH  18  20
BRANCH  18  24
ATOM     24  C   UNL     1      33.304 -14.996 -24.279  0.00  0.00    +0.043 C 
BRANCH  24  25
ATOM     25  S   UNL     1      33.078 -14.729 -26.066  0.00  0.00    -0.170 S 
ATOM     26  H   UNL     1      31.973 -13.966 -26.274  0.00  0.00    +0.102 HD
ENDBRANCH  24  25
ENDBRANCH  18  24
ENDBRANCH  15  18
ENDBRANCH  14  15
ENDBRANCH   1  14
TORSDOF 15
ENDMDL
MODEL 9
REMARK VINA RESULT:      -5.8      8.948     13.395
REMARK  Name = 72048
REMARK  15 active torsions:
REMARK  status: ('A' for Active; 'I' for Inactive)
REMARK    1  A    between atoms: C_1  and  N_2
REMARK    2  A    between atoms: C_1  and  C_14
REMARK    3  A    between atoms: N_2  and  C_5
REMARK    4  A    between atoms: C_5  and  C_7
REMARK    5  A    between atoms: C_5  and  C_11
REMARK    6  A    between atoms: C_7  and  O_8
REMARK    7  A    between atoms: O_8  and  C_9
REMARK    8  A    between atoms: C_11  and  S_12
REMARK    9  A    between atoms: C_14  and  N_15
REMARK   10  A    between atoms: N_15  and  C_18
REMARK   11  A    between atoms: C_18  and  C_20
REMARK   12  A    between atoms: C_18  and  C_24
REMARK   13  A    between atoms: C_20  and  O_21
REMARK   14  A    between atoms: O_21  and  C_22
REMARK   15  A    between atoms: C_24  and  S_25
REMARK                            x       y       z     vdW  Elec       q    Type
REMARK                         _______ _______ _______ _____ _____    ______ ____
ROOT
ATOM      1  C   UNL     1      33.625 -15.518 -21.105  0.00  0.00    -0.105 C 
ENDROOT
BRANCH   1   2
ATOM      2  N   UNL     1      34.894 -16.009 -21.619  0.00  0.00    +0.391 N 
ATOM      3  H   UNL     1      35.539 -16.148 -20.841  0.00  0.00    -0.084 HD
ATOM      4  H   UNL     1      35.272 -15.324 -22.273  0.00  0.00    -0.084 HD
BRANCH   2   5
ATOM      5  C   UNL     1      34.708 -17.281 -22.323  0.00  0.00    +0.050 C 
BRANCH   5   7
ATOM      6  O   UNL     1      36.790 -18.481 -21.932  0.00  0.00    -0.252 OA
ATOM      7  C   UNL     1      35.617 -18.287 -21.639  0.00  0.00    +0.297 C 
BRANCH   7   8
ATOM      8  O   UNL     1      34.917 -18.951 -20.672  0.00  0.00    -0.450 OA
BRANCH   8   9
ATOM      9  C   UNL     1      33.609 -19.392 -21.050  0.00  0.00    +0.208 C 
ATOM     10  C   UNL     1      33.201 -20.546 -20.157  0.00  0.00    +0.051 C 
ENDBRANCH   8   9
ENDBRANCH   7   8
ENDBRANCH   5   7
BRANCH   5  11
ATOM     11  C   UNL     1      35.080 -17.102 -23.796  0.00  0.00    +0.043 C 
BRANCH  11  12
ATOM     12  S   UNL     1      34.365 -18.407 -24.845  0.00  0.00    -0.170 S 
ATOM     13  H   UNL     1      33.769 -17.842 -25.929  0.00  0.00    +0.102 HD
ENDBRANCH  11  12
ENDBRANCH   5  11
ENDBRANCH   2   5
ENDBRANCH   1   2
BRANCH   1  14
ATOM     14  C   UNL     1      33.081 -14.420 -22.015  0.00  0.00    -0.105 C 
BRANCH  14  15
ATOM     15  N   UNL     1      34.182 -13.664 -22.603  0.00  0.00    +0.391 N 
ATOM     16  H   UNL     1      35.023 -14.242 -22.600  0.00  0.00    -0.084 HD
ATOM     17  H   UNL     1      34.328 -12.818 -22.052  0.00  0.00    -0.084 HD
BRANCH  15  18
ATOM     18  C   UNL     1      33.872 -13.280 -23.973  0.00  0.00    +0.050 C 
BRANCH  18  20
ATOM     19  O   UNL     1      32.719 -11.366 -23.006  0.00  0.00    -0.252 OA
ATOM     20  C   UNL     1      33.387 -11.841 -23.916  0.00  0.00    +0.297 C 
BRANCH  20  21
ATOM     21  O   UNL     1      33.790 -11.178 -25.040  0.00  0.00    -0.450 OA
BRANCH  21  22
ATOM     22  C   UNL     1      34.921 -10.318 -24.876  0.00  0.00    +0.208 C 
ATOM     23  C   UNL     1      35.730 -10.317 -26.155  0.00  0.00    +0.051 C 
ENDBRANCH  21  22
ENDBRANCH  20  21
ENDBRANCH  18  20
BRANCH  18  24
ATOM     24  C   UNL     1      32.793 -14.213 -24.527  0.00  0.00    +0.043 C 
BRANCH  24  25
ATOM     25  S   UNL     1      33.066 -14.607 -26.284  0.00  0.00    -0.170 S 
ATOM     26  H   UNL     1      32.415 -13.699 -27.059  0.00  0.00    +0.102 HD
ENDBRANCH  24  25
ENDBRANCH  18  24
ENDBRANCH  15  18
ENDBRANCH  14  15
ENDBRANCH   1  14
TORSDOF 15
ENDMDL
