MODEL 1
REMARK VINA RESULT:     -10.9      0.000      0.000
REMARK  Name = 23586178
REMARK  5 active torsions:
REMARK  status: ('A' for Active; 'I' for Inactive)
REMARK    1  A    between atoms: N_3  and  C_17
REMARK    2  A    between atoms: C_7  and  C_12
REMARK    3  A    between atoms: C_11  and  C_15
REMARK    4  A    between atoms: C_17  and  C_19
REMARK    5  A    between atoms: C_17  and  C_29
REMARK                            x       y       z     vdW  Elec       q    Type
REMARK                         _______ _______ _______ _____ _____    ______ ____
ROOT
ATOM      1  S   UNL     1      34.475 -15.398 -22.535  0.00  0.00    -0.026 S 
ATOM      2  O   UNL     1      33.788 -16.393 -26.142  0.00  0.00    -0.209 OA
ATOM      3  N   UNL     1      33.784 -12.902 -23.077  0.00  0.00    -0.289 N 
ATOM      4  N   UNL     1      33.693 -14.483 -24.830  0.00  0.00    -0.310 NA
ATOM      5  C   UNL     1      33.921 -14.121 -23.605  0.00  0.00    +0.226 C 
ATOM      6  C   UNL     1      34.394 -16.512 -23.835  0.00  0.00    +0.131 C 
ATOM      7  C   UNL     1      34.697 -17.809 -23.777  0.00  0.00    +0.057 C 
ATOM      8  C   UNL     1      33.931 -15.825 -25.067  0.00  0.00    +0.213 C 
ATOM      9  H   UNL     1      33.996 -12.771 -22.124  0.00  0.00    +0.151 HD
ENDROOT
BRANCH   7  12
ATOM     10  O   UNL     1      34.355 -19.366 -21.922  0.00  0.00    -0.458 OA
ATOM     11  C   UNL     1      35.086 -19.821 -20.871  0.00  0.00    +0.123 C 
ATOM     12  C   UNL     1      35.146 -18.491 -22.597  0.00  0.00    +0.146 C 
ATOM     13  C   UNL     1      36.336 -19.246 -20.867  0.00  0.00    +0.036 C 
ATOM     14  C   UNL     1      36.375 -18.383 -21.989  0.00  0.00    +0.040 C 
BRANCH  11  15
ATOM     15  C   UNL     1      34.422 -20.791 -19.989  0.00  0.00    +0.065 C 
ATOM     16  C   UNL     1      32.897 -20.623 -19.953  0.00  0.00    +0.008 C 
ENDBRANCH  11  15
ENDBRANCH   7  12
BRANCH   3  17
ATOM     17  C   UNL     1      33.331 -11.755 -23.864  0.00  0.00    +0.184 C 
BRANCH  17  19
ATOM     18  F   UNL     1      31.429  -7.549 -20.658  0.00  0.00    -0.204 F 
ATOM     19  C   UNL     1      32.827 -10.638 -23.013  0.00  0.00    +0.010 C 
ATOM     20  C   UNL     1      32.943  -9.319 -23.451  0.00  0.00    +0.001 C 
ATOM     21  C   UNL     1      32.238 -10.914 -21.779  0.00  0.00    +0.001 C 
ATOM     22  C   UNL     1      32.471  -8.276 -22.656  0.00  0.00    +0.029 C 
ATOM     23  C   UNL     1      31.766  -9.870 -20.983  0.00  0.00    +0.029 C 
ATOM     24  C   UNL     1      31.882  -8.551 -21.422  0.00  0.00    +0.140 C 
ENDBRANCH  17  19
BRANCH  17  29
ATOM     25  N   UNL     1      35.325 -10.324 -24.386  0.00  0.00    -0.112 NA
ATOM     26  N   UNL     1      34.377 -11.391 -26.144  0.00  0.00    -0.089 NA
ATOM     27  N   UNL     1      35.929 -10.086 -25.559  0.00  0.00    -0.140 N 
ATOM     28  N   UNL     1      35.401 -10.698 -26.629  0.00  0.00    -0.022 NA
ATOM     29  C   UNL     1      34.359 -11.146 -24.803  0.00  0.00    +0.072 C 
ATOM     30  H   UNL     1      36.714  -9.496 -25.632  0.00  0.00    +0.197 HD
ENDBRANCH  17  29
ENDBRANCH   3  17
TORSDOF 5
ENDMDL
MODEL 2
REMARK VINA RESULT:      -9.9      9.192     13.854
REMARK  Name = 23586178
REMARK  5 active torsions:
REMARK  status: ('A' for Active; 'I' for Inactive)
REMARK    1  A    between atoms: N_3  and  C_17
REMARK    2  A    between atoms: C_7  and  C_12
REMARK    3  A    between atoms: C_11  and  C_15
REMARK    4  A    between atoms: C_17  and  C_19
REMARK    5  A    between atoms: C_17  and  C_29
REMARK                            x       y       z     vdW  Elec       q    Type
REMARK                         _______ _______ _______ _____ _____    ______ ____
ROOT
ATOM      1  S   UNL     1      36.138 -21.504 -18.200  0.00  0.00    -0.026 S 
ATOM      2  O   UNL     1      32.712 -23.116 -18.561  0.00  0.00    -0.209 OA
ATOM      3  N   UNL     1      36.737 -23.180 -16.242  0.00  0.00    -0.289 N 
ATOM      4  N   UNL     1      34.609 -23.370 -17.252  0.00  0.00    -0.310 NA
ATOM      5  C   UNL     1      35.783 -22.835 -17.112  0.00  0.00    +0.226 C 
ATOM      6  C   UNL     1      34.586 -21.677 -18.906  0.00  0.00    +0.131 C 
ATOM      7  C   UNL     1      34.088 -20.939 -19.898  0.00  0.00    +0.057 C 
ATOM      8  C   UNL     1      33.847 -22.785 -18.247  0.00  0.00    +0.213 C 
ATOM      9  H   UNL     1      37.585 -22.681 -16.247  0.00  0.00    +0.151 HD
ENDROOT
BRANCH   7  12
ATOM     10  O   UNL     1      34.178 -18.688 -20.851  0.00  0.00    -0.458 OA
ATOM     11  C   UNL     1      35.117 -17.909 -21.449  0.00  0.00    +0.123 C 
ATOM     12  C   UNL     1      34.786 -19.865 -20.547  0.00  0.00    +0.146 C 
ATOM     13  C   UNL     1      36.318 -18.575 -21.529  0.00  0.00    +0.036 C 
ATOM     14  C   UNL     1      36.103 -19.846 -20.943  0.00  0.00    +0.040 C 
BRANCH  11  15
ATOM     15  C   UNL     1      34.679 -16.571 -21.871  0.00  0.00    +0.065 C 
ATOM     16  C   UNL     1      34.495 -15.602 -20.695  0.00  0.00    +0.008 C 
ENDBRANCH  11  15
ENDBRANCH   7  12
BRANCH   3  17
ATOM     17  C   UNL     1      36.563 -24.271 -15.283  0.00  0.00    +0.184 C 
BRANCH  17  19
ATOM     18  F   UNL     1      41.442 -26.612 -13.766  0.00  0.00    -0.204 F 
ATOM     19  C   UNL     1      37.857 -24.891 -14.879  0.00  0.00    +0.010 C 
ATOM     20  C   UNL     1      37.878 -25.899 -13.914  0.00  0.00    +0.001 C 
ATOM     21  C   UNL     1      39.048 -24.466 -15.469  0.00  0.00    +0.001 C 
ATOM     22  C   UNL     1      39.089 -26.480 -13.539  0.00  0.00    +0.029 C 
ATOM     23  C   UNL     1      40.259 -25.047 -15.092  0.00  0.00    +0.029 C 
ATOM     24  C   UNL     1      40.280 -26.054 -14.127  0.00  0.00    +0.140 C 
ENDBRANCH  17  19
BRANCH  17  29
ATOM     25  N   UNL     1      36.397 -23.175 -13.031  0.00  0.00    -0.112 NA
ATOM     26  N   UNL     1      34.567 -24.317 -13.720  0.00  0.00    -0.089 NA
ATOM     27  N   UNL     1      35.382 -23.158 -12.156  0.00  0.00    -0.140 N 
ATOM     28  N   UNL     1      34.276 -23.822 -12.523  0.00  0.00    -0.022 NA
ATOM     29  C   UNL     1      35.840 -23.914 -13.994  0.00  0.00    +0.072 C 
ATOM     30  H   UNL     1      35.444 -22.686 -11.294  0.00  0.00    +0.197 HD
ENDBRANCH  17  29
ENDBRANCH   3  17
TORSDOF 5
ENDMDL
MODEL 3
REMARK VINA RESULT:      -9.8      4.062      8.775
REMARK  Name = 23586178
REMARK  5 active torsions:
REMARK  status: ('A' for Active; 'I' for Inactive)
REMARK    1  A    between atoms: N_3  and  C_17
REMARK    2  A    between atoms: C_7  and  C_12
REMARK    3  A    between atoms: C_11  and  C_15
REMARK    4  A    between atoms: C_17  and  C_19
REMARK    5  A    between atoms: C_17  and  C_29
REMARK                            x       y       z     vdW  Elec       q    Type
REMARK                         _______ _______ _______ _____ _____    ______ ____
ROOT
ATOM      1  S   UNL     1      33.481 -14.104 -21.233  0.00  0.00    -0.026 S 
ATOM      2  O   UNL     1      32.751 -14.165 -24.966  0.00  0.00    -0.209 OA
ATOM      3  N   UNL     1      34.838 -16.365 -21.447  0.00  0.00    -0.289 N 
ATOM      4  N   UNL     1      33.875 -15.461 -23.406  0.00  0.00    -0.310 NA
ATOM      5  C   UNL     1      34.137 -15.460 -22.135  0.00  0.00    +0.226 C 
ATOM      6  C   UNL     1      32.800 -13.482 -22.678  0.00  0.00    +0.131 C 
ATOM      7  C   UNL     1      32.084 -12.363 -22.790  0.00  0.00    +0.057 C 
ATOM      8  C   UNL     1      33.120 -14.378 -23.819  0.00  0.00    +0.213 C 
ATOM      9  H   UNL     1      34.956 -16.237 -20.478  0.00  0.00    +0.151 HD
ENDROOT
BRANCH   7  12
ATOM     10  O   UNL     1      32.389 -10.291 -21.526  0.00  0.00    -0.458 OA
ATOM     11  C   UNL     1      31.849  -9.728 -20.415  0.00  0.00    +0.123 C 
ATOM     12  C   UNL     1      31.764 -11.486 -21.701  0.00  0.00    +0.146 C 
ATOM     13  C   UNL     1      30.885 -10.548 -19.877  0.00  0.00    +0.036 C 
ATOM     14  C   UNL     1      30.829 -11.690 -20.713  0.00  0.00    +0.040 C 
BRANCH  11  15
ATOM     15  C   UNL     1      32.382  -8.413 -20.028  0.00  0.00    +0.065 C 
ATOM     16  C   UNL     1      31.977  -7.294 -20.997  0.00  0.00    +0.008 C 
ENDBRANCH  11  15
ENDBRANCH   7  12
BRANCH   3  17
ATOM     17  C   UNL     1      35.434 -17.540 -22.083  0.00  0.00    +0.184 C 
BRANCH  17  19
ATOM     18  F   UNL     1      34.718 -22.225 -19.061  0.00  0.00    -0.204 F 
ATOM     19  C   UNL     1      35.244 -18.784 -21.282  0.00  0.00    +0.010 C 
ATOM     20  C   UNL     1      36.354 -19.499 -20.828  0.00  0.00    +0.001 C 
ATOM     21  C   UNL     1      33.957 -19.232 -20.984  0.00  0.00    +0.001 C 
ATOM     22  C   UNL     1      36.176 -20.660 -20.078  0.00  0.00    +0.029 C 
ATOM     23  C   UNL     1      33.779 -20.394 -20.234  0.00  0.00    +0.029 C 
ATOM     24  C   UNL     1      34.889 -21.109 -19.781  0.00  0.00    +0.140 C 
ENDBRANCH  17  19
BRANCH  17  29
ATOM     25  N   UNL     1      34.106 -18.862 -23.752  0.00  0.00    -0.112 NA
ATOM     26  N   UNL     1      35.321 -17.141 -24.584  0.00  0.00    -0.089 NA
ATOM     27  N   UNL     1      33.999 -18.709 -25.080  0.00  0.00    -0.140 N 
ATOM     28  N   UNL     1      34.702 -17.701 -25.616  0.00  0.00    -0.022 NA
ATOM     29  C   UNL     1      34.945 -17.857 -23.486  0.00  0.00    +0.072 C 
ATOM     30  H   UNL     1      33.437 -19.302 -25.629  0.00  0.00    +0.197 HD
ENDBRANCH  17  29
ENDBRANCH   3  17
TORSDOF 5
ENDMDL
MODEL 4
REMARK VINA RESULT:      -9.7      3.891      9.025
REMARK  Name = 23586178
REMARK  5 active torsions:
REMARK  status: ('A' for Active; 'I' for Inactive)
REMARK    1  A    between atoms: N_3  and  C_17
REMARK    2  A    between atoms: C_7  and  C_12
REMARK    3  A    between atoms: C_11  and  C_15
REMARK    4  A    between atoms: C_17  and  C_19
REMARK    5  A    between atoms: C_17  and  C_29
REMARK                            x       y       z     vdW  Elec       q    Type
REMARK                         _______ _______ _______ _____ _____    ______ ____
ROOT
ATOM      1  S   UNL     1      33.035 -10.533 -22.810  0.00  0.00    -0.026 S 
ATOM      2  O   UNL     1      35.498  -9.471 -25.508  0.00  0.00    -0.209 OA
ATOM      3  N   UNL     1      33.491 -13.077 -23.375  0.00  0.00    -0.289 N 
ATOM      4  N   UNL     1      34.653 -11.440 -24.621  0.00  0.00    -0.310 NA
ATOM      5  C   UNL     1      33.818 -11.825 -23.705  0.00  0.00    +0.226 C 
ATOM      6  C   UNL     1      33.899  -9.378 -23.736  0.00  0.00    +0.131 C 
ATOM      7  C   UNL     1      33.817  -8.053 -23.613  0.00  0.00    +0.057 C 
ATOM      8  C   UNL     1      34.774 -10.065 -24.720  0.00  0.00    +0.213 C 
ATOM      9  H   UNL     1      32.836 -13.223 -22.656  0.00  0.00    +0.151 HD
ENDROOT
BRANCH   7  12
ATOM     10  O   UNL     1      32.126  -6.381 -23.043  0.00  0.00    -0.458 OA
ATOM     11  C   UNL     1      31.496  -5.963 -21.914  0.00  0.00    +0.123 C 
ATOM     12  C   UNL     1      32.978  -7.371 -22.669  0.00  0.00    +0.146 C 
ATOM     13  C   UNL     1      31.936  -6.676 -20.823  0.00  0.00    +0.036 C 
ATOM     14  C   UNL     1      32.899  -7.591 -21.313  0.00  0.00    +0.040 C 
BRANCH  11  15
ATOM     15  C   UNL     1      30.515  -4.881 -22.079  0.00  0.00    +0.065 C 
ATOM     16  C   UNL     1      31.007  -3.763 -23.010  0.00  0.00    +0.008 C 
ENDBRANCH  11  15
ENDBRANCH   7  12
BRANCH   3  17
ATOM     17  C   UNL     1      34.073 -14.240 -24.047  0.00  0.00    +0.184 C 
BRANCH  17  19
ATOM     18  F   UNL     1      34.774 -18.612 -20.586  0.00  0.00    -0.204 F 
ATOM     19  C   UNL     1      34.260 -15.399 -23.128  0.00  0.00    +0.010 C 
ATOM     20  C   UNL     1      33.458 -15.526 -21.993  0.00  0.00    +0.001 C 
ATOM     21  C   UNL     1      35.234 -16.359 -23.405  0.00  0.00    +0.001 C 
ATOM     22  C   UNL     1      33.632 -16.611 -21.135  0.00  0.00    +0.029 C 
ATOM     23  C   UNL     1      35.408 -17.443 -22.546  0.00  0.00    +0.029 C 
ATOM     24  C   UNL     1      34.607 -17.570 -21.410  0.00  0.00    +0.140 C 
ENDBRANCH  17  19
BRANCH  17  29
ATOM     25  N   UNL     1      32.459 -14.013 -25.955  0.00  0.00    -0.112 NA
ATOM     26  N   UNL     1      33.419 -16.047 -25.700  0.00  0.00    -0.089 NA
ATOM     27  N   UNL     1      32.068 -14.919 -26.863  0.00  0.00    -0.140 N 
ATOM     28  N   UNL     1      32.612 -16.139 -26.750  0.00  0.00    -0.022 NA
ATOM     29  C   UNL     1      33.305 -14.766 -25.248  0.00  0.00    +0.072 C 
ATOM     30  H   UNL     1      31.419 -14.701 -27.571  0.00  0.00    +0.197 HD
ENDBRANCH  17  29
ENDBRANCH   3  17
TORSDOF 5
ENDMDL
MODEL 5
REMARK VINA RESULT:      -9.5      1.539      2.258
REMARK  Name = 23586178
REMARK  5 active torsions:
REMARK  status: ('A' for Active; 'I' for Inactive)
REMARK    1  A    between atoms: N_3  and  C_17
REMARK    2  A    between atoms: C_7  and  C_12
REMARK    3  A    between atoms: C_11  and  C_15
REMARK    4  A    between atoms: C_17  and  C_19
REMARK    5  A    between atoms: C_17  and  C_29
REMARK                            x       y       z     vdW  Elec       q    Type
REMARK                         _______ _______ _______ _____ _____    ______ ____
ROOT
ATOM      1  S   UNL     1      33.451 -16.514 -21.473  0.00  0.00    -0.026 S 
ATOM      2  O   UNL     1      34.792 -16.559 -25.033  0.00  0.00    -0.209 OA
ATOM      3  N   UNL     1      32.418 -14.112 -21.878  0.00  0.00    -0.289 N 
ATOM      4  N   UNL     1      33.582 -15.132 -23.663  0.00  0.00    -0.310 NA
ATOM      5  C   UNL     1      33.115 -15.096 -22.453  0.00  0.00    +0.226 C 
ATOM      6  C   UNL     1      34.286 -17.219 -22.794  0.00  0.00    +0.131 C 
ATOM      7  C   UNL     1      34.876 -18.413 -22.801  0.00  0.00    +0.057 C 
ATOM      8  C   UNL     1      34.265 -16.298 -23.960  0.00  0.00    +0.213 C 
ATOM      9  H   UNL     1      32.126 -14.220 -20.944  0.00  0.00    +0.151 HD
ENDROOT
BRANCH   7  12
ATOM     10  O   UNL     1      36.073 -19.723 -21.117  0.00  0.00    -0.458 OA
ATOM     11  C   UNL     1      35.739 -20.561 -20.102  0.00  0.00    +0.123 C 
ATOM     12  C   UNL     1      34.908 -19.316 -21.686  0.00  0.00    +0.146 C 
ATOM     13  C   UNL     1      34.373 -20.694 -20.015  0.00  0.00    +0.036 C 
ATOM     14  C   UNL     1      33.832 -19.884 -21.044  0.00  0.00    +0.040 C 
BRANCH  11  15
ATOM     15  C   UNL     1      36.856 -21.132 -19.336  0.00  0.00    +0.065 C 
ATOM     16  C   UNL     1      36.409 -21.781 -18.019  0.00  0.00    +0.008 C 
ENDBRANCH  11  15
ENDBRANCH   7  12
BRANCH   3  17
ATOM     17  C   UNL     1      32.075 -12.879 -22.588  0.00  0.00    +0.184 C 
BRANCH  17  19
ATOM     18  F   UNL     1      31.517  -8.481 -19.132  0.00  0.00    -0.204 F 
ATOM     19  C   UNL     1      31.925 -11.712 -21.671  0.00  0.00    +0.010 C 
ATOM     20  C   UNL     1      31.756 -11.918 -20.301  0.00  0.00    +0.001 C 
ATOM     21  C   UNL     1      31.957 -10.415 -22.183  0.00  0.00    +0.001 C 
ATOM     22  C   UNL     1      31.618 -10.826 -19.444  0.00  0.00    +0.029 C 
ATOM     23  C   UNL     1      31.819  -9.323 -21.325  0.00  0.00    +0.029 C 
ATOM     24  C   UNL     1      31.650  -9.529 -19.956  0.00  0.00    +0.140 C 
ENDBRANCH  17  19
BRANCH  17  29
ATOM     25  N   UNL     1      34.157 -11.753 -23.421  0.00  0.00    -0.112 NA
ATOM     26  N   UNL     1      32.856 -12.732 -24.995  0.00  0.00    -0.089 NA
ATOM     27  N   UNL     1      34.630 -11.637 -24.671  0.00  0.00    -0.140 N 
ATOM     28  N   UNL     1      33.891 -12.203 -25.636  0.00  0.00    -0.022 NA
ATOM     29  C   UNL     1      33.044 -12.446 -23.675  0.00  0.00    +0.072 C 
ATOM     30  H   UNL     1      35.470 -11.163 -24.868  0.00  0.00    +0.197 HD
ENDBRANCH  17  29
ENDBRANCH   3  17
TORSDOF 5
ENDMDL
MODEL 6
REMARK VINA RESULT:      -9.2      9.988     14.321
REMARK  Name = 23586178
REMARK  5 active torsions:
REMARK  status: ('A' for Active; 'I' for Inactive)
REMARK    1  A    between atoms: N_3  and  C_17
REMARK    2  A    between atoms: C_7  and  C_12
REMARK    3  A    between atoms: C_11  and  C_15
REMARK    4  A    between atoms: C_17  and  C_19
REMARK    5  A    between atoms: C_17  and  C_29
REMARK                            x       y       z     vdW  Elec       q    Type
REMARK                         _______ _______ _______ _____ _____    ______ ____
ROOT
ATOM      1  S   UNL     1      35.636 -22.007 -17.547  0.00  0.00    -0.026 S 
ATOM      2  O   UNL     1      32.399 -23.936 -17.024  0.00  0.00    -0.209 OA
ATOM      3  N   UNL     1      36.733 -23.264 -15.494  0.00  0.00    -0.289 N 
ATOM      4  N   UNL     1      34.503 -23.801 -16.058  0.00  0.00    -0.310 NA
ATOM      5  C   UNL     1      35.616 -23.155 -16.218  0.00  0.00    +0.226 C 
ATOM      6  C   UNL     1      34.017 -22.427 -17.923  0.00  0.00    +0.131 C 
ATOM      7  C   UNL     1      33.283 -21.916 -18.912  0.00  0.00    +0.057 C 
ATOM      8  C   UNL     1      33.526 -23.462 -16.977  0.00  0.00    +0.213 C 
ATOM      9  H   UNL     1      37.508 -22.706 -15.730  0.00  0.00    +0.151 HD
ENDROOT
BRANCH   7  12
ATOM     10  O   UNL     1      35.044 -20.546 -19.913  0.00  0.00    -0.458 OA
ATOM     11  C   UNL     1      35.121 -19.593 -20.878  0.00  0.00    +0.123 C 
ATOM     12  C   UNL     1      33.739 -20.917 -19.835  0.00  0.00    +0.146 C 
ATOM     13  C   UNL     1      33.880 -19.350 -21.417  0.00  0.00    +0.036 C 
ATOM     14  C   UNL     1      32.982 -20.210 -20.740  0.00  0.00    +0.040 C 
BRANCH  11  15
ATOM     15  C   UNL     1      36.457 -19.037 -21.138  0.00  0.00    +0.065 C 
ATOM     16  C   UNL     1      36.524 -18.218 -22.434  0.00  0.00    +0.008 C 
ENDBRANCH  11  15
ENDBRANCH   7  12
BRANCH   3  17
ATOM     17  C   UNL     1      36.843 -24.184 -14.361  0.00  0.00    +0.184 C 
BRANCH  17  19
ATOM     18  F   UNL     1      41.712 -26.991 -14.323  0.00  0.00    -0.204 F 
ATOM     19  C   UNL     1      38.135 -24.928 -14.350  0.00  0.00    +0.010 C 
ATOM     20  C   UNL     1      38.376 -25.895 -13.373  0.00  0.00    +0.001 C 
ATOM     21  C   UNL     1      39.103 -24.659 -15.318  0.00  0.00    +0.001 C 
ATOM     22  C   UNL     1      39.584 -26.591 -13.364  0.00  0.00    +0.029 C 
ATOM     23  C   UNL     1      40.311 -25.356 -15.309  0.00  0.00    +0.029 C 
ATOM     24  C   UNL     1      40.552 -26.322 -14.332  0.00  0.00    +0.140 C 
ENDBRANCH  17  19
BRANCH  17  29
ATOM     25  N   UNL     1      35.587 -23.672 -12.249  0.00  0.00    -0.112 NA
ATOM     26  N   UNL     1      37.688 -22.840 -12.385  0.00  0.00    -0.089 NA
ATOM     27  N   UNL     1      35.967 -22.973 -11.170  0.00  0.00    -0.140 N 
ATOM     28  N   UNL     1      37.206 -22.461 -11.207  0.00  0.00    -0.022 NA
ATOM     29  C   UNL     1      36.697 -23.561 -12.982  0.00  0.00    +0.072 C 
ATOM     30  H   UNL     1      35.372 -22.843 -10.397  0.00  0.00    +0.197 HD
ENDBRANCH  17  29
ENDBRANCH   3  17
TORSDOF 5
ENDMDL
MODEL 7
REMARK VINA RESULT:      -8.7      3.080      4.350
REMARK  Name = 23586178
REMARK  5 active torsions:
REMARK  status: ('A' for Active; 'I' for Inactive)
REMARK    1  A    between atoms: N_3  and  C_17
REMARK    2  A    between atoms: C_7  and  C_12
REMARK    3  A    between atoms: C_11  and  C_15
REMARK    4  A    between atoms: C_17  and  C_19
REMARK    5  A    between atoms: C_17  and  C_29
REMARK                            x       y       z     vdW  Elec       q    Type
REMARK                         _______ _______ _______ _____ _____    ______ ____
ROOT
ATOM      1  S   UNL     1      33.286 -16.745 -21.157  0.00  0.00    -0.026 S 
ATOM      2  O   UNL     1      36.307 -16.922 -23.463  0.00  0.00    -0.209 OA
ATOM      3  N   UNL     1      32.944 -14.196 -21.780  0.00  0.00    -0.289 N 
ATOM      4  N   UNL     1      34.742 -15.350 -22.787  0.00  0.00    -0.310 NA
ATOM      5  C   UNL     1      33.709 -15.266 -22.006  0.00  0.00    +0.226 C 
ATOM      6  C   UNL     1      34.602 -17.544 -21.911  0.00  0.00    +0.131 C 
ATOM      7  C   UNL     1      34.948 -18.820 -21.737  0.00  0.00    +0.057 C 
ATOM      8  C   UNL     1      35.325 -16.605 -22.806  0.00  0.00    +0.213 C 
ATOM      9  H   UNL     1      32.187 -14.277 -21.156  0.00  0.00    +0.151 HD
ENDROOT
BRANCH   7  12
ATOM     10  O   UNL     1      34.929 -20.634 -20.096  0.00  0.00    -0.458 OA
ATOM     11  C   UNL     1      33.985 -21.340 -19.422  0.00  0.00    +0.123 C 
ATOM     12  C   UNL     1      34.263 -19.742 -20.877  0.00  0.00    +0.146 C 
ATOM     13  C   UNL     1      32.724 -20.910 -19.762  0.00  0.00    +0.036 C 
ATOM     14  C   UNL     1      32.904 -19.871 -20.707  0.00  0.00    +0.040 C 
BRANCH  11  15
ATOM     15  C   UNL     1      34.481 -22.377 -18.505  0.00  0.00    +0.065 C 
ATOM     16  C   UNL     1      33.353 -23.128 -17.783  0.00  0.00    +0.008 C 
ENDBRANCH  11  15
ENDBRANCH   7  12
BRANCH   3  17
ATOM     17  C   UNL     1      33.193 -12.906 -22.425  0.00  0.00    +0.184 C 
BRANCH  17  19
ATOM     18  F   UNL     1      33.362 -13.288 -28.029  0.00  0.00    -0.204 F 
ATOM     19  C   UNL     1      33.238 -13.008 -23.912  0.00  0.00    +0.010 C 
ATOM     20  C   UNL     1      32.617 -14.077 -24.558  0.00  0.00    +0.001 C 
ATOM     21  C   UNL     1      33.901 -12.033 -24.658  0.00  0.00    +0.001 C 
ATOM     22  C   UNL     1      32.658 -14.172 -25.948  0.00  0.00    +0.029 C 
ATOM     23  C   UNL     1      33.943 -12.128 -26.049  0.00  0.00    +0.029 C 
ATOM     24  C   UNL     1      33.321 -13.197 -26.694  0.00  0.00    +0.140 C 
ENDBRANCH  17  19
BRANCH  17  29
ATOM     25  N   UNL     1      31.129 -11.989 -21.330  0.00  0.00    -0.112 NA
ATOM     26  N   UNL     1      32.329 -10.527 -22.576  0.00  0.00    -0.089 NA
ATOM     27  N   UNL     1      30.615 -10.751 -21.365  0.00  0.00    -0.140 N 
ATOM     28  N   UNL     1      31.294  -9.851 -22.092  0.00  0.00    -0.022 NA
ATOM     29  C   UNL     1      32.202 -11.800 -22.103  0.00  0.00    +0.072 C 
ATOM     30  H   UNL     1      29.787 -10.516 -20.887  0.00  0.00    +0.197 HD
ENDBRANCH  17  29
ENDBRANCH   3  17
TORSDOF 5
ENDMDL
MODEL 8
REMARK VINA RESULT:      -8.5      1.702      2.422
REMARK  Name = 23586178
REMARK  5 active torsions:
REMARK  status: ('A' for Active; 'I' for Inactive)
REMARK    1  A    between atoms: N_3  and  C_17
REMARK    2  A    between atoms: C_7  and  C_12
REMARK    3  A    between atoms: C_11  and  C_15
REMARK    4  A    between atoms: C_17  and  C_19
REMARK    5  A    between atoms: C_17  and  C_29
REMARK                            x       y       z     vdW  Elec       q    Type
REMARK                         _______ _______ _______ _____ _____    ______ ____
ROOT
ATOM      1  S   UNL     1      34.644 -16.093 -22.566  0.00  0.00    -0.026 S 
ATOM      2  O   UNL     1      33.828 -17.688 -25.922  0.00  0.00    -0.209 OA
ATOM      3  N   UNL     1      33.670 -13.783 -23.411  0.00  0.00    -0.289 N 
ATOM      4  N   UNL     1      33.626 -15.616 -24.902  0.00  0.00    -0.310 NA
ATOM      5  C   UNL     1      33.895 -15.051 -23.765  0.00  0.00    +0.226 C 
ATOM      6  C   UNL     1      34.592 -17.397 -23.678  0.00  0.00    +0.131 C 
ATOM      7  C   UNL     1      35.027 -18.637 -23.455  0.00  0.00    +0.057 C 
ATOM      8  C   UNL     1      33.982 -16.951 -24.957  0.00  0.00    +0.213 C 
ATOM      9  H   UNL     1      33.929 -13.489 -22.509  0.00  0.00    +0.151 HD
ENDROOT
BRANCH   7  12
ATOM     10  O   UNL     1      35.041 -20.042 -21.453  0.00  0.00    -0.458 OA
ATOM     11  C   UNL     1      35.857 -20.222 -20.382  0.00  0.00    +0.123 C 
ATOM     12  C   UNL     1      35.619 -19.086 -22.227  0.00  0.00    +0.146 C 
ATOM     13  C   UNL     1      36.951 -19.392 -20.464  0.00  0.00    +0.036 C 
ATOM     14  C   UNL     1      36.796 -18.654 -21.662  0.00  0.00    +0.040 C 
BRANCH  11  15
ATOM     15  C   UNL     1      35.425 -21.223 -19.396  0.00  0.00    +0.065 C 
ATOM     16  C   UNL     1      33.931 -21.561 -19.501  0.00  0.00    +0.008 C 
ENDBRANCH  11  15
ENDBRANCH   7  12
BRANCH   3  17
ATOM     17  C   UNL     1      33.053 -12.816 -24.320  0.00  0.00    +0.184 C 
BRANCH  17  19
ATOM     18  F   UNL     1      34.934  -7.583 -23.500  0.00  0.00    -0.204 F 
ATOM     19  C   UNL     1      33.552 -11.427 -24.103  0.00  0.00    +0.010 C 
ATOM     20  C   UNL     1      32.861 -10.562 -23.253  0.00  0.00    +0.001 C 
ATOM     21  C   UNL     1      34.709 -10.993 -24.749  0.00  0.00    +0.001 C 
ATOM     22  C   UNL     1      33.329  -9.264 -23.049  0.00  0.00    +0.029 C 
ATOM     23  C   UNL     1      35.176  -9.694 -24.546  0.00  0.00    +0.029 C 
ATOM     24  C   UNL     1      34.486  -8.830 -23.695  0.00  0.00    +0.140 C 
ENDBRANCH  17  19
BRANCH  17  29
ATOM     25  N   UNL     1      32.308 -13.773 -26.517  0.00  0.00    -0.112 NA
ATOM     26  N   UNL     1      34.298 -12.692 -26.525  0.00  0.00    -0.089 NA
ATOM     27  N   UNL     1      32.910 -13.746 -27.714  0.00  0.00    -0.140 N 
ATOM     28  N   UNL     1      34.092 -13.116 -27.767  0.00  0.00    -0.022 NA
ATOM     29  C   UNL     1      33.215 -13.101 -25.804  0.00  0.00    +0.072 C 
ATOM     30  H   UNL     1      32.508 -14.166 -28.510  0.00  0.00    +0.197 HD
ENDBRANCH  17  29
ENDBRANCH   3  17
TORSDOF 5
ENDMDL
MODEL 9
REMARK VINA RESULT:      -8.5      7.791     12.148
REMARK  Name = 23586178
REMARK  5 active torsions:
REMARK  status: ('A' for Active; 'I' for Inactive)
REMARK    1  A    between atoms: N_3  and  C_17
REMARK    2  A    between atoms: C_7  and  C_12
REMARK    3  A    between atoms: C_11  and  C_15
REMARK    4  A    between atoms: C_17  and  C_19
REMARK    5  A    between atoms: C_17  and  C_29
REMARK                            x       y       z     vdW  Elec       q    Type
REMARK                         _______ _______ _______ _____ _____    ______ ____
ROOT
ATOM      1  S   UNL     1      33.302 -20.545 -19.641  0.00  0.00    -0.026 S 
ATOM      2  O   UNL     1      36.606 -22.394 -19.275  0.00  0.00    -0.209 OA
ATOM      3  N   UNL     1      32.121 -22.317 -18.070  0.00  0.00    -0.289 N 
ATOM      4  N   UNL     1      34.423 -22.596 -18.520  0.00  0.00    -0.310 NA
ATOM      5  C   UNL     1      33.286 -21.982 -18.630  0.00  0.00    +0.226 C 
ATOM      6  C   UNL     1      34.973 -20.784 -19.940  0.00  0.00    +0.131 C 
ATOM      7  C   UNL     1      35.752 -20.013 -20.698  0.00  0.00    +0.057 C 
ATOM      8  C   UNL     1      35.450 -21.997 -19.226  0.00  0.00    +0.213 C 
ATOM      9  H   UNL     1      31.332 -21.755 -18.243  0.00  0.00    +0.151 HD
ENDROOT
BRANCH   7  12
ATOM     10  O   UNL     1      35.152 -17.643 -20.769  0.00  0.00    -0.458 OA
ATOM     11  C   UNL     1      34.729 -16.763 -21.713  0.00  0.00    +0.123 C 
ATOM     12  C   UNL     1      35.310 -18.839 -21.395  0.00  0.00    +0.146 C 
ATOM     13  C   UNL     1      34.614 -17.383 -22.935  0.00  0.00    +0.036 C 
ATOM     14  C   UNL     1      34.992 -18.732 -22.729  0.00  0.00    +0.040 C 
BRANCH  11  15
ATOM     15  C   UNL     1      34.488 -15.386 -21.257  0.00  0.00    +0.065 C 
ATOM     16  C   UNL     1      33.048 -15.156 -20.779  0.00  0.00    +0.008 C 
ENDBRANCH  11  15
ENDBRANCH   7  12
BRANCH   3  17
ATOM     17  C   UNL     1      31.976 -23.492 -17.209  0.00  0.00    +0.184 C 
BRANCH  17  19
ATOM     18  F   UNL     1      35.511 -23.419 -12.840  0.00  0.00    -0.204 F 
ATOM     19  C   UNL     1      32.915 -23.471 -16.050  0.00  0.00    +0.010 C 
ATOM     20  C   UNL     1      32.483 -22.996 -14.811  0.00  0.00    +0.001 C 
ATOM     21  C   UNL     1      34.223 -23.931 -16.204  0.00  0.00    +0.001 C 
ATOM     22  C   UNL     1      33.360 -22.978 -13.727  0.00  0.00    +0.029 C 
ATOM     23  C   UNL     1      35.100 -23.912 -15.120  0.00  0.00    +0.029 C 
ATOM     24  C   UNL     1      34.669 -23.437 -13.881  0.00  0.00    +0.140 C 
ENDBRANCH  17  19
BRANCH  17  29
ATOM     25  N   UNL     1      30.264 -24.830 -15.955  0.00  0.00    -0.112 NA
ATOM     26  N   UNL     1      29.571 -22.831 -16.761  0.00  0.00    -0.089 NA
ATOM     27  N   UNL     1      28.983 -24.546 -15.681  0.00  0.00    -0.140 N 
ATOM     28  N   UNL     1      28.529 -23.370 -16.139  0.00  0.00    -0.022 NA
ATOM     29  C   UNL     1      30.590 -23.727 -16.633  0.00  0.00    +0.072 C 
ATOM     30  H   UNL     1      28.408 -25.164 -15.173  0.00  0.00    +0.197 HD
ENDBRANCH  17  29
ENDBRANCH   3  17
TORSDOF 5
ENDMDL
