MODEL 1
REMARK VINA RESULT:      -9.2      0.000      0.000
REMARK  Name = 25015
REMARK  1 active torsions:
REMARK  status: ('A' for Active; 'I' for Inactive)
REMARK    1  A    between atoms: C_5  and  O_20
REMARK                            x       y       z     vdW  Elec       q    Type
REMARK                         _______ _______ _______ _____ _____    ______ ____
ROOT
ATOM      1  O   UNL     1      34.926 -23.112 -19.531  0.00  0.00    -0.291 OA
ATOM      2  C   UNL     1      33.981 -15.950 -22.382  0.00  0.00    +0.010 C 
ATOM      3  C   UNL     1      32.944 -15.137 -21.575  0.00  0.00    +0.044 C 
ATOM      4  C   UNL     1      34.641 -17.039 -21.531  0.00  0.00    +0.023 C 
ATOM      5  C   UNL     1      32.507 -14.152 -22.678  0.00  0.00    +0.114 C 
ATOM      6  C   UNL     1      34.837 -14.877 -23.045  0.00  0.00    +0.003 C 
ATOM      7  C   UNL     1      33.827 -13.764 -23.379  0.00  0.00    +0.030 C 
ATOM      8  C   UNL     1      33.561 -17.975 -20.951  0.00  0.00    -0.027 C 
ATOM      9  C   UNL     1      35.657 -17.831 -22.359  0.00  0.00    +0.009 C 
ATOM     10  C   UNL     1      31.908 -16.111 -21.086  0.00  0.00    -0.025 C 
ATOM     11  C   UNL     1      33.503 -14.395 -20.339  0.00  0.00    +0.007 C 
ATOM     12  C   UNL     1      32.216 -17.392 -20.807  0.00  0.00    -0.009 C 
ATOM     13  C   UNL     1      33.851 -19.273 -20.664  0.00  0.00    -0.030 C 
ATOM     14  C   UNL     1      36.253 -18.946 -21.512  0.00  0.00    +0.026 C 
ATOM     15  C   UNL     1      35.204 -19.822 -20.870  0.00  0.00    -0.024 C 
ATOM     16  C   UNL     1      32.825 -20.285 -20.183  0.00  0.00    +0.034 C 
ATOM     17  C   UNL     1      35.557 -21.069 -20.511  0.00  0.00    +0.033 C 
ATOM     18  C   UNL     1      33.387 -21.305 -19.201  0.00  0.00    +0.074 C 
ATOM     19  C   UNL     1      34.631 -21.941 -19.755  0.00  0.00    +0.173 C 
ENDROOT
BRANCH   5  20
ATOM     20  O   UNL     1      31.814 -13.016 -22.198  0.00  0.00    -0.384 OA
ATOM     21  H   UNL     1      32.452 -12.363 -21.870  0.00  0.00    +0.210 HD
ENDBRANCH   5  20
TORSDOF 1
ENDMDL
MODEL 2
REMARK VINA RESULT:      -9.1      4.234      9.049
REMARK  Name = 25015
REMARK  1 active torsions:
REMARK  status: ('A' for Active; 'I' for Inactive)
REMARK    1  A    between atoms: C_5  and  O_20
REMARK                            x       y       z     vdW  Elec       q    Type
REMARK                         _______ _______ _______ _____ _____    ______ ____
ROOT
ATOM      1  O   UNL     1      33.714 -19.673 -21.930  0.00  0.00    -0.291 OA
ATOM      2  C   UNL     1      35.844 -24.019 -15.857  0.00  0.00    +0.010 C 
ATOM      3  C   UNL     1      37.062 -23.423 -15.116  0.00  0.00    +0.044 C 
ATOM      4  C   UNL     1      35.038 -22.943 -16.591  0.00  0.00    +0.023 C 
ATOM      5  C   UNL     1      37.614 -24.719 -14.491  0.00  0.00    +0.114 C 
ATOM      6  C   UNL     1      35.172 -24.885 -14.798  0.00  0.00    +0.003 C 
ATOM      7  C   UNL     1      36.355 -25.467 -14.003  0.00  0.00    +0.030 C 
ATOM      8  C   UNL     1      35.951 -22.191 -17.580  0.00  0.00    -0.027 C 
ATOM      9  C   UNL     1      33.843 -23.564 -17.320  0.00  0.00    +0.009 C 
ATOM     10  C   UNL     1      37.919 -22.750 -16.153  0.00  0.00    -0.025 C 
ATOM     11  C   UNL     1      36.727 -22.368 -14.037  0.00  0.00    +0.007 C 
ATOM     12  C   UNL     1      37.388 -22.196 -17.260  0.00  0.00    -0.009 C 
ATOM     13  C   UNL     1      35.436 -21.625 -18.705  0.00  0.00    -0.030 C 
ATOM     14  C   UNL     1      33.095 -22.488 -18.092  0.00  0.00    +0.026 C 
ATOM     15  C   UNL     1      33.993 -21.688 -19.005  0.00  0.00    -0.024 C 
ATOM     16  C   UNL     1      36.275 -20.952 -19.778  0.00  0.00    +0.034 C 
ATOM     17  C   UNL     1      33.429 -21.062 -20.054  0.00  0.00    +0.033 C 
ATOM     18  C   UNL     1      35.586 -19.764 -20.437  0.00  0.00    +0.074 C 
ATOM     19  C   UNL     1      34.214 -20.149 -20.915  0.00  0.00    +0.173 C 
ENDROOT
BRANCH   5  20
ATOM     20  O   UNL     1      38.538 -24.507 -13.440  0.00  0.00    -0.384 OA
ATOM     21  H   UNL     1      39.243 -23.914 -13.745  0.00  0.00    +0.210 HD
ENDBRANCH   5  20
TORSDOF 1
ENDMDL
MODEL 3
REMARK VINA RESULT:      -9.0      7.502     10.479
REMARK  Name = 25015
REMARK  1 active torsions:
REMARK  status: ('A' for Active; 'I' for Inactive)
REMARK    1  A    between atoms: C_5  and  O_20
REMARK                            x       y       z     vdW  Elec       q    Type
REMARK                         _______ _______ _______ _____ _____    ______ ____
ROOT
ATOM      1  O   UNL     1      29.098 -22.349 -16.892  0.00  0.00    -0.291 OA
ATOM      2  C   UNL     1      36.357 -23.828 -14.560  0.00  0.00    +0.010 C 
ATOM      3  C   UNL     1      36.398 -24.852 -13.404  0.00  0.00    +0.044 C 
ATOM      4  C   UNL     1      35.108 -23.995 -15.429  0.00  0.00    +0.023 C 
ATOM      5  C   UNL     1      37.739 -24.436 -12.769  0.00  0.00    +0.114 C 
ATOM      6  C   UNL     1      37.743 -23.942 -15.186  0.00  0.00    +0.003 C 
ATOM      7  C   UNL     1      38.666 -24.186 -13.978  0.00  0.00    +0.030 C 
ATOM      8  C   UNL     1      33.843 -23.867 -14.557  0.00  0.00    -0.027 C 
ATOM      9  C   UNL     1      35.093 -22.964 -16.561  0.00  0.00    +0.009 C 
ATOM     10  C   UNL     1      35.159 -24.631 -12.580  0.00  0.00    -0.025 C 
ATOM     11  C   UNL     1      36.408 -26.336 -13.837  0.00  0.00    +0.007 C 
ATOM     12  C   UNL     1      34.012 -24.187 -13.130  0.00  0.00    -0.009 C 
ATOM     13  C   UNL     1      32.675 -23.420 -15.091  0.00  0.00    -0.030 C 
ATOM     14  C   UNL     1      33.814 -23.108 -17.372  0.00  0.00    +0.026 C 
ATOM     15  C   UNL     1      32.568 -23.067 -16.519  0.00  0.00    -0.024 C 
ATOM     16  C   UNL     1      31.411 -23.172 -14.284  0.00  0.00    +0.034 C 
ATOM     17  C   UNL     1      31.412 -22.713 -17.108  0.00  0.00    +0.033 C 
ATOM     18  C   UNL     1      30.129 -23.478 -15.047  0.00  0.00    +0.074 C 
ATOM     19  C   UNL     1      30.127 -22.779 -16.378  0.00  0.00    +0.173 C 
ENDROOT
BRANCH   5  20
ATOM     20  O   UNL     1      38.282 -25.398 -11.883  0.00  0.00    -0.384 OA
ATOM     21  H   UNL     1      39.128 -25.720 -12.234  0.00  0.00    +0.210 HD
ENDBRANCH   5  20
TORSDOF 1
ENDMDL
MODEL 4
REMARK VINA RESULT:      -9.0      2.716      4.174
REMARK  Name = 25015
REMARK  1 active torsions:
REMARK  status: ('A' for Active; 'I' for Inactive)
REMARK    1  A    between atoms: C_5  and  O_20
REMARK                            x       y       z     vdW  Elec       q    Type
REMARK                         _______ _______ _______ _____ _____    ______ ____
ROOT
ATOM      1  O   UNL     1      34.328 -24.457 -15.226  0.00  0.00    -0.291 OA
ATOM      2  C   UNL     1      35.609 -19.828 -21.329  0.00  0.00    +0.010 C 
ATOM      3  C   UNL     1      34.357 -19.005 -21.706  0.00  0.00    +0.044 C 
ATOM      4  C   UNL     1      35.612 -20.221 -19.849  0.00  0.00    +0.023 C 
ATOM      5  C   UNL     1      34.673 -18.765 -23.195  0.00  0.00    +0.114 C 
ATOM      6  C   UNL     1      36.760 -19.009 -21.902  0.00  0.00    +0.003 C 
ATOM      7  C   UNL     1      36.183 -18.442 -23.212  0.00  0.00    +0.030 C 
ATOM      8  C   UNL     1      34.331 -21.014 -19.516  0.00  0.00    -0.027 C 
ATOM      9  C   UNL     1      36.860 -21.041 -19.508  0.00  0.00    +0.009 C 
ATOM     10  C   UNL     1      33.161 -19.861 -21.394  0.00  0.00    -0.025 C 
ATOM     11  C   UNL     1      34.187 -17.674 -20.938  0.00  0.00    +0.007 C 
ATOM     12  C   UNL     1      33.175 -20.762 -20.394  0.00  0.00    -0.009 C 
ATOM     13  C   UNL     1      34.324 -21.929 -18.510  0.00  0.00    -0.030 C 
ATOM     14  C   UNL     1      36.810 -21.473 -18.051  0.00  0.00    +0.026 C 
ATOM     15  C   UNL     1      35.524 -22.178 -17.690  0.00  0.00    -0.024 C 
ATOM     16  C   UNL     1      33.137 -22.819 -18.181  0.00  0.00    +0.034 C 
ATOM     17  C   UNL     1      35.533 -23.002 -16.627  0.00  0.00    +0.033 C 
ATOM     18  C   UNL     1      32.990 -23.116 -16.694  0.00  0.00    +0.074 C 
ATOM     19  C   UNL     1      34.287 -23.624 -16.127  0.00  0.00    +0.173 C 
ENDROOT
BRANCH   5  20
ATOM     20  O   UNL     1      33.909 -17.732 -23.790  0.00  0.00    -0.384 OA
ATOM     21  H   UNL     1      32.969 -17.875 -23.598  0.00  0.00    +0.210 HD
ENDBRANCH   5  20
TORSDOF 1
ENDMDL
MODEL 5
REMARK VINA RESULT:      -8.9      5.698      9.989
REMARK  Name = 25015
REMARK  1 active torsions:
REMARK  status: ('A' for Active; 'I' for Inactive)
REMARK    1  A    between atoms: C_5  and  O_20
REMARK                            x       y       z     vdW  Elec       q    Type
REMARK                         _______ _______ _______ _____ _____    ______ ____
ROOT
ATOM      1  O   UNL     1      34.621 -21.334 -20.753  0.00  0.00    -0.291 OA
ATOM      2  C   UNL     1      36.352 -23.181 -13.411  0.00  0.00    +0.010 C 
ATOM      3  C   UNL     1      35.612 -24.454 -12.943  0.00  0.00    +0.044 C 
ATOM      4  C   UNL     1      36.549 -23.159 -14.929  0.00  0.00    +0.023 C 
ATOM      5  C   UNL     1      35.604 -24.176 -11.427  0.00  0.00    +0.114 C 
ATOM      6  C   UNL     1      37.561 -23.111 -12.485  0.00  0.00    +0.003 C 
ATOM      7  C   UNL     1      37.015 -23.621 -11.139  0.00  0.00    +0.030 C 
ATOM      8  C   UNL     1      35.183 -23.273 -15.635  0.00  0.00    -0.027 C 
ATOM      9  C   UNL     1      37.279 -21.884 -15.363  0.00  0.00    +0.009 C 
ATOM     10  C   UNL     1      34.279 -24.466 -13.639  0.00  0.00    -0.025 C 
ATOM     11  C   UNL     1      36.319 -25.788 -13.274  0.00  0.00    +0.007 C 
ATOM     12  C   UNL     1      34.113 -23.925 -14.861  0.00  0.00    -0.009 C 
ATOM     13  C   UNL     1      34.993 -22.734 -16.869  0.00  0.00    -0.030 C 
ATOM     14  C   UNL     1      37.406 -21.854 -16.879  0.00  0.00    +0.026 C 
ATOM     15  C   UNL     1      36.085 -22.048 -17.584  0.00  0.00    -0.024 C 
ATOM     16  C   UNL     1      33.656 -22.716 -17.592  0.00  0.00    +0.034 C 
ATOM     17  C   UNL     1      35.969 -21.586 -18.842  0.00  0.00    +0.033 C 
ATOM     18  C   UNL     1      33.777 -22.855 -19.104  0.00  0.00    +0.074 C 
ATOM     19  C   UNL     1      34.758 -21.854 -19.649  0.00  0.00    +0.173 C 
ENDROOT
BRANCH   5  20
ATOM     20  O   UNL     1      35.315 -25.312 -10.633  0.00  0.00    -0.384 OA
ATOM     21  H   UNL     1      36.145 -25.727 -10.348  0.00  0.00    +0.210 HD
ENDBRANCH   5  20
TORSDOF 1
ENDMDL
MODEL 6
REMARK VINA RESULT:      -8.8      4.916      7.946
REMARK  Name = 25015
REMARK  1 active torsions:
REMARK  status: ('A' for Active; 'I' for Inactive)
REMARK    1  A    between atoms: C_5  and  O_20
REMARK                            x       y       z     vdW  Elec       q    Type
REMARK                         _______ _______ _______ _____ _____    ______ ____
ROOT
ATOM      1  O   UNL     1      32.862 -16.043 -21.305  0.00  0.00    -0.291 OA
ATOM      2  C   UNL     1      32.283  -8.312 -21.770  0.00  0.00    +0.010 C 
ATOM      3  C   UNL     1      32.075  -7.833 -23.224  0.00  0.00    +0.044 C 
ATOM      4  C   UNL     1      31.773  -9.741 -21.561  0.00  0.00    +0.023 C 
ATOM      5  C   UNL     1      32.651  -6.409 -23.086  0.00  0.00    +0.114 C 
ATOM      6  C   UNL     1      31.716  -7.171 -20.934  0.00  0.00    +0.003 C 
ATOM      7  C   UNL     1      32.102  -5.912 -21.731  0.00  0.00    +0.030 C 
ATOM      8  C   UNL     1      32.478 -10.697 -22.544  0.00  0.00    -0.027 C 
ATOM      9  C   UNL     1      31.999 -10.190 -20.114  0.00  0.00    +0.009 C 
ATOM     10  C   UNL     1      32.827  -8.786 -24.111  0.00  0.00    -0.025 C 
ATOM     11  C   UNL     1      30.607  -7.809 -23.708  0.00  0.00    +0.007 C 
ATOM     12  C   UNL     1      32.992 -10.081 -23.780  0.00  0.00    -0.009 C 
ATOM     13  C   UNL     1      32.656 -12.008 -22.230  0.00  0.00    -0.030 C 
ATOM     14  C   UNL     1      31.544 -11.632 -19.945  0.00  0.00    +0.026 C 
ATOM     15  C   UNL     1      32.164 -12.566 -20.957  0.00  0.00    -0.024 C 
ATOM     16  C   UNL     1      33.424 -12.993 -23.097  0.00  0.00    +0.034 C 
ATOM     17  C   UNL     1      32.234 -13.874 -20.648  0.00  0.00    +0.033 C 
ATOM     18  C   UNL     1      32.862 -14.408 -23.057  0.00  0.00    +0.074 C 
ATOM     19  C   UNL     1      32.700 -14.872 -21.636  0.00  0.00    +0.173 C 
ENDROOT
BRANCH   5  20
ATOM     20  O   UNL     1      32.299  -5.538 -24.146  0.00  0.00    -0.384 OA
ATOM     21  H   UNL     1      32.897  -4.774 -24.147  0.00  0.00    +0.210 HD
ENDBRANCH   5  20
TORSDOF 1
ENDMDL
MODEL 7
REMARK VINA RESULT:      -8.7      7.940      9.645
REMARK  Name = 25015
REMARK  1 active torsions:
REMARK  status: ('A' for Active; 'I' for Inactive)
REMARK    1  A    between atoms: C_5  and  O_20
REMARK                            x       y       z     vdW  Elec       q    Type
REMARK                         _______ _______ _______ _____ _____    ______ ____
ROOT
ATOM      1  O   UNL     1      39.712 -24.660 -14.345  0.00  0.00    -0.291 OA
ATOM      2  C   UNL     1      32.178 -23.644 -15.934  0.00  0.00    +0.010 C 
ATOM      3  C   UNL     1      31.288 -23.873 -14.693  0.00  0.00    +0.044 C 
ATOM      4  C   UNL     1      33.596 -23.210 -15.549  0.00  0.00    +0.023 C 
ATOM      5  C   UNL     1      29.979 -24.259 -15.410  0.00  0.00    +0.114 C 
ATOM      6  C   UNL     1      31.324 -22.751 -16.826  0.00  0.00    +0.003 C 
ATOM      7  C   UNL     1      29.893 -23.269 -16.592  0.00  0.00    +0.030 C 
ATOM      8  C   UNL     1      34.232 -24.266 -14.622  0.00  0.00    -0.027 C 
ATOM      9  C   UNL     1      34.455 -22.997 -16.799  0.00  0.00    +0.009 C 
ATOM     10  C   UNL     1      31.952 -24.942 -13.869  0.00  0.00    -0.025 C 
ATOM     11  C   UNL     1      31.095 -22.639 -13.782  0.00  0.00    +0.007 C 
ATOM     12  C   UNL     1      33.290 -25.096 -13.853  0.00  0.00    -0.009 C 
ATOM     13  C   UNL     1      35.581 -24.438 -14.591  0.00  0.00    -0.030 C 
ATOM     14  C   UNL     1      35.874 -22.629 -16.391  0.00  0.00    +0.026 C 
ATOM     15  C   UNL     1      36.480 -23.612 -15.418  0.00  0.00    -0.024 C 
ATOM     16  C   UNL     1      36.280 -25.518 -13.782  0.00  0.00    +0.034 C 
ATOM     17  C   UNL     1      37.821 -23.684 -15.347  0.00  0.00    +0.033 C 
ATOM     18  C   UNL     1      37.634 -25.088 -13.231  0.00  0.00    +0.074 C 
ATOM     19  C   UNL     1      38.493 -24.519 -14.327  0.00  0.00    +0.173 C 
ENDROOT
BRANCH   5  20
ATOM     20  O   UNL     1      28.828 -24.195 -14.588  0.00  0.00    -0.384 OA
ATOM     21  H   UNL     1      28.886 -24.876 -13.899  0.00  0.00    +0.210 HD
ENDBRANCH   5  20
TORSDOF 1
ENDMDL
MODEL 8
REMARK VINA RESULT:      -8.5      4.866      7.809
REMARK  Name = 25015
REMARK  1 active torsions:
REMARK  status: ('A' for Active; 'I' for Inactive)
REMARK    1  A    between atoms: C_5  and  O_20
REMARK                            x       y       z     vdW  Elec       q    Type
REMARK                         _______ _______ _______ _____ _____    ______ ____
ROOT
ATOM      1  O   UNL     1      33.664 -15.949 -23.551  0.00  0.00    -0.291 OA
ATOM      2  C   UNL     1      32.384  -8.293 -23.288  0.00  0.00    +0.010 C 
ATOM      3  C   UNL     1      32.155  -7.793 -21.845  0.00  0.00    +0.044 C 
ATOM      4  C   UNL     1      33.233  -9.567 -23.324  0.00  0.00    +0.023 C 
ATOM      5  C   UNL     1      31.321  -6.536 -22.161  0.00  0.00    +0.114 C 
ATOM      6  C   UNL     1      32.851  -7.045 -24.028  0.00  0.00    +0.003 C 
ATOM      7  C   UNL     1      32.028  -5.914 -23.385  0.00  0.00    +0.030 C 
ATOM      8  C   UNL     1      32.562 -10.667 -22.478  0.00  0.00    -0.027 C 
ATOM      9  C   UNL     1      33.437 -10.042 -24.766  0.00  0.00    +0.009 C 
ATOM     10  C   UNL     1      31.460  -8.901 -21.102  0.00  0.00    -0.025 C 
ATOM     11  C   UNL     1      33.438  -7.441 -21.057  0.00  0.00    +0.007 C 
ATOM     12  C   UNL     1      31.665 -10.196 -21.408  0.00  0.00    -0.009 C 
ATOM     13  C   UNL     1      32.755 -11.982 -22.769  0.00  0.00    -0.030 C 
ATOM     14  C   UNL     1      34.228 -11.341 -24.773  0.00  0.00    +0.026 C 
ATOM     15  C   UNL     1      33.627 -12.402 -23.882  0.00  0.00    -0.024 C 
ATOM     16  C   UNL     1      32.056 -13.123 -22.049  0.00  0.00    +0.034 C 
ATOM     17  C   UNL     1      33.920 -13.688 -24.145  0.00  0.00    +0.033 C 
ATOM     18  C   UNL     1      32.915 -14.373 -21.909  0.00  0.00    +0.074 C 
ATOM     19  C   UNL     1      33.483 -14.775 -23.241  0.00  0.00    +0.173 C 
ENDROOT
BRANCH   5  20
ATOM     20  O   UNL     1      31.228  -5.618 -21.088  0.00  0.00    -0.384 OA
ATOM     21  H   UNL     1      31.254  -4.712 -21.434  0.00  0.00    +0.210 HD
ENDBRANCH   5  20
TORSDOF 1
ENDMDL
MODEL 9
REMARK VINA RESULT:      -8.5      5.408      8.269
REMARK  Name = 25015
REMARK  1 active torsions:
REMARK  status: ('A' for Active; 'I' for Inactive)
REMARK    1  A    between atoms: C_5  and  O_20
REMARK                            x       y       z     vdW  Elec       q    Type
REMARK                         _______ _______ _______ _____ _____    ______ ____
ROOT
ATOM      1  O   UNL     1      33.523 -15.618 -24.817  0.00  0.00    -0.291 OA
ATOM      2  C   UNL     1      32.369  -8.743 -21.393  0.00  0.00    +0.010 C 
ATOM      3  C   UNL     1      32.208  -7.603 -22.423  0.00  0.00    +0.044 C 
ATOM      4  C   UNL     1      31.962 -10.101 -21.975  0.00  0.00    +0.023 C 
ATOM      5  C   UNL     1      32.661  -6.424 -21.540  0.00  0.00    +0.114 C 
ATOM      6  C   UNL     1      31.668  -8.205 -20.152  0.00  0.00    +0.003 C 
ATOM      7  C   UNL     1      32.000  -6.702 -20.172  0.00  0.00    +0.030 C 
ATOM      8  C   UNL     1      32.794 -10.399 -23.238  0.00  0.00    -0.027 C 
ATOM      9  C   UNL     1      32.139 -11.211 -20.934  0.00  0.00    +0.009 C 
ATOM     10  C   UNL     1      33.081  -7.947 -23.598  0.00  0.00    -0.025 C 
ATOM     11  C   UNL     1      30.772  -7.395 -22.957  0.00  0.00    +0.007 C 
ATOM     12  C   UNL     1      33.328  -9.224 -23.947  0.00  0.00    -0.009 C 
ATOM     13  C   UNL     1      33.056 -11.681 -23.609  0.00  0.00    -0.030 C 
ATOM     14  C   UNL     1      31.789 -12.556 -21.552  0.00  0.00    +0.026 C 
ATOM     15  C   UNL     1      32.537 -12.825 -22.837  0.00  0.00    -0.024 C 
ATOM     16  C   UNL     1      33.946 -12.062 -24.780  0.00  0.00    +0.034 C 
ATOM     17  C   UNL     1      32.691 -14.105 -23.220  0.00  0.00    +0.033 C 
ATOM     18  C   UNL     1      33.495 -13.323 -25.506  0.00  0.00    +0.074 C 
ATOM     19  C   UNL     1      33.290 -14.448 -24.529  0.00  0.00    +0.173 C 
ENDROOT
BRANCH   5  20
ATOM     20  O   UNL     1      32.304  -5.151 -22.046  0.00  0.00    -0.384 OA
ATOM     21  H   UNL     1      32.675  -5.041 -22.936  0.00  0.00    +0.210 HD
ENDBRANCH   5  20
TORSDOF 1
ENDMDL
