MODEL 1
REMARK VINA RESULT:      -4.4      0.000      0.000
REMARK  Name = 7997
REMARK  3 active torsions:
REMARK  status: ('A' for Active; 'I' for Inactive)
REMARK    1  A    between atoms: O_1  and  C_3
REMARK    2  A    between atoms: O_1  and  C_5
REMARK    3  A    between atoms: C_5  and  C_6
REMARK                            x       y       z     vdW  Elec       q    Type
REMARK                         _______ _______ _______ _____ _____    ______ ____
ROOT
ATOM      1  O   UNL     1      35.303 -17.767 -20.682  0.00  0.00    -0.448 OA
ENDROOT
BRANCH   1   3
ATOM      2  O   UNL     1      34.839 -15.556 -20.198  0.00  0.00    -0.250 OA
ATOM      3  C   UNL     1      34.937 -16.485 -20.989  0.00  0.00    +0.318 C 
ATOM      4  C   UNL     1      34.668 -16.369 -22.458  0.00  0.00    +0.121 C 
ENDBRANCH   1   3
BRANCH   1   5
ATOM      5  C   UNL     1      34.830 -18.774 -21.567  0.00  0.00    +0.208 C 
BRANCH   5   6
ATOM      6  C   UNL     1      34.358 -19.965 -20.748  0.00  0.00    +0.047 C 
ATOM      7  C   UNL     1      32.848 -19.979 -20.587  0.00  0.00    +0.004 C 
ENDBRANCH   5   6
ENDBRANCH   1   5
TORSDOF 3
ENDMDL
MODEL 2
REMARK VINA RESULT:      -4.3      8.384      9.433
REMARK  Name = 7997
REMARK  3 active torsions:
REMARK  status: ('A' for Active; 'I' for Inactive)
REMARK    1  A    between atoms: O_1  and  C_3
REMARK    2  A    between atoms: O_1  and  C_5
REMARK    3  A    between atoms: C_5  and  C_6
REMARK                            x       y       z     vdW  Elec       q    Type
REMARK                         _______ _______ _______ _____ _____    ______ ____
ROOT
ATOM      1  O   UNL     1      29.269 -22.360 -16.931  0.00  0.00    -0.448 OA
ENDROOT
BRANCH   1   3
ATOM      2  O   UNL     1      27.683 -23.891 -17.622  0.00  0.00    -0.250 OA
ATOM      3  C   UNL     1      28.035 -22.951 -16.923  0.00  0.00    +0.318 C 
ATOM      4  C   UNL     1      27.154 -22.278 -15.915  0.00  0.00    +0.121 C 
ENDBRANCH   1   3
BRANCH   1   5
ATOM      5  C   UNL     1      30.334 -23.144 -16.411  0.00  0.00    +0.208 C 
BRANCH   5   6
ATOM      6  C   UNL     1      30.617 -22.704 -14.983  0.00  0.00    +0.047 C 
ATOM      7  C   UNL     1      30.627 -23.878 -14.021  0.00  0.00    +0.004 C 
ENDBRANCH   5   6
ENDBRANCH   1   5
TORSDOF 3
ENDMDL
MODEL 3
REMARK VINA RESULT:      -4.3      4.227      6.138
REMARK  Name = 7997
REMARK  3 active torsions:
REMARK  status: ('A' for Active; 'I' for Inactive)
REMARK    1  A    between atoms: O_1  and  C_3
REMARK    2  A    between atoms: O_1  and  C_5
REMARK    3  A    between atoms: C_5  and  C_6
REMARK                            x       y       z     vdW  Elec       q    Type
REMARK                         _______ _______ _______ _____ _____    ______ ____
ROOT
ATOM      1  O   UNL     1      32.715 -22.332 -18.715  0.00  0.00    -0.448 OA
ENDROOT
BRANCH   1   3
ATOM      2  O   UNL     1      34.324 -23.469 -17.508  0.00  0.00    -0.250 OA
ATOM      3  C   UNL     1      33.188 -23.034 -17.639  0.00  0.00    +0.318 C 
ATOM      4  C   UNL     1      32.102 -23.198 -16.620  0.00  0.00    +0.121 C 
ENDBRANCH   1   3
BRANCH   1   5
ATOM      5  C   UNL     1      33.683 -21.591 -19.444  0.00  0.00    +0.208 C 
BRANCH   5   6
ATOM      6  C   UNL     1      32.986 -20.446 -20.163  0.00  0.00    +0.047 C 
ATOM      7  C   UNL     1      33.964 -19.597 -20.955  0.00  0.00    +0.004 C 
ENDBRANCH   5   6
ENDBRANCH   1   5
TORSDOF 3
ENDMDL
MODEL 4
REMARK VINA RESULT:      -4.2      3.814      4.337
REMARK  Name = 7997
REMARK  3 active torsions:
REMARK  status: ('A' for Active; 'I' for Inactive)
REMARK    1  A    between atoms: O_1  and  C_3
REMARK    2  A    between atoms: O_1  and  C_5
REMARK    3  A    between atoms: C_5  and  C_6
REMARK                            x       y       z     vdW  Elec       q    Type
REMARK                         _______ _______ _______ _____ _____    ______ ____
ROOT
ATOM      1  O   UNL     1      34.135 -17.152 -25.625  0.00  0.00    -0.448 OA
ENDROOT
BRANCH   1   3
ATOM      2  O   UNL     1      33.429 -15.237 -26.708  0.00  0.00    -0.250 OA
ATOM      3  C   UNL     1      33.725 -15.848 -25.690  0.00  0.00    +0.318 C 
ATOM      4  C   UNL     1      33.684 -15.257 -24.314  0.00  0.00    +0.121 C 
ENDBRANCH   1   3
BRANCH   1   5
ATOM      5  C   UNL     1      34.909 -17.500 -24.485  0.00  0.00    +0.208 C 
BRANCH   5   6
ATOM      6  C   UNL     1      34.708 -18.978 -24.188  0.00  0.00    +0.047 C 
ATOM      7  C   UNL     1      34.687 -19.257 -22.695  0.00  0.00    +0.004 C 
ENDBRANCH   5   6
ENDBRANCH   1   5
TORSDOF 3
ENDMDL
MODEL 5
REMARK VINA RESULT:      -4.1      2.846      3.716
REMARK  Name = 7997
REMARK  3 active torsions:
REMARK  status: ('A' for Active; 'I' for Inactive)
REMARK    1  A    between atoms: O_1  and  C_3
REMARK    2  A    between atoms: O_1  and  C_5
REMARK    3  A    between atoms: C_5  and  C_6
REMARK                            x       y       z     vdW  Elec       q    Type
REMARK                         _______ _______ _______ _____ _____    ______ ____
ROOT
ATOM      1  O   UNL     1      34.946 -16.872 -23.496  0.00  0.00    -0.448 OA
ENDROOT
BRANCH   1   3
ATOM      2  O   UNL     1      34.798 -16.717 -25.797  0.00  0.00    -0.250 OA
ATOM      3  C   UNL     1      34.752 -17.363 -24.759  0.00  0.00    +0.318 C 
ATOM      4  C   UNL     1      34.474 -18.834 -24.696  0.00  0.00    +0.121 C 
ENDBRANCH   1   3
BRANCH   1   5
ATOM      5  C   UNL     1      35.636 -17.730 -22.598  0.00  0.00    +0.208 C 
BRANCH   5   6
ATOM      6  C   UNL     1      35.129 -17.474 -21.187  0.00  0.00    +0.047 C 
ATOM      7  C   UNL     1      34.702 -16.030 -20.993  0.00  0.00    +0.004 C 
ENDBRANCH   5   6
ENDBRANCH   1   5
TORSDOF 3
ENDMDL
MODEL 6
REMARK VINA RESULT:      -4.1      8.455      9.630
REMARK  Name = 7997
REMARK  3 active torsions:
REMARK  status: ('A' for Active; 'I' for Inactive)
REMARK    1  A    between atoms: O_1  and  C_3
REMARK    2  A    between atoms: O_1  and  C_5
REMARK    3  A    between atoms: C_5  and  C_6
REMARK                            x       y       z     vdW  Elec       q    Type
REMARK                         _______ _______ _______ _____ _____    ______ ____
ROOT
ATOM      1  O   UNL     1      41.123 -15.373 -17.164  0.00  0.00    -0.448 OA
ENDROOT
BRANCH   1   3
ATOM      2  O   UNL     1      42.752 -16.476 -15.953  0.00  0.00    -0.250 OA
ATOM      3  C   UNL     1      42.232 -16.160 -17.014  0.00  0.00    +0.318 C 
ATOM      4  C   UNL     1      42.733 -16.595 -18.358  0.00  0.00    +0.121 C 
ENDBRANCH   1   3
BRANCH   1   5
ATOM      5  C   UNL     1      41.302 -14.191 -17.933  0.00  0.00    +0.208 C 
BRANCH   5   6
ATOM      6  C   UNL     1      41.911 -13.116 -17.046  0.00  0.00    +0.047 C 
ATOM      7  C   UNL     1      43.191 -12.553 -17.637  0.00  0.00    +0.004 C 
ENDBRANCH   5   6
ENDBRANCH   1   5
TORSDOF 3
ENDMDL
MODEL 7
REMARK VINA RESULT:      -4.1     11.190     11.980
REMARK  Name = 7997
REMARK  3 active torsions:
REMARK  status: ('A' for Active; 'I' for Inactive)
REMARK    1  A    between atoms: O_1  and  C_3
REMARK    2  A    between atoms: O_1  and  C_5
REMARK    3  A    between atoms: C_5  and  C_6
REMARK                            x       y       z     vdW  Elec       q    Type
REMARK                         _______ _______ _______ _____ _____    ______ ____
ROOT
ATOM      1  O   UNL     1      37.426 -24.490 -11.075  0.00  0.00    -0.448 OA
ENDROOT
BRANCH   1   3
ATOM      2  O   UNL     1      35.273 -25.076 -10.476  0.00  0.00    -0.250 OA
ATOM      3  C   UNL     1      36.064 -24.489 -11.203  0.00  0.00    +0.318 C 
ATOM      4  C   UNL     1      35.663 -23.651 -12.378  0.00  0.00    +0.121 C 
ENDBRANCH   1   3
BRANCH   1   5
ATOM      5  C   UNL     1      38.160 -24.292 -12.276  0.00  0.00    +0.208 C 
BRANCH   5   6
ATOM      6  C   UNL     1      38.583 -25.647 -12.822  0.00  0.00    +0.047 C 
ATOM      7  C   UNL     1      39.575 -25.512 -13.963  0.00  0.00    +0.004 C 
ENDBRANCH   5   6
ENDBRANCH   1   5
TORSDOF 3
ENDMDL
MODEL 8
REMARK VINA RESULT:      -4.1      1.650      3.416
REMARK  Name = 7997
REMARK  3 active torsions:
REMARK  status: ('A' for Active; 'I' for Inactive)
REMARK    1  A    between atoms: O_1  and  C_3
REMARK    2  A    between atoms: O_1  and  C_5
REMARK    3  A    between atoms: C_5  and  C_6
REMARK                            x       y       z     vdW  Elec       q    Type
REMARK                         _______ _______ _______ _____ _____    ______ ____
ROOT
ATOM      1  O   UNL     1      35.319 -17.227 -20.563  0.00  0.00    -0.448 OA
ENDROOT
BRANCH   1   3
ATOM      2  O   UNL     1      36.502 -19.211 -20.605  0.00  0.00    -0.250 OA
ATOM      3  C   UNL     1      35.694 -18.432 -21.092  0.00  0.00    +0.318 C 
ATOM      4  C   UNL     1      34.963 -18.675 -22.377  0.00  0.00    +0.121 C 
ENDBRANCH   1   3
BRANCH   1   5
ATOM      5  C   UNL     1      34.793 -16.283 -21.487  0.00  0.00    +0.208 C 
BRANCH   5   6
ATOM      6  C   UNL     1      34.379 -15.032 -20.728  0.00  0.00    +0.047 C 
ATOM      7  C   UNL     1      32.886 -15.005 -20.453  0.00  0.00    +0.004 C 
ENDBRANCH   5   6
ENDBRANCH   1   5
TORSDOF 3
ENDMDL
MODEL 9
REMARK VINA RESULT:      -4.1      1.795      1.968
REMARK  Name = 7997
REMARK  3 active torsions:
REMARK  status: ('A' for Active; 'I' for Inactive)
REMARK    1  A    between atoms: O_1  and  C_3
REMARK    2  A    between atoms: O_1  and  C_5
REMARK    3  A    between atoms: C_5  and  C_6
REMARK                            x       y       z     vdW  Elec       q    Type
REMARK                         _______ _______ _______ _____ _____    ______ ____
ROOT
ATOM      1  O   UNL     1      34.424 -17.775 -22.267  0.00  0.00    -0.448 OA
ENDROOT
BRANCH   1   3
ATOM      2  O   UNL     1      35.390 -15.959 -23.319  0.00  0.00    -0.250 OA
ATOM      3  C   UNL     1      34.902 -17.080 -23.345  0.00  0.00    +0.318 C 
ATOM      4  C   UNL     1      34.747 -17.901 -24.589  0.00  0.00    +0.121 C 
ENDBRANCH   1   3
BRANCH   1   5
ATOM      5  C   UNL     1      34.616 -19.183 -22.303  0.00  0.00    +0.208 C 
BRANCH   5   6
ATOM      6  C   UNL     1      34.363 -19.749 -20.915  0.00  0.00    +0.047 C 
ATOM      7  C   UNL     1      32.885 -19.987 -20.662  0.00  0.00    +0.004 C 
ENDBRANCH   5   6
ENDBRANCH   1   5
TORSDOF 3
ENDMDL
