MODEL 1
REMARK VINA RESULT:      -7.1      0.000      0.000
REMARK  Name = 164739
REMARK  6 active torsions:
REMARK  status: ('A' for Active; 'I' for Inactive)
REMARK    1  A    between atoms: C_1  and  C_11
REMARK    2  A    between atoms: C_4  and  O_7
REMARK    3  A    between atoms: C_6  and  O_9
REMARK    4  A    between atoms: C_11  and  O_12
REMARK    5  A    between atoms: C_11  and  C_14
REMARK    6  A    between atoms: C_14  and  N_16
REMARK                            x       y       z     vdW  Elec       q    Type
REMARK                         _______ _______ _______ _____ _____    ______ ____
ROOT
ATOM      1  C   UNL     1      34.828 -19.323 -20.967  0.00  0.00    +0.005 C 
ATOM      2  C   UNL     1      35.578 -20.294 -20.328  0.00  0.00    +0.038 C 
ATOM      3  C   UNL     1      33.445 -19.343 -20.947  0.00  0.00    +0.001 C 
ATOM      4  C   UNL     1      34.922 -21.320 -19.646  0.00  0.00    +0.167 C 
ATOM      5  C   UNL     1      32.790 -20.367 -20.264  0.00  0.00    +0.040 C 
ATOM      6  C   UNL     1      33.528 -21.356 -19.614  0.00  0.00    +0.167 C 
ENDROOT
BRANCH   4   7
ATOM      7  O   UNL     1      35.654 -22.279 -19.013  0.00  0.00    -0.503 OA
ATOM      8  H   UNL     1      36.023 -22.987 -19.505  0.00  0.00    +0.292 HD
ENDBRANCH   4   7
BRANCH   6   9
ATOM      9  O   UNL     1      32.877 -22.351 -18.950  0.00  0.00    -0.503 OA
ATOM     10  H   UNL     1      31.950 -22.449 -19.045  0.00  0.00    +0.292 HD
ENDBRANCH   6   9
BRANCH   1  11
ATOM     11  C   UNL     1      35.540 -18.211 -21.708  0.00  0.00    +0.113 C 
BRANCH  11  12
ATOM     12  O   UNL     1      36.890 -18.642 -21.902  0.00  0.00    -0.382 OA
ATOM     13  H   UNL     1      37.447 -18.287 -21.192  0.00  0.00    +0.211 HD
ENDBRANCH  11  12
BRANCH  11  14
ATOM     14  C   UNL     1      34.897 -17.862 -23.069  0.00  0.00    -0.034 C 
ATOM     15  C   UNL     1      35.027 -18.994 -24.090  0.00  0.00    -0.021 C 
BRANCH  14  16
ATOM     16  N   UNL     1      35.546 -16.670 -23.630  0.00  0.00    +0.384 N 
ATOM     17  H   UNL     1      35.666 -15.971 -22.896  0.00  0.00    -0.089 HD
ATOM     18  H   UNL     1      34.966 -16.284 -24.375  0.00  0.00    -0.089 HD
ATOM     19  H   UNL     1      36.459 -16.927 -24.008  0.00  0.00    -0.089 HD
ENDBRANCH  14  16
ENDBRANCH  11  14
ENDBRANCH   1  11
TORSDOF 6
ENDMDL
MODEL 2
REMARK VINA RESULT:      -6.9      3.035      5.701
REMARK  Name = 164739
REMARK  6 active torsions:
REMARK  status: ('A' for Active; 'I' for Inactive)
REMARK    1  A    between atoms: C_1  and  C_11
REMARK    2  A    between atoms: C_4  and  O_7
REMARK    3  A    between atoms: C_6  and  O_9
REMARK    4  A    between atoms: C_11  and  O_12
REMARK    5  A    between atoms: C_11  and  C_14
REMARK    6  A    between atoms: C_14  and  N_16
REMARK                            x       y       z     vdW  Elec       q    Type
REMARK                         _______ _______ _______ _____ _____    ______ ____
ROOT
ATOM      1  C   UNL     1      35.217 -17.500 -22.811  0.00  0.00    +0.005 C 
ATOM      2  C   UNL     1      34.836 -16.170 -22.807  0.00  0.00    +0.038 C 
ATOM      3  C   UNL     1      35.111 -18.281 -23.948  0.00  0.00    +0.001 C 
ATOM      4  C   UNL     1      34.333 -15.602 -23.977  0.00  0.00    +0.167 C 
ATOM      5  C   UNL     1      34.609 -17.714 -25.119  0.00  0.00    +0.040 C 
ATOM      6  C   UNL     1      34.219 -16.374 -25.134  0.00  0.00    +0.167 C 
ENDROOT
BRANCH   4   7
ATOM      7  O   UNL     1      33.957 -14.293 -23.981  0.00  0.00    -0.503 OA
ATOM      8  H   UNL     1      33.966 -13.805 -24.781  0.00  0.00    +0.292 HD
ENDBRANCH   4   7
BRANCH   6   9
ATOM      9  O   UNL     1      33.731 -15.831 -26.283  0.00  0.00    -0.503 OA
ATOM     10  H   UNL     1      32.806 -15.740 -26.403  0.00  0.00    +0.292 HD
ENDBRANCH   6   9
BRANCH   1  11
ATOM     11  C   UNL     1      35.761 -18.116 -21.540  0.00  0.00    +0.113 C 
BRANCH  11  12
ATOM     12  O   UNL     1      35.428 -17.224 -20.473  0.00  0.00    -0.382 OA
ATOM     13  H   UNL     1      34.498 -16.958 -20.552  0.00  0.00    +0.211 HD
ENDBRANCH  11  12
BRANCH  11  14
ATOM     14  C   UNL     1      35.203 -19.526 -21.245  0.00  0.00    -0.034 C 
ATOM     15  C   UNL     1      33.720 -19.504 -20.866  0.00  0.00    -0.021 C 
BRANCH  14  16
ATOM     16  N   UNL     1      35.946 -20.127 -20.131  0.00  0.00    +0.384 N 
ATOM     17  H   UNL     1      36.368 -21.004 -20.437  0.00  0.00    -0.089 HD
ATOM     18  H   UNL     1      35.309 -20.310 -19.355  0.00  0.00    -0.089 HD
ATOM     19  H   UNL     1      36.679 -19.485 -19.826  0.00  0.00    -0.089 HD
ENDBRANCH  14  16
ENDBRANCH  11  14
ENDBRANCH   1  11
TORSDOF 6
ENDMDL
MODEL 3
REMARK VINA RESULT:      -6.8      2.482      5.271
REMARK  Name = 164739
REMARK  6 active torsions:
REMARK  status: ('A' for Active; 'I' for Inactive)
REMARK    1  A    between atoms: C_1  and  C_11
REMARK    2  A    between atoms: C_4  and  O_7
REMARK    3  A    between atoms: C_6  and  O_9
REMARK    4  A    between atoms: C_11  and  O_12
REMARK    5  A    between atoms: C_11  and  C_14
REMARK    6  A    between atoms: C_14  and  N_16
REMARK                            x       y       z     vdW  Elec       q    Type
REMARK                         _______ _______ _______ _____ _____    ______ ____
ROOT
ATOM      1  C   UNL     1      34.573 -18.654 -22.198  0.00  0.00    +0.005 C 
ATOM      2  C   UNL     1      34.741 -17.281 -22.187  0.00  0.00    +0.038 C 
ATOM      3  C   UNL     1      34.523 -19.369 -23.381  0.00  0.00    +0.001 C 
ATOM      4  C   UNL     1      34.864 -16.601 -23.398  0.00  0.00    +0.167 C 
ATOM      5  C   UNL     1      34.647 -18.690 -24.592  0.00  0.00    +0.040 C 
ATOM      6  C   UNL     1      34.818 -17.305 -24.602  0.00  0.00    +0.167 C 
ENDROOT
BRANCH   4   7
ATOM      7  O   UNL     1      35.033 -15.248 -23.395  0.00  0.00    -0.503 OA
ATOM      8  H   UNL     1      35.774 -14.870 -22.964  0.00  0.00    +0.292 HD
ENDBRANCH   4   7
BRANCH   6   9
ATOM      9  O   UNL     1      34.939 -16.653 -25.791  0.00  0.00    -0.503 OA
ATOM     10  H   UNL     1      35.786 -16.516 -26.167  0.00  0.00    +0.292 HD
ENDBRANCH   6   9
BRANCH   1  11
ATOM     11  C   UNL     1      34.438 -19.391 -20.883  0.00  0.00    +0.113 C 
BRANCH  11  12
ATOM     12  O   UNL     1      33.189 -20.087 -20.925  0.00  0.00    -0.382 OA
ATOM     13  H   UNL     1      33.288 -20.956 -20.505  0.00  0.00    +0.211 HD
ENDBRANCH  11  12
BRANCH  11  14
ATOM     14  C   UNL     1      35.588 -20.386 -20.608  0.00  0.00    -0.034 C 
ATOM     15  C   UNL     1      35.245 -21.392 -19.508  0.00  0.00    -0.021 C 
BRANCH  14  16
ATOM     16  N   UNL     1      36.787 -19.648 -20.189  0.00  0.00    +0.384 N 
ATOM     17  H   UNL     1      37.549 -20.305 -20.021  0.00  0.00    -0.089 HD
ATOM     18  H   UNL     1      36.587 -19.133 -19.331  0.00  0.00    -0.089 HD
ATOM     19  H   UNL     1      37.058 -18.994 -20.923  0.00  0.00    -0.089 HD
ENDBRANCH  14  16
ENDBRANCH  11  14
ENDBRANCH   1  11
TORSDOF 6
ENDMDL
MODEL 4
REMARK VINA RESULT:      -6.8      1.281      2.178
REMARK  Name = 164739
REMARK  6 active torsions:
REMARK  status: ('A' for Active; 'I' for Inactive)
REMARK    1  A    between atoms: C_1  and  C_11
REMARK    2  A    between atoms: C_4  and  O_7
REMARK    3  A    between atoms: C_6  and  O_9
REMARK    4  A    between atoms: C_11  and  O_12
REMARK    5  A    between atoms: C_11  and  C_14
REMARK    6  A    between atoms: C_14  and  N_16
REMARK                            x       y       z     vdW  Elec       q    Type
REMARK                         _______ _______ _______ _____ _____    ______ ____
ROOT
ATOM      1  C   UNL     1      34.729 -19.270 -21.041  0.00  0.00    +0.005 C 
ATOM      2  C   UNL     1      33.619 -19.979 -20.617  0.00  0.00    +0.038 C 
ATOM      3  C   UNL     1      36.012 -19.657 -20.697  0.00  0.00    +0.001 C 
ATOM      4  C   UNL     1      33.798 -21.111 -19.823  0.00  0.00    +0.167 C 
ATOM      5  C   UNL     1      36.191 -20.789 -19.903  0.00  0.00    +0.040 C 
ATOM      6  C   UNL     1      35.084 -21.517 -19.466  0.00  0.00    +0.167 C 
ENDROOT
BRANCH   4   7
ATOM      7  O   UNL     1      32.709 -21.815 -19.403  0.00  0.00    -0.503 OA
ATOM      8  H   UNL     1      32.483 -21.828 -18.493  0.00  0.00    +0.292 HD
ENDBRANCH   4   7
BRANCH   6   9
ATOM      9  O   UNL     1      35.272 -22.622 -18.692  0.00  0.00    -0.503 OA
ATOM     10  H   UNL     1      36.013 -23.176 -18.837  0.00  0.00    +0.292 HD
ENDBRANCH   6   9
BRANCH   1  11
ATOM     11  C   UNL     1      34.535 -18.041 -21.902  0.00  0.00    +0.113 C 
BRANCH  11  12
ATOM     12  O   UNL     1      35.039 -16.929 -21.156  0.00  0.00    -0.382 OA
ATOM     13  H   UNL     1      35.860 -17.187 -20.708  0.00  0.00    +0.211 HD
ENDBRANCH  11  12
BRANCH  11  14
ATOM     14  C   UNL     1      35.245 -18.124 -23.272  0.00  0.00    -0.034 C 
ATOM     15  C   UNL     1      34.943 -16.919 -24.166  0.00  0.00    -0.021 C 
BRANCH  14  16
ATOM     16  N   UNL     1      34.809 -19.334 -23.981  0.00  0.00    +0.384 N 
ATOM     17  H   UNL     1      35.627 -19.852 -24.303  0.00  0.00    -0.089 HD
ATOM     18  H   UNL     1      34.236 -19.071 -24.783  0.00  0.00    -0.089 HD
ATOM     19  H   UNL     1      34.263 -19.919 -23.349  0.00  0.00    -0.089 HD
ENDBRANCH  14  16
ENDBRANCH  11  14
ENDBRANCH   1  11
TORSDOF 6
ENDMDL
MODEL 5
REMARK VINA RESULT:      -6.5      2.520      4.999
REMARK  Name = 164739
REMARK  6 active torsions:
REMARK  status: ('A' for Active; 'I' for Inactive)
REMARK    1  A    between atoms: C_1  and  C_11
REMARK    2  A    between atoms: C_4  and  O_7
REMARK    3  A    between atoms: C_6  and  O_9
REMARK    4  A    between atoms: C_11  and  O_12
REMARK    5  A    between atoms: C_11  and  C_14
REMARK    6  A    between atoms: C_14  and  N_16
REMARK                            x       y       z     vdW  Elec       q    Type
REMARK                         _______ _______ _______ _____ _____    ______ ____
ROOT
ATOM      1  C   UNL     1      34.973 -18.790 -21.595  0.00  0.00    +0.005 C 
ATOM      2  C   UNL     1      34.918 -17.635 -20.836  0.00  0.00    +0.038 C 
ATOM      3  C   UNL     1      35.025 -18.748 -22.977  0.00  0.00    +0.001 C 
ATOM      4  C   UNL     1      34.916 -16.397 -21.479  0.00  0.00    +0.167 C 
ATOM      5  C   UNL     1      35.024 -17.512 -23.620  0.00  0.00    +0.040 C 
ATOM      6  C   UNL     1      34.969 -16.335 -22.872  0.00  0.00    +0.167 C 
ENDROOT
BRANCH   4   7
ATOM      7  O   UNL     1      34.864 -15.255 -20.738  0.00  0.00    -0.503 OA
ATOM      8  H   UNL     1      34.809 -15.306 -19.803  0.00  0.00    +0.292 HD
ENDBRANCH   4   7
BRANCH   6   9
ATOM      9  O   UNL     1      34.969 -15.133 -23.512  0.00  0.00    -0.503 OA
ATOM     10  H   UNL     1      34.299 -14.505 -23.329  0.00  0.00    +0.292 HD
ENDBRANCH   6   9
BRANCH   1  11
ATOM     11  C   UNL     1      34.974 -20.133 -20.896  0.00  0.00    +0.113 C 
BRANCH  11  12
ATOM     12  O   UNL     1      36.124 -20.156 -20.046  0.00  0.00    -0.382 OA
ATOM     13  H   UNL     1      36.667 -19.371 -20.216  0.00  0.00    +0.211 HD
ENDBRANCH  11  12
BRANCH  11  14
ATOM     14  C   UNL     1      33.698 -20.401 -20.066  0.00  0.00    -0.034 C 
ATOM     15  C   UNL     1      33.718 -21.771 -19.384  0.00  0.00    -0.021 C 
BRANCH  14  16
ATOM     16  N   UNL     1      32.521 -20.349 -20.942  0.00  0.00    +0.384 N 
ATOM     17  H   UNL     1      32.059 -21.259 -20.947  0.00  0.00    -0.089 HD
ATOM     18  H   UNL     1      32.812 -20.112 -21.891  0.00  0.00    -0.089 HD
ATOM     19  H   UNL     1      31.872 -19.641 -20.599  0.00  0.00    -0.089 HD
ENDBRANCH  14  16
ENDBRANCH  11  14
ENDBRANCH   1  11
TORSDOF 6
ENDMDL
MODEL 6
REMARK VINA RESULT:      -6.4      2.533      5.088
REMARK  Name = 164739
REMARK  6 active torsions:
REMARK  status: ('A' for Active; 'I' for Inactive)
REMARK    1  A    between atoms: C_1  and  C_11
REMARK    2  A    between atoms: C_4  and  O_7
REMARK    3  A    between atoms: C_6  and  O_9
REMARK    4  A    between atoms: C_11  and  O_12
REMARK    5  A    between atoms: C_11  and  C_14
REMARK    6  A    between atoms: C_14  and  N_16
REMARK                            x       y       z     vdW  Elec       q    Type
REMARK                         _______ _______ _______ _____ _____    ______ ____
ROOT
ATOM      1  C   UNL     1      34.906 -18.769 -21.845  0.00  0.00    +0.005 C 
ATOM      2  C   UNL     1      34.854 -18.835 -23.226  0.00  0.00    +0.038 C 
ATOM      3  C   UNL     1      34.878 -17.559 -21.175  0.00  0.00    +0.001 C 
ATOM      4  C   UNL     1      34.771 -17.653 -23.961  0.00  0.00    +0.167 C 
ATOM      5  C   UNL     1      34.793 -16.377 -21.909  0.00  0.00    +0.040 C 
ATOM      6  C   UNL     1      34.740 -16.423 -23.302  0.00  0.00    +0.167 C 
ENDROOT
BRANCH   4   7
ATOM      7  O   UNL     1      34.717 -17.710 -25.321  0.00  0.00    -0.503 OA
ATOM      8  H   UNL     1      34.300 -18.436 -25.743  0.00  0.00    +0.292 HD
ENDBRANCH   4   7
BRANCH   6   9
ATOM      9  O   UNL     1      34.657 -15.262 -24.008  0.00  0.00    -0.503 OA
ATOM     10  H   UNL     1      33.841 -14.803 -24.063  0.00  0.00    +0.292 HD
ENDBRANCH   6   9
BRANCH   1  11
ATOM     11  C   UNL     1      34.998 -20.053 -21.048  0.00  0.00    +0.113 C 
BRANCH  11  12
ATOM     12  O   UNL     1      36.177 -19.957 -20.245  0.00  0.00    -0.382 OA
ATOM     13  H   UNL     1      36.749 -20.722 -20.417  0.00  0.00    +0.211 HD
ENDBRANCH  11  12
BRANCH  11  14
ATOM     14  C   UNL     1      33.767 -20.316 -20.151  0.00  0.00    -0.034 C 
ATOM     15  C   UNL     1      33.841 -21.665 -19.433  0.00  0.00    -0.021 C 
BRANCH  14  16
ATOM     16  N   UNL     1      32.549 -20.306 -20.971  0.00  0.00    +0.384 N 
ATOM     17  H   UNL     1      31.785 -20.739 -20.452  0.00  0.00    -0.089 HD
ATOM     18  H   UNL     1      32.714 -20.829 -21.832  0.00  0.00    -0.089 HD
ATOM     19  H   UNL     1      32.302 -19.343 -21.200  0.00  0.00    -0.089 HD
ENDBRANCH  14  16
ENDBRANCH  11  14
ENDBRANCH   1  11
TORSDOF 6
ENDMDL
MODEL 7
REMARK VINA RESULT:      -6.4      1.788      2.156
REMARK  Name = 164739
REMARK  6 active torsions:
REMARK  status: ('A' for Active; 'I' for Inactive)
REMARK    1  A    between atoms: C_1  and  C_11
REMARK    2  A    between atoms: C_4  and  O_7
REMARK    3  A    between atoms: C_6  and  O_9
REMARK    4  A    between atoms: C_11  and  O_12
REMARK    5  A    between atoms: C_11  and  C_14
REMARK    6  A    between atoms: C_14  and  N_16
REMARK                            x       y       z     vdW  Elec       q    Type
REMARK                         _______ _______ _______ _____ _____    ______ ____
ROOT
ATOM      1  C   UNL     1      34.730 -20.561 -20.443  0.00  0.00    +0.005 C 
ATOM      2  C   UNL     1      35.884 -20.929 -19.773  0.00  0.00    +0.038 C 
ATOM      3  C   UNL     1      33.489 -21.045 -20.069  0.00  0.00    +0.001 C 
ATOM      4  C   UNL     1      35.794 -21.809 -18.695  0.00  0.00    +0.167 C 
ATOM      5  C   UNL     1      33.398 -21.923 -18.991  0.00  0.00    +0.040 C 
ATOM      6  C   UNL     1      34.550 -22.306 -18.303  0.00  0.00    +0.167 C 
ENDROOT
BRANCH   4   7
ATOM      7  O   UNL     1      36.925 -22.174 -18.030  0.00  0.00    -0.503 OA
ATOM      8  H   UNL     1      37.658 -22.515 -18.505  0.00  0.00    +0.292 HD
ENDBRANCH   4   7
BRANCH   6   9
ATOM      9  O   UNL     1      34.449 -23.165 -17.251  0.00  0.00    -0.503 OA
ATOM     10  H   UNL     1      33.910 -23.928 -17.318  0.00  0.00    +0.292 HD
ENDBRANCH   6   9
BRANCH   1  11
ATOM     11  C   UNL     1      34.829 -19.607 -21.614  0.00  0.00    +0.113 C 
BRANCH  11  12
ATOM     12  O   UNL     1      33.504 -19.136 -21.877  0.00  0.00    -0.382 OA
ATOM     13  H   UNL     1      32.903 -19.892 -21.960  0.00  0.00    +0.211 HD
ENDBRANCH  11  12
BRANCH  11  14
ATOM     14  C   UNL     1      35.775 -18.411 -21.362  0.00  0.00    -0.034 C 
ATOM     15  C   UNL     1      35.020 -17.129 -21.003  0.00  0.00    -0.021 C 
BRANCH  14  16
ATOM     16  N   UNL     1      36.567 -18.147 -22.569  0.00  0.00    +0.384 N 
ATOM     17  H   UNL     1      37.335 -18.816 -22.626  0.00  0.00    -0.089 HD
ATOM     18  H   UNL     1      36.944 -17.200 -22.529  0.00  0.00    -0.089 HD
ATOM     19  H   UNL     1      35.973 -18.241 -23.393  0.00  0.00    -0.089 HD
ENDBRANCH  14  16
ENDBRANCH  11  14
ENDBRANCH   1  11
TORSDOF 6
ENDMDL
MODEL 8
REMARK VINA RESULT:      -6.3      3.197      5.859
REMARK  Name = 164739
REMARK  6 active torsions:
REMARK  status: ('A' for Active; 'I' for Inactive)
REMARK    1  A    between atoms: C_1  and  C_11
REMARK    2  A    between atoms: C_4  and  O_7
REMARK    3  A    between atoms: C_6  and  O_9
REMARK    4  A    between atoms: C_11  and  O_12
REMARK    5  A    between atoms: C_11  and  C_14
REMARK    6  A    between atoms: C_14  and  N_16
REMARK                            x       y       z     vdW  Elec       q    Type
REMARK                         _______ _______ _______ _____ _____    ______ ____
ROOT
ATOM      1  C   UNL     1      34.986 -17.271 -23.172  0.00  0.00    +0.005 C 
ATOM      2  C   UNL     1      34.595 -17.210 -24.498  0.00  0.00    +0.038 C 
ATOM      3  C   UNL     1      34.825 -16.194 -22.319  0.00  0.00    +0.001 C 
ATOM      4  C   UNL     1      34.025 -16.035 -24.987  0.00  0.00    +0.167 C 
ATOM      5  C   UNL     1      34.254 -15.019 -22.806  0.00  0.00    +0.040 C 
ATOM      6  C   UNL     1      33.854 -14.938 -24.140  0.00  0.00    +0.167 C 
ENDROOT
BRANCH   4   7
ATOM      7  O   UNL     1      33.636 -15.969 -26.291  0.00  0.00    -0.503 OA
ATOM      8  H   UNL     1      33.954 -16.600 -26.906  0.00  0.00    +0.292 HD
ENDBRANCH   4   7
BRANCH   6   9
ATOM      9  O   UNL     1      33.297 -13.786 -24.605  0.00  0.00    -0.503 OA
ATOM     10  H   UNL     1      33.784 -12.986 -24.578  0.00  0.00    +0.292 HD
ENDBRANCH   6   9
BRANCH   1  11
ATOM     11  C   UNL     1      35.606 -18.546 -22.643  0.00  0.00    +0.113 C 
BRANCH  11  12
ATOM     12  O   UNL     1      37.015 -18.317 -22.559  0.00  0.00    -0.382 OA
ATOM     13  H   UNL     1      37.193 -17.366 -22.634  0.00  0.00    +0.211 HD
ENDBRANCH  11  12
BRANCH  11  14
ATOM     14  C   UNL     1      35.057 -18.978 -21.265  0.00  0.00    -0.034 C 
ATOM     15  C   UNL     1      35.958 -19.999 -20.566  0.00  0.00    -0.021 C 
BRANCH  14  16
ATOM     16  N   UNL     1      33.730 -19.583 -21.430  0.00  0.00    +0.384 N 
ATOM     17  H   UNL     1      33.543 -20.212 -20.650  0.00  0.00    -0.089 HD
ATOM     18  H   UNL     1      33.702 -20.108 -22.304  0.00  0.00    -0.089 HD
ATOM     19  H   UNL     1      33.022 -18.849 -21.452  0.00  0.00    -0.089 HD
ENDBRANCH  14  16
ENDBRANCH  11  14
ENDBRANCH   1  11
TORSDOF 6
ENDMDL
MODEL 9
REMARK VINA RESULT:      -6.3      2.846      4.291
REMARK  Name = 164739
REMARK  6 active torsions:
REMARK  status: ('A' for Active; 'I' for Inactive)
REMARK    1  A    between atoms: C_1  and  C_11
REMARK    2  A    between atoms: C_4  and  O_7
REMARK    3  A    between atoms: C_6  and  O_9
REMARK    4  A    between atoms: C_11  and  O_12
REMARK    5  A    between atoms: C_11  and  C_14
REMARK    6  A    between atoms: C_14  and  N_16
REMARK                            x       y       z     vdW  Elec       q    Type
REMARK                         _______ _______ _______ _____ _____    ______ ____
ROOT
ATOM      1  C   UNL     1      34.886 -16.831 -23.681  0.00  0.00    +0.005 C 
ATOM      2  C   UNL     1      34.958 -16.265 -22.421  0.00  0.00    +0.038 C 
ATOM      3  C   UNL     1      34.949 -18.201 -23.865  0.00  0.00    +0.001 C 
ATOM      4  C   UNL     1      35.097 -17.095 -21.309  0.00  0.00    +0.167 C 
ATOM      5  C   UNL     1      35.087 -19.031 -22.754  0.00  0.00    +0.040 C 
ATOM      6  C   UNL     1      35.161 -18.479 -21.475  0.00  0.00    +0.167 C 
ENDROOT
BRANCH   4   7
ATOM      7  O   UNL     1      35.167 -16.544 -20.064  0.00  0.00    -0.503 OA
ATOM      8  H   UNL     1      34.439 -16.060 -19.726  0.00  0.00    +0.292 HD
ENDBRANCH   4   7
BRANCH   6   9
ATOM      9  O   UNL     1      35.295 -19.299 -20.396  0.00  0.00    -0.503 OA
ATOM     10  H   UNL     1      35.962 -19.132 -19.760  0.00  0.00    +0.292 HD
ENDBRANCH   6   9
BRANCH   1  11
ATOM     11  C   UNL     1      34.737 -15.930 -24.888  0.00  0.00    +0.113 C 
BRANCH  11  12
ATOM     12  O   UNL     1      34.752 -16.777 -26.041  0.00  0.00    -0.382 OA
ATOM     13  H   UNL     1      35.566 -17.303 -26.044  0.00  0.00    +0.211 HD
ENDBRANCH  11  12
BRANCH  11  14
ATOM     14  C   UNL     1      33.446 -15.081 -24.872  0.00  0.00    -0.034 C 
ATOM     15  C   UNL     1      32.860 -14.876 -26.271  0.00  0.00    -0.021 C 
BRANCH  14  16
ATOM     16  N   UNL     1      33.733 -13.759 -24.303  0.00  0.00    +0.384 N 
ATOM     17  H   UNL     1      33.098 -13.069 -24.706  0.00  0.00    -0.089 HD
ATOM     18  H   UNL     1      34.696 -13.498 -24.516  0.00  0.00    -0.089 HD
ATOM     19  H   UNL     1      33.604 -13.788 -23.291  0.00  0.00    -0.089 HD
ENDBRANCH  14  16
ENDBRANCH  11  14
ENDBRANCH   1  11
TORSDOF 6
ENDMDL
