MODEL 1
REMARK VINA RESULT:      -5.3      0.000      0.000
REMARK  Name = 9528
REMARK  4 active torsions:
REMARK  status: ('A' for Active; 'I' for Inactive)
REMARK    1  A    between atoms: O_1  and  C_2
REMARK    2  A    between atoms: O_1  and  C_7
REMARK    3  A    between atoms: C_2  and  C_6
REMARK    4  A    between atoms: C_7  and  C_11
REMARK                            x       y       z     vdW  Elec       q    Type
REMARK                         _______ _______ _______ _____ _____    ______ ____
ROOT
ATOM      1  O   UNL     1      35.425 -16.182 -23.263  0.00  0.00    -0.337 OA
ENDROOT
BRANCH   1   2
ATOM      2  C   UNL     1      34.592 -15.365 -22.455  0.00  0.00    +0.246 C 
BRANCH   2   6
ATOM      3  F   UNL     1      33.266 -16.552 -20.918  0.00  0.00    -0.167 F 
ATOM      4  F   UNL     1      34.632 -15.051 -20.117  0.00  0.00    -0.167 F 
ATOM      5  F   UNL     1      35.413 -16.936 -20.898  0.00  0.00    -0.167 F 
ATOM      6  C   UNL     1      34.479 -15.980 -21.085  0.00  0.00    +0.425 C 
ENDBRANCH   2   6
ENDBRANCH   1   2
BRANCH   1   7
ATOM      7  C   UNL     1      34.662 -17.007 -24.134  0.00  0.00    +0.246 C 
BRANCH   7  11
ATOM      8  F   UNL     1      36.248 -18.608 -23.461  0.00  0.00    -0.167 F 
ATOM      9  F   UNL     1      34.734 -19.238 -24.900  0.00  0.00    -0.167 F 
ATOM     10  F   UNL     1      34.187 -18.902 -22.811  0.00  0.00    -0.167 F 
ATOM     11  C   UNL     1      34.955 -18.453 -23.825  0.00  0.00    +0.425 C 
ENDBRANCH   7  11
ENDBRANCH   1   7
TORSDOF 4
ENDMDL
MODEL 2
REMARK VINA RESULT:      -5.3      0.048      4.009
REMARK  Name = 9528
REMARK  4 active torsions:
REMARK  status: ('A' for Active; 'I' for Inactive)
REMARK    1  A    between atoms: O_1  and  C_2
REMARK    2  A    between atoms: O_1  and  C_7
REMARK    3  A    between atoms: C_2  and  C_6
REMARK    4  A    between atoms: C_7  and  C_11
REMARK                            x       y       z     vdW  Elec       q    Type
REMARK                         _______ _______ _______ _____ _____    ______ ____
ROOT
ATOM      1  O   UNL     1      35.434 -16.214 -23.276  0.00  0.00    -0.337 OA
ENDROOT
BRANCH   1   2
ATOM      2  C   UNL     1      34.628 -17.036 -24.107  0.00  0.00    +0.246 C 
BRANCH   2   6
ATOM      3  F   UNL     1      36.247 -18.616 -23.465  0.00  0.00    -0.167 F 
ATOM      4  F   UNL     1      34.760 -19.242 -24.933  0.00  0.00    -0.167 F 
ATOM      5  F   UNL     1      34.188 -18.978 -22.840  0.00  0.00    -0.167 F 
ATOM      6  C   UNL     1      34.954 -18.481 -23.835  0.00  0.00    +0.425 C 
ENDBRANCH   2   6
ENDBRANCH   1   2
BRANCH   1   7
ATOM      7  C   UNL     1      34.643 -15.373 -22.446  0.00  0.00    +0.246 C 
BRANCH   7  11
ATOM      8  F   UNL     1      33.280 -16.574 -20.953  0.00  0.00    -0.167 F 
ATOM      9  F   UNL     1      34.648 -15.103 -20.102  0.00  0.00    -0.167 F 
ATOM     10  F   UNL     1      35.422 -16.982 -20.906  0.00  0.00    -0.167 F 
ATOM     11  C   UNL     1      34.502 -16.011 -21.089  0.00  0.00    +0.425 C 
ENDBRANCH   7  11
ENDBRANCH   1   7
TORSDOF 4
ENDMDL
MODEL 3
REMARK VINA RESULT:      -5.3      0.026      1.612
REMARK  Name = 9528
REMARK  4 active torsions:
REMARK  status: ('A' for Active; 'I' for Inactive)
REMARK    1  A    between atoms: O_1  and  C_2
REMARK    2  A    between atoms: O_1  and  C_7
REMARK    3  A    between atoms: C_2  and  C_6
REMARK    4  A    between atoms: C_7  and  C_11
REMARK                            x       y       z     vdW  Elec       q    Type
REMARK                         _______ _______ _______ _____ _____    ______ ____
ROOT
ATOM      1  O   UNL     1      35.427 -16.174 -23.248  0.00  0.00    -0.337 OA
ENDROOT
BRANCH   1   2
ATOM      2  C   UNL     1      34.597 -15.366 -22.428  0.00  0.00    +0.246 C 
BRANCH   2   6
ATOM      3  F   UNL     1      34.613 -15.089 -20.094  0.00  0.00    -0.167 F 
ATOM      4  F   UNL     1      35.410 -16.958 -20.889  0.00  0.00    -0.167 F 
ATOM      5  F   UNL     1      33.257 -16.586 -20.917  0.00  0.00    -0.167 F 
ATOM      6  C   UNL     1      34.467 -16.009 -21.073  0.00  0.00    +0.425 C 
ENDBRANCH   2   6
ENDBRANCH   1   2
BRANCH   1   7
ATOM      7  C   UNL     1      34.661 -16.995 -24.121  0.00  0.00    +0.246 C 
BRANCH   7  11
ATOM      8  F   UNL     1      34.185 -18.898 -22.826  0.00  0.00    -0.167 F 
ATOM      9  F   UNL     1      36.251 -18.608 -23.461  0.00  0.00    -0.167 F 
ATOM     10  F   UNL     1      34.736 -19.217 -24.912  0.00  0.00    -0.167 F 
ATOM     11  C   UNL     1      34.965 -18.442 -23.831  0.00  0.00    +0.425 C 
ENDBRANCH   7  11
ENDBRANCH   1   7
TORSDOF 4
ENDMDL
MODEL 4
REMARK VINA RESULT:      -5.3      0.115      3.771
REMARK  Name = 9528
REMARK  4 active torsions:
REMARK  status: ('A' for Active; 'I' for Inactive)
REMARK    1  A    between atoms: O_1  and  C_2
REMARK    2  A    between atoms: O_1  and  C_7
REMARK    3  A    between atoms: C_2  and  C_6
REMARK    4  A    between atoms: C_7  and  C_11
REMARK                            x       y       z     vdW  Elec       q    Type
REMARK                         _______ _______ _______ _____ _____    ______ ____
ROOT
ATOM      1  O   UNL     1      35.426 -16.151 -23.273  0.00  0.00    -0.337 OA
ENDROOT
BRANCH   1   2
ATOM      2  C   UNL     1      34.702 -16.990 -24.161  0.00  0.00    +0.246 C 
BRANCH   2   6
ATOM      3  F   UNL     1      34.719 -19.232 -24.867  0.00  0.00    -0.167 F 
ATOM      4  F   UNL     1      34.198 -18.839 -22.785  0.00  0.00    -0.167 F 
ATOM      5  F   UNL     1      36.265 -18.612 -23.458  0.00  0.00    -0.167 F 
ATOM      6  C   UNL     1      34.975 -18.429 -23.811  0.00  0.00    +0.425 C 
ENDBRANCH   2   6
ENDBRANCH   1   2
BRANCH   1   7
ATOM      7  C   UNL     1      34.559 -15.312 -22.521  0.00  0.00    +0.246 C 
BRANCH   7  11
ATOM      8  F   UNL     1      35.362 -16.828 -20.912  0.00  0.00    -0.167 F 
ATOM      9  F   UNL     1      33.235 -16.347 -20.865  0.00  0.00    -0.167 F 
ATOM     10  F   UNL     1      34.705 -14.871 -20.207  0.00  0.00    -0.167 F 
ATOM     11  C   UNL     1      34.460 -15.841 -21.113  0.00  0.00    +0.425 C 
ENDBRANCH   7  11
ENDBRANCH   1   7
TORSDOF 4
ENDMDL
MODEL 5
REMARK VINA RESULT:      -5.0      2.104      4.231
REMARK  Name = 9528
REMARK  4 active torsions:
REMARK  status: ('A' for Active; 'I' for Inactive)
REMARK    1  A    between atoms: O_1  and  C_2
REMARK    2  A    between atoms: O_1  and  C_7
REMARK    3  A    between atoms: C_2  and  C_6
REMARK    4  A    between atoms: C_7  and  C_11
REMARK                            x       y       z     vdW  Elec       q    Type
REMARK                         _______ _______ _______ _____ _____    ______ ____
ROOT
ATOM      1  O   UNL     1      34.628 -16.687 -21.720  0.00  0.00    -0.337 OA
ENDROOT
BRANCH   1   2
ATOM      2  C   UNL     1      35.251 -17.818 -21.130  0.00  0.00    +0.246 C 
BRANCH   2   6
ATOM      3  F   UNL     1      33.254 -19.014 -20.793  0.00  0.00    -0.167 F 
ATOM      4  F   UNL     1      35.084 -20.170 -21.065  0.00  0.00    -0.167 F 
ATOM      5  F   UNL     1      34.178 -19.138 -22.765  0.00  0.00    -0.167 F 
ATOM      6  C   UNL     1      34.439 -19.046 -21.444  0.00  0.00    +0.425 C 
ENDBRANCH   2   6
ENDBRANCH   1   2
BRANCH   1   7
ATOM      7  C   UNL     1      34.289 -15.708 -20.746  0.00  0.00    +0.246 C 
BRANCH   7  11
ATOM      8  F   UNL     1      32.546 -14.234 -20.181  0.00  0.00    -0.167 F 
ATOM      9  F   UNL     1      32.028 -16.332 -20.482  0.00  0.00    -0.167 F 
ATOM     10  F   UNL     1      32.537 -15.073 -22.194  0.00  0.00    -0.167 F 
ATOM     11  C   UNL     1      32.836 -15.338 -20.905  0.00  0.00    +0.425 C 
ENDBRANCH   7  11
ENDBRANCH   1   7
TORSDOF 4
ENDMDL
MODEL 6
REMARK VINA RESULT:      -5.0      3.321      4.404
REMARK  Name = 9528
REMARK  4 active torsions:
REMARK  status: ('A' for Active; 'I' for Inactive)
REMARK    1  A    between atoms: O_1  and  C_2
REMARK    2  A    between atoms: O_1  and  C_7
REMARK    3  A    between atoms: C_2  and  C_6
REMARK    4  A    between atoms: C_7  and  C_11
REMARK                            x       y       z     vdW  Elec       q    Type
REMARK                         _______ _______ _______ _____ _____    ______ ____
ROOT
ATOM      1  O   UNL     1      35.951 -18.699 -20.661  0.00  0.00    -0.337 OA
ENDROOT
BRANCH   1   2
ATOM      2  C   UNL     1      36.041 -18.306 -22.022  0.00  0.00    +0.246 C 
BRANCH   2   6
ATOM      3  F   UNL     1      33.796 -18.989 -21.875  0.00  0.00    -0.167 F 
ATOM      4  F   UNL     1      35.024 -19.904 -23.429  0.00  0.00    -0.167 F 
ATOM      5  F   UNL     1      34.379 -17.825 -23.625  0.00  0.00    -0.167 F 
ATOM      6  C   UNL     1      34.803 -18.759 -22.748  0.00  0.00    +0.425 C 
ENDBRANCH   2   6
ENDBRANCH   1   2
BRANCH   1   7
ATOM      7  C   UNL     1      36.832 -19.775 -20.367  0.00  0.00    +0.246 C 
BRANCH   7  11
ATOM      8  F   UNL     1      36.162 -22.019 -20.585  0.00  0.00    -0.167 F 
ATOM      9  F   UNL     1      34.724 -20.620 -19.727  0.00  0.00    -0.167 F 
ATOM     10  F   UNL     1      36.463 -21.253 -18.565  0.00  0.00    -0.167 F 
ATOM     11  C   UNL     1      36.036 -20.924 -19.802  0.00  0.00    +0.425 C 
ENDBRANCH   7  11
ENDBRANCH   1   7
TORSDOF 4
ENDMDL
MODEL 7
REMARK VINA RESULT:      -5.0      2.036      2.750
REMARK  Name = 9528
REMARK  4 active torsions:
REMARK  status: ('A' for Active; 'I' for Inactive)
REMARK    1  A    between atoms: O_1  and  C_2
REMARK    2  A    between atoms: O_1  and  C_7
REMARK    3  A    between atoms: C_2  and  C_6
REMARK    4  A    between atoms: C_7  and  C_11
REMARK                            x       y       z     vdW  Elec       q    Type
REMARK                         _______ _______ _______ _____ _____    ______ ____
ROOT
ATOM      1  O   UNL     1      34.692 -16.271 -20.572  0.00  0.00    -0.337 OA
ENDROOT
BRANCH   1   2
ATOM      2  C   UNL     1      34.354 -14.940 -20.932  0.00  0.00    +0.246 C 
BRANCH   2   6
ATOM      3  F   UNL     1      32.350 -14.774 -22.151  0.00  0.00    -0.167 F 
ATOM      4  F   UNL     1      32.495 -13.632 -20.298  0.00  0.00    -0.167 F 
ATOM      5  F   UNL     1      32.273 -15.804 -20.229  0.00  0.00    -0.167 F 
ATOM      6  C   UNL     1      32.856 -14.786 -20.897  0.00  0.00    +0.425 C 
ENDBRANCH   2   6
ENDBRANCH   1   2
BRANCH   1   7
ATOM      7  C   UNL     1      35.021 -17.054 -21.712  0.00  0.00    +0.246 C 
BRANCH   7  11
ATOM      8  F   UNL     1      33.341 -18.484 -20.899  0.00  0.00    -0.167 F 
ATOM      9  F   UNL     1      35.410 -19.144 -20.688  0.00  0.00    -0.167 F 
ATOM     10  F   UNL     1      34.456 -19.142 -22.654  0.00  0.00    -0.167 F 
ATOM     11  C   UNL     1      34.558 -18.470 -21.488  0.00  0.00    +0.425 C 
ENDBRANCH   7  11
ENDBRANCH   1   7
TORSDOF 4
ENDMDL
MODEL 8
REMARK VINA RESULT:      -5.0      3.301      4.046
REMARK  Name = 9528
REMARK  4 active torsions:
REMARK  status: ('A' for Active; 'I' for Inactive)
REMARK    1  A    between atoms: O_1  and  C_2
REMARK    2  A    between atoms: O_1  and  C_7
REMARK    3  A    between atoms: C_2  and  C_6
REMARK    4  A    between atoms: C_7  and  C_11
REMARK                            x       y       z     vdW  Elec       q    Type
REMARK                         _______ _______ _______ _____ _____    ______ ____
ROOT
ATOM      1  O   UNL     1      35.908 -18.683 -20.673  0.00  0.00    -0.337 OA
ENDROOT
BRANCH   1   2
ATOM      2  C   UNL     1      36.794 -19.758 -20.402  0.00  0.00    +0.246 C 
BRANCH   2   6
ATOM      3  F   UNL     1      36.111 -22.000 -20.590  0.00  0.00    -0.167 F 
ATOM      4  F   UNL     1      34.705 -20.594 -19.691  0.00  0.00    -0.167 F 
ATOM      5  F   UNL     1      36.478 -21.228 -18.583  0.00  0.00    -0.167 F 
ATOM      6  C   UNL     1      36.015 -20.901 -19.808  0.00  0.00    +0.425 C 
ENDBRANCH   2   6
ENDBRANCH   1   2
BRANCH   1   7
ATOM      7  C   UNL     1      35.993 -18.264 -22.029  0.00  0.00    +0.246 C 
BRANCH   7  11
ATOM      8  F   UNL     1      35.086 -19.882 -23.474  0.00  0.00    -0.167 F 
ATOM      9  F   UNL     1      34.332 -17.842 -23.651  0.00  0.00    -0.167 F 
ATOM     10  F   UNL     1      33.777 -19.069 -21.930  0.00  0.00    -0.167 F 
ATOM     11  C   UNL     1      34.784 -18.764 -22.776  0.00  0.00    +0.425 C 
ENDBRANCH   7  11
ENDBRANCH   1   7
TORSDOF 4
ENDMDL
MODEL 9
REMARK VINA RESULT:      -5.0      2.049      3.002
REMARK  Name = 9528
REMARK  4 active torsions:
REMARK  status: ('A' for Active; 'I' for Inactive)
REMARK    1  A    between atoms: O_1  and  C_2
REMARK    2  A    between atoms: O_1  and  C_7
REMARK    3  A    between atoms: C_2  and  C_6
REMARK    4  A    between atoms: C_7  and  C_11
REMARK                            x       y       z     vdW  Elec       q    Type
REMARK                         _______ _______ _______ _____ _____    ______ ____
ROOT
ATOM      1  O   UNL     1      35.412 -16.208 -23.121  0.00  0.00    -0.337 OA
ENDROOT
BRANCH   1   2
ATOM      2  C   UNL     1      35.126 -16.981 -21.965  0.00  0.00    +0.246 C 
BRANCH   2   6
ATOM      3  F   UNL     1      36.310 -18.474 -23.342  0.00  0.00    -0.167 F 
ATOM      4  F   UNL     1      34.692 -19.294 -22.129  0.00  0.00    -0.167 F 
ATOM      5  F   UNL     1      36.565 -18.680 -21.186  0.00  0.00    -0.167 F 
ATOM      6  C   UNL     1      35.676 -18.370 -22.153  0.00  0.00    +0.425 C 
ENDBRANCH   2   6
ENDBRANCH   1   2
BRANCH   1   7
ATOM      7  C   UNL     1      34.226 -15.856 -23.822  0.00  0.00    +0.246 C 
BRANCH   7  11
ATOM      8  F   UNL     1      33.812 -17.908 -24.893  0.00  0.00    -0.167 F 
ATOM      9  F   UNL     1      35.372 -16.635 -25.731  0.00  0.00    -0.167 F 
ATOM     10  F   UNL     1      33.270 -16.088 -25.967  0.00  0.00    -0.167 F 
ATOM     11  C   UNL     1      34.171 -16.624 -25.117  0.00  0.00    +0.425 C 
ENDBRANCH   7  11
ENDBRANCH   1   7
TORSDOF 4
ENDMDL
