MODEL 1
REMARK VINA RESULT:      -7.3      0.000      0.000
REMARK  Name = 441476
REMARK  6 active torsions:
REMARK  status: ('A' for Active; 'I' for Inactive)
REMARK    1  A    between atoms: C_2  and  O_7
REMARK    2  A    between atoms: C_3  and  O_9
REMARK    3  A    between atoms: C_4  and  O_11
REMARK    4  A    between atoms: C_5  and  C_16
REMARK    5  A    between atoms: C_6  and  O_13
REMARK    6  A    between atoms: C_16  and  O_17
REMARK                            x       y       z     vdW  Elec       q    Type
REMARK                         _______ _______ _______ _____ _____    ______ ____
ROOT
ATOM      1  O   UNL     1      38.996 -24.442 -13.116  0.00  0.00    -0.317 OA
ATOM      2  C   UNL     1      36.691 -25.970 -13.893  0.00  0.00    +0.172 C 
ATOM      3  C   UNL     1      37.871 -25.729 -14.836  0.00  0.00    +0.178 C 
ATOM      4  C   UNL     1      36.606 -24.866 -12.833  0.00  0.00    +0.196 C 
ATOM      5  C   UNL     1      39.140 -25.540 -14.010  0.00  0.00    +0.245 C 
ATOM      6  C   UNL     1      37.963 -24.653 -12.153  0.00  0.00    +0.263 C 
ENDROOT
BRANCH   2   7
ATOM      7  O   UNL     1      35.491 -26.019 -14.658  0.00  0.00    -0.379 OA
ATOM      8  H   UNL     1      35.264 -26.942 -14.847  0.00  0.00    +0.211 HD
ENDBRANCH   2   7
BRANCH   3   9
ATOM      9  O   UNL     1      37.633 -24.540 -15.596  0.00  0.00    -0.379 OA
ATOM     10  H   UNL     1      38.467 -24.230 -15.980  0.00  0.00    +0.211 HD
ENDBRANCH   3   9
BRANCH   4  11
ATOM     11  O   UNL     1      35.660 -25.242 -11.832  0.00  0.00    -0.378 OA
ATOM     12  H   UNL     1      34.765 -25.024 -12.135  0.00  0.00    +0.211 HD
ENDBRANCH   4  11
BRANCH   6  13
ATOM     13  O   UNL     1      37.852 -23.510 -11.306  0.00  0.00    -0.358 OA
ATOM     14  H   UNL     1      36.915 -23.310 -11.153  0.00  0.00    +0.213 HD
ENDBRANCH   6  13
BRANCH   5  16
ATOM     15  O   UNL     1      41.197 -24.422 -14.596  0.00  0.00    -0.247 OA
ATOM     16  C   UNL     1      40.313 -25.217 -14.879  0.00  0.00    +0.344 C 
BRANCH  16  17
ATOM     17  O   UNL     1      40.265 -25.926 -16.032  0.00  0.00    -0.478 OA
ATOM     18  H   UNL     1      40.584 -26.808 -16.053  0.00  0.00    +0.295 HD
ENDBRANCH  16  17
ENDBRANCH   5  16
TORSDOF 6
ENDMDL
MODEL 2
REMARK VINA RESULT:      -6.9      1.592      2.415
REMARK  Name = 441476
REMARK  6 active torsions:
REMARK  status: ('A' for Active; 'I' for Inactive)
REMARK    1  A    between atoms: C_2  and  O_7
REMARK    2  A    between atoms: C_3  and  O_9
REMARK    3  A    between atoms: C_4  and  O_11
REMARK    4  A    between atoms: C_5  and  C_16
REMARK    5  A    between atoms: C_6  and  O_13
REMARK    6  A    between atoms: C_16  and  O_17
REMARK                            x       y       z     vdW  Elec       q    Type
REMARK                         _______ _______ _______ _____ _____    ______ ____
ROOT
ATOM      1  O   UNL     1      38.445 -24.637 -15.247  0.00  0.00    -0.317 OA
ATOM      2  C   UNL     1      37.309 -24.859 -12.618  0.00  0.00    +0.172 C 
ATOM      3  C   UNL     1      38.436 -25.772 -13.103  0.00  0.00    +0.178 C 
ATOM      4  C   UNL     1      36.501 -24.314 -13.800  0.00  0.00    +0.196 C 
ATOM      5  C   UNL     1      39.263 -25.030 -14.150  0.00  0.00    +0.245 C 
ATOM      6  C   UNL     1      37.426 -23.713 -14.865  0.00  0.00    +0.263 C 
ENDROOT
BRANCH   2   7
ATOM      7  O   UNL     1      36.465 -25.596 -11.738  0.00  0.00    -0.379 OA
ATOM      8  H   UNL     1      37.000 -25.990 -11.031  0.00  0.00    +0.211 HD
ENDBRANCH   2   7
BRANCH   3   9
ATOM      9  O   UNL     1      37.872 -26.942 -13.703  0.00  0.00    -0.379 OA
ATOM     10  H   UNL     1      37.789 -26.806 -14.659  0.00  0.00    +0.211 HD
ENDBRANCH   3   9
BRANCH   4  11
ATOM     11  O   UNL     1      35.623 -23.286 -13.342  0.00  0.00    -0.378 OA
ATOM     12  H   UNL     1      36.075 -22.429 -13.391  0.00  0.00    +0.211 HD
ENDBRANCH   4  11
BRANCH   6  13
ATOM     13  O   UNL     1      36.628 -23.379 -16.000  0.00  0.00    -0.358 OA
ATOM     14  H   UNL     1      35.752 -23.085 -15.704  0.00  0.00    +0.213 HD
ENDBRANCH   6  13
BRANCH   5  16
ATOM     15  O   UNL     1      41.093 -26.601 -14.067  0.00  0.00    -0.247 OA
ATOM     16  C   UNL     1      40.331 -25.906 -14.722  0.00  0.00    +0.344 C 
BRANCH  16  17
ATOM     17  O   UNL     1      40.344 -25.825 -16.075  0.00  0.00    -0.478 OA
ATOM     18  H   UNL     1      40.557 -26.580 -16.587  0.00  0.00    +0.295 HD
ENDBRANCH  16  17
ENDBRANCH   5  16
TORSDOF 6
ENDMDL
MODEL 3
REMARK VINA RESULT:      -6.8      1.349      4.543
REMARK  Name = 441476
REMARK  6 active torsions:
REMARK  status: ('A' for Active; 'I' for Inactive)
REMARK    1  A    between atoms: C_2  and  O_7
REMARK    2  A    between atoms: C_3  and  O_9
REMARK    3  A    between atoms: C_4  and  O_11
REMARK    4  A    between atoms: C_5  and  C_16
REMARK    5  A    between atoms: C_6  and  O_13
REMARK    6  A    between atoms: C_16  and  O_17
REMARK                            x       y       z     vdW  Elec       q    Type
REMARK                         _______ _______ _______ _____ _____    ______ ____
ROOT
ATOM      1  O   UNL     1      35.965 -25.004 -13.372  0.00  0.00    -0.317 OA
ATOM      2  C   UNL     1      38.828 -25.242 -13.343  0.00  0.00    +0.172 C 
ATOM      3  C   UNL     1      38.060 -24.458 -12.278  0.00  0.00    +0.178 C 
ATOM      4  C   UNL     1      38.026 -25.319 -14.647  0.00  0.00    +0.196 C 
ATOM      5  C   UNL     1      36.662 -25.052 -12.131  0.00  0.00    +0.245 C 
ATOM      6  C   UNL     1      36.593 -25.793 -14.382  0.00  0.00    +0.263 C 
ENDROOT
BRANCH   2   7
ATOM      7  O   UNL     1      40.083 -24.608 -13.568  0.00  0.00    -0.379 OA
ATOM      8  H   UNL     1      39.968 -23.645 -13.542  0.00  0.00    +0.211 HD
ENDBRANCH   2   7
BRANCH   3   9
ATOM      9  O   UNL     1      37.941 -23.093 -12.689  0.00  0.00    -0.379 OA
ATOM     10  H   UNL     1      38.659 -22.877 -13.303  0.00  0.00    +0.211 HD
ENDBRANCH   3   9
BRANCH   4  11
ATOM     11  O   UNL     1      38.647 -26.252 -15.531  0.00  0.00    -0.378 OA
ATOM     12  H   UNL     1      39.561 -26.408 -15.246  0.00  0.00    +0.211 HD
ENDBRANCH   4  11
BRANCH   6  13
ATOM     13  O   UNL     1      35.863 -25.682 -15.603  0.00  0.00    -0.358 OA
ATOM     14  H   UNL     1      36.457 -25.852 -16.352  0.00  0.00    +0.213 HD
ENDBRANCH   6  13
BRANCH   5  16
ATOM     15  O   UNL     1      36.002 -24.257  -9.950  0.00  0.00    -0.247 OA
ATOM     16  C   UNL     1      35.836 -24.271 -11.161  0.00  0.00    +0.344 C 
BRANCH  16  17
ATOM     17  O   UNL     1      34.868 -23.575 -11.806  0.00  0.00    -0.478 OA
ATOM     18  H   UNL     1      35.103 -22.935 -12.450  0.00  0.00    +0.295 HD
ENDBRANCH  16  17
ENDBRANCH   5  16
TORSDOF 6
ENDMDL
MODEL 4
REMARK VINA RESULT:      -6.8      1.675      3.920
REMARK  Name = 441476
REMARK  6 active torsions:
REMARK  status: ('A' for Active; 'I' for Inactive)
REMARK    1  A    between atoms: C_2  and  O_7
REMARK    2  A    between atoms: C_3  and  O_9
REMARK    3  A    between atoms: C_4  and  O_11
REMARK    4  A    between atoms: C_5  and  C_16
REMARK    5  A    between atoms: C_6  and  O_13
REMARK    6  A    between atoms: C_16  and  O_17
REMARK                            x       y       z     vdW  Elec       q    Type
REMARK                         _______ _______ _______ _____ _____    ______ ____
ROOT
ATOM      1  O   UNL     1      36.351 -24.176 -13.703  0.00  0.00    -0.317 OA
ATOM      2  C   UNL     1      38.063 -26.447 -14.106  0.00  0.00    +0.172 C 
ATOM      3  C   UNL     1      38.367 -25.365 -13.068  0.00  0.00    +0.178 C 
ATOM      4  C   UNL     1      37.185 -25.891 -15.232  0.00  0.00    +0.196 C 
ATOM      5  C   UNL     1      37.056 -24.738 -12.601  0.00  0.00    +0.245 C 
ATOM      6  C   UNL     1      35.964 -25.158 -14.663  0.00  0.00    +0.263 C 
ENDROOT
BRANCH   2   7
ATOM      7  O   UNL     1      39.292 -26.939 -14.631  0.00  0.00    -0.379 OA
ATOM      8  H   UNL     1      39.782 -27.398 -13.932  0.00  0.00    +0.211 HD
ENDBRANCH   2   7
BRANCH   3   9
ATOM      9  O   UNL     1      39.177 -24.349 -13.667  0.00  0.00    -0.379 OA
ATOM     10  H   UNL     1      39.932 -24.157 -13.090  0.00  0.00    +0.211 HD
ENDBRANCH   3   9
BRANCH   4  11
ATOM     11  O   UNL     1      36.720 -26.967 -16.046  0.00  0.00    -0.378 OA
ATOM     12  H   UNL     1      36.531 -27.737 -15.486  0.00  0.00    +0.211 HD
ENDBRANCH   4  11
BRANCH   6  13
ATOM     13  O   UNL     1      35.286 -24.530 -15.751  0.00  0.00    -0.358 OA
ATOM     14  H   UNL     1      34.990 -25.205 -16.381  0.00  0.00    +0.213 HD
ENDBRANCH   6  13
BRANCH   5  16
ATOM     15  O   UNL     1      37.932 -22.602 -11.901  0.00  0.00    -0.247 OA
ATOM     16  C   UNL     1      37.297 -23.614 -11.646  0.00  0.00    +0.344 C 
BRANCH  16  17
ATOM     17  O   UNL     1      36.716 -23.870 -10.449  0.00  0.00    -0.478 OA
ATOM     18  H   UNL     1      36.507 -24.751 -10.209  0.00  0.00    +0.295 HD
ENDBRANCH  16  17
ENDBRANCH   5  16
TORSDOF 6
ENDMDL
MODEL 5
REMARK VINA RESULT:      -6.6      2.318      2.839
REMARK  Name = 441476
REMARK  6 active torsions:
REMARK  status: ('A' for Active; 'I' for Inactive)
REMARK    1  A    between atoms: C_2  and  O_7
REMARK    2  A    between atoms: C_3  and  O_9
REMARK    3  A    between atoms: C_4  and  O_11
REMARK    4  A    between atoms: C_5  and  C_16
REMARK    5  A    between atoms: C_6  and  O_13
REMARK    6  A    between atoms: C_16  and  O_17
REMARK                            x       y       z     vdW  Elec       q    Type
REMARK                         _______ _______ _______ _____ _____    ______ ____
ROOT
ATOM      1  O   UNL     1      37.406 -23.107 -13.367  0.00  0.00    -0.317 OA
ATOM      2  C   UNL     1      35.032 -24.660 -12.918  0.00  0.00    +0.172 C 
ATOM      3  C   UNL     1      35.400 -24.103 -14.294  0.00  0.00    +0.178 C 
ATOM      4  C   UNL     1      35.669 -23.822 -11.804  0.00  0.00    +0.196 C 
ATOM      5  C   UNL     1      36.917 -23.968 -14.390  0.00  0.00    +0.245 C 
ATOM      6  C   UNL     1      37.168 -23.622 -12.057  0.00  0.00    +0.263 C 
ENDROOT
BRANCH   2   7
ATOM      7  O   UNL     1      33.614 -24.665 -12.787  0.00  0.00    -0.379 OA
ATOM      8  H   UNL     1      33.357 -24.116 -12.029  0.00  0.00    +0.211 HD
ENDBRANCH   2   7
BRANCH   3   9
ATOM      9  O   UNL     1      34.809 -22.810 -14.455  0.00  0.00    -0.379 OA
ATOM     10  H   UNL     1      35.350 -22.281 -15.061  0.00  0.00    +0.211 HD
ENDBRANCH   3   9
BRANCH   4  11
ATOM     11  O   UNL     1      35.515 -24.498 -10.556  0.00  0.00    -0.378 OA
ATOM     12  H   UNL     1      34.649 -24.282 -10.176  0.00  0.00    +0.211 HD
ENDBRANCH   4  11
BRANCH   6  13
ATOM     13  O   UNL     1      37.658 -22.705 -11.081  0.00  0.00    -0.358 OA
ATOM     14  H   UNL     1      38.049 -21.936 -11.526  0.00  0.00    +0.213 HD
ENDBRANCH   6  13
BRANCH   5  16
ATOM     15  O   UNL     1      36.564 -22.867 -16.508  0.00  0.00    -0.247 OA
ATOM     16  C   UNL     1      37.329 -23.348 -15.686  0.00  0.00    +0.344 C 
BRANCH  16  17
ATOM     17  O   UNL     1      38.676 -23.393 -15.831  0.00  0.00    -0.478 OA
ATOM     18  H   UNL     1      39.082 -22.967 -16.560  0.00  0.00    +0.295 HD
ENDBRANCH  16  17
ENDBRANCH   5  16
TORSDOF 6
ENDMDL
MODEL 6
REMARK VINA RESULT:      -6.5      1.969      2.748
REMARK  Name = 441476
REMARK  6 active torsions:
REMARK  status: ('A' for Active; 'I' for Inactive)
REMARK    1  A    between atoms: C_2  and  O_7
REMARK    2  A    between atoms: C_3  and  O_9
REMARK    3  A    between atoms: C_4  and  O_11
REMARK    4  A    between atoms: C_5  and  C_16
REMARK    5  A    between atoms: C_6  and  O_13
REMARK    6  A    between atoms: C_16  and  O_17
REMARK                            x       y       z     vdW  Elec       q    Type
REMARK                         _______ _______ _______ _____ _____    ______ ____
ROOT
ATOM      1  O   UNL     1      38.215 -24.988 -13.015  0.00  0.00    -0.317 OA
ATOM      2  C   UNL     1      35.636 -24.295 -11.957  0.00  0.00    +0.172 C 
ATOM      3  C   UNL     1      35.804 -25.141 -13.220  0.00  0.00    +0.178 C 
ATOM      4  C   UNL     1      36.865 -23.409 -11.728  0.00  0.00    +0.196 C 
ATOM      5  C   UNL     1      37.127 -25.898 -13.143  0.00  0.00    +0.245 C 
ATOM      6  C   UNL     1      38.156 -24.232 -11.806  0.00  0.00    +0.263 C 
ENDROOT
BRANCH   2   7
ATOM      7  O   UNL     1      34.465 -23.495 -12.090  0.00  0.00    -0.379 OA
ATOM      8  H   UNL     1      33.679 -24.050 -11.970  0.00  0.00    +0.211 HD
ENDBRANCH   2   7
BRANCH   3   9
ATOM      9  O   UNL     1      35.827 -24.283 -14.365  0.00  0.00    -0.379 OA
ATOM     10  H   UNL     1      36.073 -23.387 -14.091  0.00  0.00    +0.211 HD
ENDBRANCH   3   9
BRANCH   4  11
ATOM     11  O   UNL     1      36.790 -22.820 -10.430  0.00  0.00    -0.378 OA
ATOM     12  H   UNL     1      36.105 -23.269  -9.911  0.00  0.00    +0.211 HD
ENDBRANCH   4  11
BRANCH   6  13
ATOM     13  O   UNL     1      39.257 -23.325 -11.750  0.00  0.00    -0.358 OA
ATOM     14  H   UNL     1      39.901 -23.555 -12.438  0.00  0.00    +0.213 HD
ENDBRANCH   6  13
BRANCH   5  16
ATOM     15  O   UNL     1      38.489 -26.980 -14.815  0.00  0.00    -0.247 OA
ATOM     16  C   UNL     1      37.383 -26.678 -14.391  0.00  0.00    +0.344 C 
BRANCH  16  17
ATOM     17  O   UNL     1      36.217 -27.009 -14.997  0.00  0.00    -0.478 OA
ATOM     18  H   UNL     1      35.440 -27.127 -14.485  0.00  0.00    +0.295 HD
ENDBRANCH  16  17
ENDBRANCH   5  16
TORSDOF 6
ENDMDL
MODEL 7
REMARK VINA RESULT:      -6.5      1.352      1.582
REMARK  Name = 441476
REMARK  6 active torsions:
REMARK  status: ('A' for Active; 'I' for Inactive)
REMARK    1  A    between atoms: C_2  and  O_7
REMARK    2  A    between atoms: C_3  and  O_9
REMARK    3  A    between atoms: C_4  and  O_11
REMARK    4  A    between atoms: C_5  and  C_16
REMARK    5  A    between atoms: C_6  and  O_13
REMARK    6  A    between atoms: C_16  and  O_17
REMARK                            x       y       z     vdW  Elec       q    Type
REMARK                         _______ _______ _______ _____ _____    ______ ____
ROOT
ATOM      1  O   UNL     1      38.222 -25.499 -13.231  0.00  0.00    -0.317 OA
ATOM      2  C   UNL     1      36.178 -24.548 -15.010  0.00  0.00    +0.172 C 
ATOM      3  C   UNL     1      37.668 -24.393 -15.316  0.00  0.00    +0.178 C 
ATOM      4  C   UNL     1      35.941 -24.666 -13.501  0.00  0.00    +0.196 C 
ATOM      5  C   UNL     1      38.438 -25.522 -14.638  0.00  0.00    +0.245 C 
ATOM      6  C   UNL     1      36.857 -25.729 -12.883  0.00  0.00    +0.263 C 
ENDROOT
BRANCH   2   7
ATOM      7  O   UNL     1      35.479 -23.424 -15.536  0.00  0.00    -0.379 OA
ATOM      8  H   UNL     1      34.547 -23.469 -15.271  0.00  0.00    +0.211 HD
ENDBRANCH   2   7
BRANCH   3   9
ATOM      9  O   UNL     1      38.130 -23.142 -14.797  0.00  0.00    -0.379 OA
ATOM     10  H   UNL     1      38.855 -22.812 -15.348  0.00  0.00    +0.211 HD
ENDBRANCH   3   9
BRANCH   4  11
ATOM     11  O   UNL     1      34.587 -25.052 -13.262  0.00  0.00    -0.378 OA
ATOM     12  H   UNL     1      34.020 -24.265 -13.276  0.00  0.00    +0.211 HD
ENDBRANCH   4  11
BRANCH   6  13
ATOM     13  O   UNL     1      36.703 -25.669 -11.466  0.00  0.00    -0.358 OA
ATOM     14  H   UNL     1      35.941 -26.208 -11.200  0.00  0.00    +0.213 HD
ENDBRANCH   6  13
BRANCH   5  16
ATOM     15  O   UNL     1      40.671 -24.819 -14.052  0.00  0.00    -0.247 OA
ATOM     16  C   UNL     1      39.912 -25.373 -14.834  0.00  0.00    +0.344 C 
BRANCH  16  17
ATOM     17  O   UNL     1      40.300 -25.935 -16.005  0.00  0.00    -0.478 OA
ATOM     18  H   UNL     1      40.817 -26.717 -16.000  0.00  0.00    +0.295 HD
ENDBRANCH  16  17
ENDBRANCH   5  16
TORSDOF 6
ENDMDL
MODEL 8
REMARK VINA RESULT:      -6.5      1.709      3.803
REMARK  Name = 441476
REMARK  6 active torsions:
REMARK  status: ('A' for Active; 'I' for Inactive)
REMARK    1  A    between atoms: C_2  and  O_7
REMARK    2  A    between atoms: C_3  and  O_9
REMARK    3  A    between atoms: C_4  and  O_11
REMARK    4  A    between atoms: C_5  and  C_16
REMARK    5  A    between atoms: C_6  and  O_13
REMARK    6  A    between atoms: C_16  and  O_17
REMARK                            x       y       z     vdW  Elec       q    Type
REMARK                         _______ _______ _______ _____ _____    ______ ____
ROOT
ATOM      1  O   UNL     1      38.338 -23.732 -13.716  0.00  0.00    -0.317 OA
ATOM      2  C   UNL     1      36.801 -26.158 -13.677  0.00  0.00    +0.172 C 
ATOM      3  C   UNL     1      37.075 -25.340 -12.414  0.00  0.00    +0.178 C 
ATOM      4  C   UNL     1      37.882 -25.906 -14.734  0.00  0.00    +0.196 C 
ATOM      5  C   UNL     1      37.260 -23.875 -12.797  0.00  0.00    +0.245 C 
ATOM      6  C   UNL     1      38.096 -24.404 -14.952  0.00  0.00    +0.263 C 
ENDROOT
BRANCH   2   7
ATOM      7  O   UNL     1      36.755 -27.539 -13.332  0.00  0.00    -0.379 OA
ATOM      8  H   UNL     1      37.476 -28.008 -13.780  0.00  0.00    +0.211 HD
ENDBRANCH   2   7
BRANCH   3   9
ATOM      9  O   UNL     1      38.276 -25.812 -11.796  0.00  0.00    -0.379 OA
ATOM     10  H   UNL     1      38.079 -26.600 -11.268  0.00  0.00    +0.211 HD
ENDBRANCH   3   9
BRANCH   4  11
ATOM     11  O   UNL     1      37.475 -26.483 -15.975  0.00  0.00    -0.378 OA
ATOM     12  H   UNL     1      36.697 -27.044 -15.831  0.00  0.00    +0.211 HD
ENDBRANCH   4  11
BRANCH   6  13
ATOM     13  O   UNL     1      39.220 -24.244 -15.817  0.00  0.00    -0.358 OA
ATOM     14  H   UNL     1      39.982 -23.933 -15.303  0.00  0.00    +0.213 HD
ENDBRANCH   6  13
BRANCH   5  16
ATOM     15  O   UNL     1      36.827 -22.675 -10.749  0.00  0.00    -0.247 OA
ATOM     16  C   UNL     1      37.614 -23.040 -11.609  0.00  0.00    +0.344 C 
BRANCH  16  17
ATOM     17  O   UNL     1      38.936 -22.737 -11.613  0.00  0.00    -0.478 OA
ATOM     18  H   UNL     1      39.476 -23.011 -12.328  0.00  0.00    +0.295 HD
ENDBRANCH  16  17
ENDBRANCH   5  16
TORSDOF 6
ENDMDL
MODEL 9
REMARK VINA RESULT:      -6.4      7.389      9.590
REMARK  Name = 441476
REMARK  6 active torsions:
REMARK  status: ('A' for Active; 'I' for Inactive)
REMARK    1  A    between atoms: C_2  and  O_7
REMARK    2  A    between atoms: C_3  and  O_9
REMARK    3  A    between atoms: C_4  and  O_11
REMARK    4  A    between atoms: C_5  and  C_16
REMARK    5  A    between atoms: C_6  and  O_13
REMARK    6  A    between atoms: C_16  and  O_17
REMARK                            x       y       z     vdW  Elec       q    Type
REMARK                         _______ _______ _______ _____ _____    ______ ____
ROOT
ATOM      1  O   UNL     1      28.741 -24.583 -15.780  0.00  0.00    -0.317 OA
ATOM      2  C   UNL     1      30.624 -22.999 -14.297  0.00  0.00    +0.172 C 
ATOM      3  C   UNL     1      29.915 -22.473 -15.546  0.00  0.00    +0.178 C 
ATOM      4  C   UNL     1      30.697 -24.530 -14.316  0.00  0.00    +0.196 C 
ATOM      5  C   UNL     1      28.566 -23.173 -15.686  0.00  0.00    +0.245 C 
ATOM      6  C   UNL     1      29.321 -25.141 -14.601  0.00  0.00    +0.263 C 
ENDROOT
BRANCH   2   7
ATOM      7  O   UNL     1      31.932 -22.440 -14.240  0.00  0.00    -0.379 OA
ATOM      8  H   UNL     1      32.590 -23.140 -14.376  0.00  0.00    +0.211 HD
ENDBRANCH   2   7
BRANCH   3   9
ATOM      9  O   UNL     1      30.709 -22.766 -16.699  0.00  0.00    -0.379 OA
ATOM     10  H   UNL     1      30.737 -23.724 -16.838  0.00  0.00    +0.211 HD
ENDBRANCH   3   9
BRANCH   4  11
ATOM     11  O   UNL     1      31.137 -24.999 -13.041  0.00  0.00    -0.378 OA
ATOM     12  H   UNL     1      32.011 -24.626 -12.844  0.00  0.00    +0.211 HD
ENDBRANCH   4  11
BRANCH   6  13
ATOM     13  O   UNL     1      29.493 -26.548 -14.767  0.00  0.00    -0.358 OA
ATOM     14  H   UNL     1      30.404 -26.792 -14.538  0.00  0.00    +0.213 HD
ENDBRANCH   6  13
BRANCH   5  16
ATOM     15  O   UNL     1      27.601 -21.605 -17.246  0.00  0.00    -0.247 OA
ATOM     16  C   UNL     1      27.864 -22.758 -16.939  0.00  0.00    +0.344 C 
BRANCH  16  17
ATOM     17  O   UNL     1      27.553 -23.839 -17.694  0.00  0.00    -0.478 OA
ATOM     18  H   UNL     1      27.203 -23.723 -18.556  0.00  0.00    +0.295 HD
ENDBRANCH  16  17
ENDBRANCH   5  16
TORSDOF 6
ENDMDL
