MODEL 1
REMARK VINA RESULT:      -9.4      0.000      0.000
REMARK  Name = 446620
REMARK  8 active torsions:
REMARK  status: ('A' for Active; 'I' for Inactive)
REMARK    1  A    between atoms: N_2  and  CA_16
REMARK    2  A    between atoms: C_3  and  C_5
REMARK    3  A    between atoms: C_5  and  C_7
REMARK    4  A    between atoms: CA_16  and  C_18
REMARK    5  A    between atoms: CA_16  and  CB_21
REMARK    6  A    between atoms: C_18  and  O_19
REMARK    7  A    between atoms: CB_21  and  CG_23
REMARK    8  A    between atoms: CG_23  and  OD1_24
REMARK                            x       y       z     vdW  Elec       q    Type
REMARK                         _______ _______ _______ _____ _____    ______ ____
ROOT
ATOM      1  O   UNL     1      37.552 -22.855 -13.971  0.00  0.00    -0.275 OA
ATOM      2  N   UNL     1      38.539 -24.403 -15.393  0.00  0.00    -0.296 N 
ATOM      3  C   ACE A   0      37.878 -23.221 -15.099  0.00  0.00    +0.227 C 
ATOM      4  H   UNL     1      38.754 -24.603 -16.333  0.00  0.00    +0.150 HD
ENDROOT
BRANCH   3   5
ATOM      5  C   UNL     1      37.607 -22.357 -16.326  0.00  0.00    +0.113 C 
BRANCH   5   7
ATOM      6  N   UNL     1      34.081 -23.156 -16.831  0.00  0.00    -0.312 N 
ATOM      7  C   UNL     1      36.210 -22.531 -16.770  0.00  0.00    +0.003 C 
ATOM      8  C   UNL     1      35.630 -22.017 -17.964  0.00  0.00    +0.011 C 
ATOM      9  C   UNL     1      34.294 -22.423 -17.977  0.00  0.00    +0.048 C 
ATOM     10  C   UNL     1      35.233 -23.226 -16.095  0.00  0.00    +0.058 C 
ATOM     11  C   UNL     1      36.115 -21.243 -19.036  0.00  0.00    +0.001 C 
ATOM     12  C   UNL     1      33.415 -22.093 -19.015  0.00  0.00    +0.015 C 
ATOM     13  C   UNL     1      35.247 -20.905 -20.082  0.00  0.00    +0.000 C 
ATOM     14  C   UNL     1      33.918 -21.324 -20.069  0.00  0.00    +0.001 C 
ATOM     15  H   UNL     1      33.224 -23.568 -16.578  0.00  0.00    +0.152 HD
ENDBRANCH   5   7
ENDBRANCH   3   5
BRANCH   2  16
ATOM     16  CA  UNL     1      38.924 -25.352 -14.375  0.00  0.00    +0.182 C 
BRANCH  16  18
ATOM     17  OXT UNL     1      40.983 -26.537 -13.890  0.00  0.00    -0.248 OA
ATOM     18  C   UNL     1      40.242 -26.025 -14.721  0.00  0.00    +0.332 C 
BRANCH  18  19
ATOM     19  O   UNL     1      40.527 -26.003 -16.044  0.00  0.00    -0.479 OA
ATOM     20  H   UNL     1      41.369 -26.284 -16.347  0.00  0.00    +0.295 HD
ENDBRANCH  18  19
ENDBRANCH  16  18
BRANCH  16  21
ATOM     21  CB  UNL     1      37.833 -26.406 -14.164  0.00  0.00    +0.140 C 
BRANCH  21  23
ATOM     22  OD2 UNL     1      37.192 -26.481 -11.812  0.00  0.00    -0.250 OA
ATOM     23  CG  UNL     1      36.964 -26.118 -12.958  0.00  0.00    +0.316 C 
BRANCH  23  24
ATOM     24  OD1 UNL     1      35.868 -25.391 -13.300  0.00  0.00    -0.480 OA
ATOM     25  HD1 UNL     1      35.779 -25.059 -14.172  0.00  0.00    +0.295 HD
ENDBRANCH  23  24
ENDBRANCH  21  23
ENDBRANCH  16  21
ENDBRANCH   2  16
TORSDOF 8
ENDMDL
MODEL 2
REMARK VINA RESULT:      -9.3      2.330      4.093
REMARK  Name = 446620
REMARK  8 active torsions:
REMARK  status: ('A' for Active; 'I' for Inactive)
REMARK    1  A    between atoms: N_2  and  CA_16
REMARK    2  A    between atoms: C_3  and  C_5
REMARK    3  A    between atoms: C_5  and  C_7
REMARK    4  A    between atoms: CA_16  and  C_18
REMARK    5  A    between atoms: CA_16  and  CB_21
REMARK    6  A    between atoms: C_18  and  O_19
REMARK    7  A    between atoms: CB_21  and  CG_23
REMARK    8  A    between atoms: CG_23  and  OD1_24
REMARK                            x       y       z     vdW  Elec       q    Type
REMARK                         _______ _______ _______ _____ _____    ______ ____
ROOT
ATOM      1  O   UNL     1      35.559 -25.332 -15.544  0.00  0.00    -0.275 OA
ATOM      2  N   UNL     1      37.349 -24.261 -14.522  0.00  0.00    -0.296 N 
ATOM      3  C   ACE A   0      36.132 -24.304 -15.183  0.00  0.00    +0.227 C 
ATOM      4  H   UNL     1      37.722 -23.384 -14.276  0.00  0.00    +0.150 HD
ENDROOT
BRANCH   3   5
ATOM      5  C   UNL     1      35.513 -22.928 -15.403  0.00  0.00    +0.113 C 
BRANCH   5   7
ATOM      6  N   UNL     1      32.613 -23.184 -17.607  0.00  0.00    -0.312 N 
ATOM      7  C   UNL     1      34.194 -23.065 -16.054  0.00  0.00    +0.003 C 
ATOM      8  C   UNL     1      32.944 -23.263 -15.402  0.00  0.00    +0.011 C 
ATOM      9  C   UNL     1      31.969 -23.335 -16.399  0.00  0.00    +0.048 C 
ATOM     10  C   UNL     1      33.957 -23.020 -17.408  0.00  0.00    +0.058 C 
ATOM     11  C   UNL     1      32.548 -23.389 -14.056  0.00  0.00    +0.001 C 
ATOM     12  C   UNL     1      30.612 -23.526 -16.117  0.00  0.00    +0.015 C 
ATOM     13  C   UNL     1      31.194 -23.581 -13.758  0.00  0.00    +0.000 C 
ATOM     14  C   UNL     1      30.242 -23.648 -14.774  0.00  0.00    +0.001 C 
ATOM     15  H   UNL     1      32.170 -23.194 -18.486  0.00  0.00    +0.152 HD
ENDBRANCH   5   7
ENDBRANCH   3   5
BRANCH   2  16
ATOM     16  CA  UNL     1      38.091 -25.452 -14.181  0.00  0.00    +0.182 C 
BRANCH  16  18
ATOM     17  OXT UNL     1      37.689 -25.817 -11.817  0.00  0.00    -0.248 OA
ATOM     18  C   UNL     1      37.482 -26.153 -12.978  0.00  0.00    +0.332 C 
BRANCH  18  19
ATOM     19  O   UNL     1      36.686 -27.197 -13.309  0.00  0.00    -0.479 OA
ATOM     20  H   UNL     1      37.024 -27.896 -13.835  0.00  0.00    +0.295 HD
ENDBRANCH  18  19
ENDBRANCH  16  18
BRANCH  16  21
ATOM     21  CB  UNL     1      39.563 -25.125 -13.913  0.00  0.00    +0.140 C 
BRANCH  21  23
ATOM     22  OD2 UNL     1      41.296 -26.827 -14.128  0.00  0.00    -0.250 OA
ATOM     23  CG  UNL     1      40.512 -26.046 -14.650  0.00  0.00    +0.316 C 
BRANCH  23  24
ATOM     24  OD1 UNL     1      40.394 -25.904 -15.996  0.00  0.00    -0.480 OA
ATOM     25  HD1 UNL     1      39.840 -26.483 -16.482  0.00  0.00    +0.295 HD
ENDBRANCH  23  24
ENDBRANCH  21  23
ENDBRANCH  16  21
ENDBRANCH   2  16
TORSDOF 8
ENDMDL
MODEL 3
REMARK VINA RESULT:      -9.2      1.426      2.878
REMARK  Name = 446620
REMARK  8 active torsions:
REMARK  status: ('A' for Active; 'I' for Inactive)
REMARK    1  A    between atoms: N_2  and  CA_16
REMARK    2  A    between atoms: C_3  and  C_5
REMARK    3  A    between atoms: C_5  and  C_7
REMARK    4  A    between atoms: CA_16  and  C_18
REMARK    5  A    between atoms: CA_16  and  CB_21
REMARK    6  A    between atoms: C_18  and  O_19
REMARK    7  A    between atoms: CB_21  and  CG_23
REMARK    8  A    between atoms: CG_23  and  OD1_24
REMARK                            x       y       z     vdW  Elec       q    Type
REMARK                         _______ _______ _______ _____ _____    ______ ____
ROOT
ATOM      1  O   UNL     1      35.289 -25.559 -15.589  0.00  0.00    -0.275 OA
ATOM      2  N   UNL     1      36.951 -24.307 -14.558  0.00  0.00    -0.296 N 
ATOM      3  C   ACE A   0      35.709 -24.492 -15.143  0.00  0.00    +0.227 C 
ATOM      4  H   UNL     1      37.192 -23.410 -14.231  0.00  0.00    +0.150 HD
ENDROOT
BRANCH   3   5
ATOM      5  C   UNL     1      34.854 -23.230 -15.159  0.00  0.00    +0.113 C 
BRANCH   5   7
ATOM      6  N   UNL     1      33.008 -22.906 -18.293  0.00  0.00    -0.312 N 
ATOM      7  C   UNL     1      34.346 -22.980 -16.523  0.00  0.00    +0.003 C 
ATOM      8  C   UNL     1      35.060 -22.375 -17.595  0.00  0.00    +0.011 C 
ATOM      9  C   UNL     1      34.198 -22.341 -18.693  0.00  0.00    +0.048 C 
ATOM     10  C   UNL     1      33.088 -23.295 -16.983  0.00  0.00    +0.058 C 
ATOM     11  C   UNL     1      36.360 -21.851 -17.738  0.00  0.00    +0.001 C 
ATOM     12  C   UNL     1      34.573 -21.808 -19.932  0.00  0.00    +0.015 C 
ATOM     13  C   UNL     1      36.750 -21.315 -18.971  0.00  0.00    +0.000 C 
ATOM     14  C   UNL     1      35.868 -21.294 -20.050  0.00  0.00    +0.001 C 
ATOM     15  H   UNL     1      32.215 -23.014 -18.865  0.00  0.00    +0.152 HD
ENDBRANCH   5   7
ENDBRANCH   3   5
BRANCH   2  16
ATOM     16  CA  UNL     1      37.907 -25.380 -14.407  0.00  0.00    +0.182 C 
BRANCH  16  18
ATOM     17  OXT UNL     1      37.985 -25.943 -12.049  0.00  0.00    -0.248 OA
ATOM     18  C   UNL     1      37.600 -26.222 -13.179  0.00  0.00    +0.332 C 
BRANCH  18  19
ATOM     19  O   UNL     1      36.858 -27.322 -13.451  0.00  0.00    -0.479 OA
ATOM     20  H   UNL     1      36.160 -27.273 -14.074  0.00  0.00    +0.295 HD
ENDBRANCH  18  19
ENDBRANCH  16  18
BRANCH  16  21
ATOM     21  CB  UNL     1      39.336 -24.838 -14.332  0.00  0.00    +0.140 C 
BRANCH  21  23
ATOM     22  OD2 UNL     1      41.092 -26.509 -14.066  0.00  0.00    -0.250 OA
ATOM     23  CG  UNL     1      40.371 -25.842 -14.795  0.00  0.00    +0.316 C 
BRANCH  23  24
ATOM     24  OD1 UNL     1      40.411 -25.921 -16.151  0.00  0.00    -0.480 OA
ATOM     25  HD1 UNL     1      41.114 -25.522 -16.623  0.00  0.00    +0.295 HD
ENDBRANCH  23  24
ENDBRANCH  21  23
ENDBRANCH  16  21
ENDBRANCH   2  16
TORSDOF 8
ENDMDL
MODEL 4
REMARK VINA RESULT:      -9.2      1.888      3.206
REMARK  Name = 446620
REMARK  8 active torsions:
REMARK  status: ('A' for Active; 'I' for Inactive)
REMARK    1  A    between atoms: N_2  and  CA_16
REMARK    2  A    between atoms: C_3  and  C_5
REMARK    3  A    between atoms: C_5  and  C_7
REMARK    4  A    between atoms: CA_16  and  C_18
REMARK    5  A    between atoms: CA_16  and  CB_21
REMARK    6  A    between atoms: C_18  and  O_19
REMARK    7  A    between atoms: CB_21  and  CG_23
REMARK    8  A    between atoms: CG_23  and  OD1_24
REMARK                            x       y       z     vdW  Elec       q    Type
REMARK                         _______ _______ _______ _____ _____    ______ ____
ROOT
ATOM      1  O   UNL     1      36.252 -25.341 -15.665  0.00  0.00    -0.275 OA
ATOM      2  N   UNL     1      36.409 -23.970 -13.797  0.00  0.00    -0.296 N 
ATOM      3  C   ACE A   0      36.404 -24.230 -15.158  0.00  0.00    +0.227 C 
ATOM      4  H   UNL     1      36.538 -23.042 -13.494  0.00  0.00    +0.150 HD
ENDROOT
BRANCH   3   5
ATOM      5  C   UNL     1      36.568 -22.979 -16.015  0.00  0.00    +0.113 C 
BRANCH   5   7
ATOM      6  N   UNL     1      33.285 -22.873 -17.609  0.00  0.00    -0.312 N 
ATOM      7  C   UNL     1      35.372 -22.784 -16.859  0.00  0.00    +0.003 C 
ATOM      8  C   UNL     1      35.311 -22.071 -18.090  0.00  0.00    +0.011 C 
ATOM      9  C   UNL     1      33.990 -22.142 -18.539  0.00  0.00    +0.048 C 
ATOM     10  C   UNL     1      34.111 -23.264 -16.590  0.00  0.00    +0.058 C 
ATOM     11  C   UNL     1      36.255 -21.371 -18.867  0.00  0.00    +0.001 C 
ATOM     12  C   UNL     1      33.565 -21.546 -19.731  0.00  0.00    +0.015 C 
ATOM     13  C   UNL     1      35.844 -20.769 -20.062  0.00  0.00    +0.000 C 
ATOM     14  C   UNL     1      34.519 -20.857 -20.486  0.00  0.00    +0.001 C 
ATOM     15  H   UNL     1      32.325 -23.082 -17.668  0.00  0.00    +0.152 HD
ENDBRANCH   5   7
ENDBRANCH   3   5
BRANCH   2  16
ATOM     16  CA  UNL     1      36.234 -25.006 -12.807  0.00  0.00    +0.182 C 
BRANCH  16  18
ATOM     17  OXT UNL     1      35.326 -25.010 -10.558  0.00  0.00    -0.248 OA
ATOM     18  C   UNL     1      35.304 -24.551 -11.694  0.00  0.00    +0.332 C 
BRANCH  18  19
ATOM     19  O   UNL     1      34.436 -23.585 -12.078  0.00  0.00    -0.479 OA
ATOM     20  H   UNL     1      34.537 -23.169 -12.912  0.00  0.00    +0.295 HD
ENDBRANCH  18  19
ENDBRANCH  16  18
BRANCH  16  21
ATOM     21  CB  UNL     1      37.580 -25.444 -12.224  0.00  0.00    +0.140 C 
BRANCH  21  23
ATOM     22  OD2 UNL     1      38.705 -23.361 -11.637  0.00  0.00    -0.250 OA
ATOM     23  CG  UNL     1      38.642 -24.370 -12.326  0.00  0.00    +0.316 C 
BRANCH  23  24
ATOM     24  OD1 UNL     1      39.545 -24.660 -13.299  0.00  0.00    -0.480 OA
ATOM     25  HD1 UNL     1      39.900 -25.524 -13.368  0.00  0.00    +0.295 HD
ENDBRANCH  23  24
ENDBRANCH  21  23
ENDBRANCH  16  21
ENDBRANCH   2  16
TORSDOF 8
ENDMDL
MODEL 5
REMARK VINA RESULT:      -9.1      1.880      2.872
REMARK  Name = 446620
REMARK  8 active torsions:
REMARK  status: ('A' for Active; 'I' for Inactive)
REMARK    1  A    between atoms: N_2  and  CA_16
REMARK    2  A    between atoms: C_3  and  C_5
REMARK    3  A    between atoms: C_5  and  C_7
REMARK    4  A    between atoms: CA_16  and  C_18
REMARK    5  A    between atoms: CA_16  and  CB_21
REMARK    6  A    between atoms: C_18  and  O_19
REMARK    7  A    between atoms: CB_21  and  CG_23
REMARK    8  A    between atoms: CG_23  and  OD1_24
REMARK                            x       y       z     vdW  Elec       q    Type
REMARK                         _______ _______ _______ _____ _____    ______ ____
ROOT
ATOM      1  O   UNL     1      35.720 -25.329 -15.753  0.00  0.00    -0.275 OA
ATOM      2  N   UNL     1      36.403 -24.186 -13.850  0.00  0.00    -0.296 N 
ATOM      3  C   ACE A   0      35.547 -24.452 -14.907  0.00  0.00    +0.227 C 
ATOM      4  H   UNL     1      36.172 -23.460 -13.227  0.00  0.00    +0.150 HD
ENDROOT
BRANCH   3   5
ATOM      5  C   UNL     1      34.307 -23.566 -14.921  0.00  0.00    +0.113 C 
BRANCH   5   7
ATOM      6  N   UNL     1      32.850 -22.886 -18.199  0.00  0.00    -0.312 N 
ATOM      7  C   UNL     1      33.973 -23.183 -16.307  0.00  0.00    +0.003 C 
ATOM      8  C   UNL     1      34.842 -22.560 -17.247  0.00  0.00    +0.011 C 
ATOM      9  C   UNL     1      34.112 -22.385 -18.425  0.00  0.00    +0.048 C 
ATOM     10  C   UNL     1      32.756 -23.371 -16.922  0.00  0.00    +0.058 C 
ATOM     11  C   UNL     1      36.182 -22.127 -17.208  0.00  0.00    +0.001 C 
ATOM     12  C   UNL     1      34.658 -21.796 -19.571  0.00  0.00    +0.015 C 
ATOM     13  C   UNL     1      36.742 -21.537 -18.347  0.00  0.00    +0.000 C 
ATOM     14  C   UNL     1      35.990 -21.375 -19.509  0.00  0.00    +0.001 C 
ATOM     15  H   UNL     1      32.120 -22.894 -18.859  0.00  0.00    +0.152 HD
ENDBRANCH   5   7
ENDBRANCH   3   5
BRANCH   2  16
ATOM     16  CA  UNL     1      37.619 -24.932 -13.628  0.00  0.00    +0.182 C 
BRANCH  16  18
ATOM     17  OXT UNL     1      37.529 -27.316 -14.064  0.00  0.00    -0.248 OA
ATOM     18  C   UNL     1      37.321 -26.384 -13.295  0.00  0.00    +0.332 C 
BRANCH  18  19
ATOM     19  O   UNL     1      36.796 -26.557 -12.059  0.00  0.00    -0.479 OA
ATOM     20  H   UNL     1      37.004 -27.325 -11.564  0.00  0.00    +0.295 HD
ENDBRANCH  18  19
ENDBRANCH  16  18
BRANCH  16  21
ATOM     21  CB  UNL     1      38.459 -24.297 -12.517  0.00  0.00    +0.140 C 
BRANCH  21  23
ATOM     22  OD2 UNL     1      36.883 -23.810 -10.720  0.00  0.00    -0.250 OA
ATOM     23  CG  UNL     1      37.643 -23.416 -11.594  0.00  0.00    +0.316 C 
BRANCH  23  24
ATOM     24  OD1 UNL     1      37.854 -22.099 -11.854  0.00  0.00    -0.480 OA
ATOM     25  HD1 UNL     1      38.101 -21.824 -12.715  0.00  0.00    +0.295 HD
ENDBRANCH  23  24
ENDBRANCH  21  23
ENDBRANCH  16  21
ENDBRANCH   2  16
TORSDOF 8
ENDMDL
MODEL 6
REMARK VINA RESULT:      -9.0      7.393     10.944
REMARK  Name = 446620
REMARK  8 active torsions:
REMARK  status: ('A' for Active; 'I' for Inactive)
REMARK    1  A    between atoms: N_2  and  CA_16
REMARK    2  A    between atoms: C_3  and  C_5
REMARK    3  A    between atoms: C_5  and  C_7
REMARK    4  A    between atoms: CA_16  and  C_18
REMARK    5  A    between atoms: CA_16  and  CB_21
REMARK    6  A    between atoms: C_18  and  O_19
REMARK    7  A    between atoms: CB_21  and  CG_23
REMARK    8  A    between atoms: CG_23  and  OD1_24
REMARK                            x       y       z     vdW  Elec       q    Type
REMARK                         _______ _______ _______ _____ _____    ______ ____
ROOT
ATOM      1  O   UNL     1      35.312 -16.904 -20.547  0.00  0.00    -0.275 OA
ATOM      2  N   UNL     1      34.262 -16.492 -22.577  0.00  0.00    -0.296 N 
ATOM      3  C   ACE A   0      34.924 -17.282 -21.651  0.00  0.00    +0.227 C 
ATOM      4  H   UNL     1      33.993 -16.893 -23.435  0.00  0.00    +0.150 HD
ENDROOT
BRANCH   3   5
ATOM      5  C   UNL     1      35.109 -18.725 -22.108  0.00  0.00    +0.113 C 
BRANCH   5   7
ATOM      6  N   UNL     1      32.644 -20.717 -20.294  0.00  0.00    -0.312 N 
ATOM      7  C   UNL     1      34.337 -19.634 -21.237  0.00  0.00    +0.003 C 
ATOM      8  C   UNL     1      34.865 -20.506 -20.243  0.00  0.00    +0.011 C 
ATOM      9  C   UNL     1      33.781 -21.173 -19.667  0.00  0.00    +0.048 C 
ATOM     10  C   UNL     1      32.970 -19.787 -21.245  0.00  0.00    +0.058 C 
ATOM     11  C   UNL     1      36.163 -20.792 -19.776  0.00  0.00    +0.001 C 
ATOM     12  C   UNL     1      33.932 -22.115 -18.643  0.00  0.00    +0.015 C 
ATOM     13  C   UNL     1      36.329 -21.732 -18.753  0.00  0.00    +0.000 C 
ATOM     14  C   UNL     1      35.230 -22.383 -18.196  0.00  0.00    +0.001 C 
ATOM     15  H   UNL     1      31.729 -21.017 -20.090  0.00  0.00    +0.152 HD
ENDBRANCH   5   7
ENDBRANCH   3   5
BRANCH   2  16
ATOM     16  CA  UNL     1      33.952 -15.103 -22.333  0.00  0.00    +0.182 C 
BRANCH  16  18
ATOM     17  OXT UNL     1      32.050 -15.735 -20.968  0.00  0.00    -0.248 OA
ATOM     18  C   UNL     1      32.555 -14.944 -21.756  0.00  0.00    +0.332 C 
BRANCH  18  19
ATOM     19  O   UNL     1      31.911 -13.839 -22.201  0.00  0.00    -0.479 OA
ATOM     20  H   UNL     1      31.056 -13.632 -21.876  0.00  0.00    +0.295 HD
ENDBRANCH  18  19
ENDBRANCH  16  18
BRANCH  16  21
ATOM     21  CB  UNL     1      34.092 -14.274 -23.613  0.00  0.00    +0.140 C 
BRANCH  21  23
ATOM     22  OD2 UNL     1      34.000 -15.991 -25.342  0.00  0.00    -0.250 OA
ATOM     23  CG  UNL     1      33.538 -14.979 -24.833  0.00  0.00    +0.316 C 
BRANCH  23  24
ATOM     24  OD1 UNL     1      32.437 -14.344 -25.314  0.00  0.00    -0.480 OA
ATOM     25  HD1 UNL     1      32.526 -13.695 -25.984  0.00  0.00    +0.295 HD
ENDBRANCH  23  24
ENDBRANCH  21  23
ENDBRANCH  16  21
ENDBRANCH   2  16
TORSDOF 8
ENDMDL
MODEL 7
REMARK VINA RESULT:      -8.8      1.768      3.355
REMARK  Name = 446620
REMARK  8 active torsions:
REMARK  status: ('A' for Active; 'I' for Inactive)
REMARK    1  A    between atoms: N_2  and  CA_16
REMARK    2  A    between atoms: C_3  and  C_5
REMARK    3  A    between atoms: C_5  and  C_7
REMARK    4  A    between atoms: CA_16  and  C_18
REMARK    5  A    between atoms: CA_16  and  CB_21
REMARK    6  A    between atoms: C_18  and  O_19
REMARK    7  A    between atoms: CB_21  and  CG_23
REMARK    8  A    between atoms: CG_23  and  OD1_24
REMARK                            x       y       z     vdW  Elec       q    Type
REMARK                         _______ _______ _______ _____ _____    ______ ____
ROOT
ATOM      1  O   UNL     1      35.691 -25.727 -15.435  0.00  0.00    -0.275 OA
ATOM      2  N   UNL     1      35.759 -24.192 -13.694  0.00  0.00    -0.296 N 
ATOM      3  C   ACE A   0      35.386 -24.638 -14.952  0.00  0.00    +0.227 C 
ATOM      4  H   UNL     1      35.461 -23.301 -13.400  0.00  0.00    +0.150 HD
ENDROOT
BRANCH   3   5
ATOM      5  C   UNL     1      34.503 -23.650 -15.706  0.00  0.00    +0.113 C 
BRANCH   5   7
ATOM      6  N   UNL     1      37.035 -21.806 -17.582  0.00  0.00    -0.312 N 
ATOM      7  C   UNL     1      35.318 -22.861 -16.651  0.00  0.00    +0.003 C 
ATOM      8  C   UNL     1      34.876 -22.286 -17.876  0.00  0.00    +0.011 C 
ATOM      9  C   UNL     1      35.973 -21.631 -18.440  0.00  0.00    +0.048 C 
ATOM     10  C   UNL     1      36.649 -22.548 -16.498  0.00  0.00    +0.058 C 
ATOM     11  C   UNL     1      33.645 -22.261 -18.562  0.00  0.00    +0.001 C 
ATOM     12  C   UNL     1      35.900 -20.948 -19.659  0.00  0.00    +0.015 C 
ATOM     13  C   UNL     1      33.557 -21.582 -19.783  0.00  0.00    +0.000 C 
ATOM     14  C   UNL     1      34.669 -20.937 -20.321  0.00  0.00    +0.001 C 
ATOM     15  H   UNL     1      37.941 -21.451 -17.727  0.00  0.00    +0.152 HD
ENDBRANCH   5   7
ENDBRANCH   3   5
BRANCH   2  16
ATOM     16  CA  UNL     1      36.567 -24.985 -12.796  0.00  0.00    +0.182 C 
BRANCH  16  18
ATOM     17  OXT UNL     1      35.226 -25.189 -10.786  0.00  0.00    -0.248 OA
ATOM     18  C   UNL     1      36.206 -24.712 -11.345  0.00  0.00    +0.332 C 
BRANCH  18  19
ATOM     19  O   UNL     1      37.075 -23.881 -10.721  0.00  0.00    -0.479 OA
ATOM     20  H   UNL     1      37.913 -23.706 -11.104  0.00  0.00    +0.295 HD
ENDBRANCH  18  19
ENDBRANCH  16  18
BRANCH  16  21
ATOM     21  CB  UNL     1      38.058 -24.729 -13.027  0.00  0.00    +0.140 C 
BRANCH  21  23
ATOM     22  OD2 UNL     1      39.981 -26.027 -13.779  0.00  0.00    -0.250 OA
ATOM     23  CG  UNL     1      38.770 -25.915 -13.643  0.00  0.00    +0.316 C 
BRANCH  23  24
ATOM     24  OD1 UNL     1      37.888 -26.869 -14.040  0.00  0.00    -0.480 OA
ATOM     25  HD1 UNL     1      37.400 -26.756 -14.833  0.00  0.00    +0.295 HD
ENDBRANCH  23  24
ENDBRANCH  21  23
ENDBRANCH  16  21
ENDBRANCH   2  16
TORSDOF 8
ENDMDL
MODEL 8
REMARK VINA RESULT:      -8.8      4.197      5.992
REMARK  Name = 446620
REMARK  8 active torsions:
REMARK  status: ('A' for Active; 'I' for Inactive)
REMARK    1  A    between atoms: N_2  and  CA_16
REMARK    2  A    between atoms: C_3  and  C_5
REMARK    3  A    between atoms: C_5  and  C_7
REMARK    4  A    between atoms: CA_16  and  C_18
REMARK    5  A    between atoms: CA_16  and  CB_21
REMARK    6  A    between atoms: C_18  and  O_19
REMARK    7  A    between atoms: CB_21  and  CG_23
REMARK    8  A    between atoms: CG_23  and  OD1_24
REMARK                            x       y       z     vdW  Elec       q    Type
REMARK                         _______ _______ _______ _____ _____    ______ ____
ROOT
ATOM      1  O   UNL     1      34.573 -22.848 -16.099  0.00  0.00    -0.275 OA
ATOM      2  N   UNL     1      32.326 -23.356 -16.397  0.00  0.00    -0.296 N 
ATOM      3  C   ACE A   0      33.625 -23.137 -16.828  0.00  0.00    +0.227 C 
ATOM      4  H   UNL     1      31.639 -23.583 -17.064  0.00  0.00    +0.150 HD
ENDROOT
BRANCH   3   5
ATOM      5  C   UNL     1      33.805 -23.326 -18.330  0.00  0.00    +0.113 C 
BRANCH   5   7
ATOM      6  N   UNL     1      36.353 -20.922 -19.358  0.00  0.00    -0.312 N 
ATOM      7  C   UNL     1      34.622 -22.228 -18.884  0.00  0.00    +0.003 C 
ATOM      8  C   UNL     1      34.165 -21.169 -19.718  0.00  0.00    +0.011 C 
ATOM      9  C   UNL     1      35.271 -20.365 -20.001  0.00  0.00    +0.048 C 
ATOM     10  C   UNL     1      35.971 -22.049 -18.681  0.00  0.00    +0.058 C 
ATOM     11  C   UNL     1      32.914 -20.817 -20.262  0.00  0.00    +0.001 C 
ATOM     12  C   UNL     1      35.188 -19.221 -20.803  0.00  0.00    +0.015 C 
ATOM     13  C   UNL     1      32.815 -19.675 -21.065  0.00  0.00    +0.000 C 
ATOM     14  C   UNL     1      33.936 -18.891 -21.331  0.00  0.00    +0.001 C 
ATOM     15  H   UNL     1      37.269 -20.564 -19.383  0.00  0.00    +0.152 HD
ENDBRANCH   5   7
ENDBRANCH   3   5
BRANCH   2  16
ATOM     16  CA  UNL     1      31.942 -23.265 -15.008  0.00  0.00    +0.182 C 
BRANCH  16  18
ATOM     17  OXT UNL     1      31.326 -25.438 -14.126  0.00  0.00    -0.248 OA
ATOM     18  C   UNL     1      32.185 -24.578 -14.282  0.00  0.00    +0.332 C 
BRANCH  18  19
ATOM     19  O   UNL     1      33.450 -24.710 -13.816  0.00  0.00    -0.479 OA
ATOM     20  H   UNL     1      33.645 -24.497 -12.924  0.00  0.00    +0.295 HD
ENDBRANCH  18  19
ENDBRANCH  16  18
BRANCH  16  21
ATOM     21  CB  UNL     1      30.476 -22.848 -14.868  0.00  0.00    +0.140 C 
BRANCH  21  23
ATOM     22  OD2 UNL     1      29.406 -22.298 -16.990  0.00  0.00    -0.250 OA
ATOM     23  CG  UNL     1      29.667 -23.117 -16.119  0.00  0.00    +0.316 C 
BRANCH  23  24
ATOM     24  OD1 UNL     1      29.249 -24.409 -16.170  0.00  0.00    -0.480 OA
ATOM     25  HD1 UNL     1      28.375 -24.610 -16.442  0.00  0.00    +0.295 HD
ENDBRANCH  23  24
ENDBRANCH  21  23
ENDBRANCH  16  21
ENDBRANCH   2  16
TORSDOF 8
ENDMDL
MODEL 9
REMARK VINA RESULT:      -8.7      2.527      3.367
REMARK  Name = 446620
REMARK  8 active torsions:
REMARK  status: ('A' for Active; 'I' for Inactive)
REMARK    1  A    between atoms: N_2  and  CA_16
REMARK    2  A    between atoms: C_3  and  C_5
REMARK    3  A    between atoms: C_5  and  C_7
REMARK    4  A    between atoms: CA_16  and  C_18
REMARK    5  A    between atoms: CA_16  and  CB_21
REMARK    6  A    between atoms: C_18  and  O_19
REMARK    7  A    between atoms: CB_21  and  CG_23
REMARK    8  A    between atoms: CG_23  and  OD1_24
REMARK                            x       y       z     vdW  Elec       q    Type
REMARK                         _______ _______ _______ _____ _____    ______ ____
ROOT
ATOM      1  O   UNL     1      37.474 -22.440 -15.073  0.00  0.00    -0.275 OA
ATOM      2  N   UNL     1      37.492 -24.732 -14.696  0.00  0.00    -0.296 N 
ATOM      3  C   ACE A   0      36.961 -23.552 -15.192  0.00  0.00    +0.227 C 
ATOM      4  H   UNL     1      37.001 -25.571 -14.847  0.00  0.00    +0.150 HD
ENDROOT
BRANCH   3   5
ATOM      5  C   UNL     1      35.659 -23.749 -15.960  0.00  0.00    +0.113 C 
BRANCH   5   7
ATOM      6  N   UNL     1      33.290 -23.655 -13.183  0.00  0.00    -0.312 N 
ATOM      7  C   UNL     1      34.509 -23.658 -15.039  0.00  0.00    +0.003 C 
ATOM      8  C   UNL     1      33.155 -23.403 -15.396  0.00  0.00    +0.011 C 
ATOM      9  C   UNL     1      32.412 -23.405 -14.213  0.00  0.00    +0.048 C 
ATOM     10  C   UNL     1      34.559 -23.809 -13.672  0.00  0.00    +0.058 C 
ATOM     11  C   UNL     1      32.488 -23.168 -16.615  0.00  0.00    +0.001 C 
ATOM     12  C   UNL     1      31.030 -23.185 -14.189  0.00  0.00    +0.015 C 
ATOM     13  C   UNL     1      31.106 -22.946 -16.606  0.00  0.00    +0.000 C 
ATOM     14  C   UNL     1      30.390 -22.955 -15.410  0.00  0.00    +0.001 C 
ATOM     15  H   UNL     1      33.042 -23.713 -12.233  0.00  0.00    +0.152 HD
ENDBRANCH   5   7
ENDBRANCH   3   5
BRANCH   2  16
ATOM     16  CA  UNL     1      38.738 -24.778 -13.968  0.00  0.00    +0.182 C 
BRANCH  16  18
ATOM     17  OXT UNL     1      40.835 -25.484 -14.961  0.00  0.00    -0.248 OA
ATOM     18  C   UNL     1      39.703 -25.773 -14.591  0.00  0.00    +0.332 C 
BRANCH  18  19
ATOM     19  O   UNL     1      39.191 -27.021 -14.704  0.00  0.00    -0.479 OA
ATOM     20  H   UNL     1      39.667 -27.756 -14.368  0.00  0.00    +0.295 HD
ENDBRANCH  18  19
ENDBRANCH  16  18
BRANCH  16  21
ATOM     21  CB  UNL     1      38.503 -25.122 -12.495  0.00  0.00    +0.140 C 
BRANCH  21  23
ATOM     22  OD2 UNL     1      38.534 -22.816 -11.702  0.00  0.00    -0.250 OA
ATOM     23  CG  UNL     1      38.036 -23.933 -11.681  0.00  0.00    +0.316 C 
BRANCH  23  24
ATOM     24  OD1 UNL     1      36.972 -24.255 -10.901  0.00  0.00    -0.480 OA
ATOM     25  HD1 UNL     1      37.093 -24.422  -9.987  0.00  0.00    +0.295 HD
ENDBRANCH  23  24
ENDBRANCH  21  23
ENDBRANCH  16  21
ENDBRANCH   2  16
TORSDOF 8
ENDMDL
