MODEL 1
REMARK VINA RESULT:      -7.5      0.000      0.000
REMARK  Name = 60734
REMARK  7 active torsions:
REMARK  status: ('A' for Active; 'I' for Inactive)
REMARK    1  A    between atoms: C_3  and  O_11
REMARK    2  A    between atoms: C_4  and  O_13
REMARK    3  A    between atoms: C_7  and  O_15
REMARK    4  A    between atoms: C_9  and  O_17
REMARK    5  A    between atoms: O_17  and  C_19
REMARK    6  A    between atoms: C_19  and  C_20
REMARK    7  A    between atoms: C_20  and  C_21
REMARK                            x       y       z     vdW  Elec       q    Type
REMARK                         _______ _______ _______ _____ _____    ______ ____
ROOT
ATOM      1  N   UNL     1      34.792 -15.855 -22.499  0.00  0.00    +0.394 N 
ATOM      2  C   UNL     1      34.310 -17.022 -23.248  0.00  0.00    -0.000 C 
ATOM      3  C   UNL     1      34.422 -16.776 -24.751  0.00  0.00    +0.124 C 
ATOM      4  C   UNL     1      35.158 -18.140 -22.644  0.00  0.00    +0.092 C 
ATOM      5  C   UNL     1      34.824 -16.279 -21.104  0.00  0.00    -0.074 C 
ATOM      6  C   UNL     1      33.971 -14.678 -22.750  0.00  0.00    -0.030 C 
ATOM      7  C   UNL     1      33.639 -15.511 -25.133  0.00  0.00    +0.173 C 
ATOM      8  C   UNL     1      35.315 -17.726 -21.176  0.00  0.00    +0.004 C 
ATOM      9  C   UNL     1      34.022 -14.323 -24.240  0.00  0.00    +0.177 C 
ATOM     10  H   UNL     1      35.722 -15.560 -22.794  0.00  0.00    -0.079 HD
ENDROOT
BRANCH   3  11
ATOM     11  O   UNL     1      33.860 -17.878 -25.459  0.00  0.00    -0.384 OA
ATOM     12  H   UNL     1      34.571 -18.454 -25.778  0.00  0.00    +0.210 HD
ENDBRANCH   3  11
BRANCH   4  13
ATOM     13  O   UNL     1      36.448 -18.218 -23.237  0.00  0.00    -0.387 OA
ATOM     14  H   UNL     1      36.508 -19.023 -23.776  0.00  0.00    +0.210 HD
ENDBRANCH   4  13
BRANCH   7  15
ATOM     15  O   UNL     1      33.940 -15.167 -26.487  0.00  0.00    -0.379 OA
ATOM     16  H   UNL     1      34.889 -15.284 -26.647  0.00  0.00    +0.211 HD
ENDBRANCH   7  15
BRANCH   9  17
ATOM     17  O   UNL     1      33.112 -13.248 -24.471  0.00  0.00    -0.452 OA
BRANCH  17  19
ATOM     18  O   UNL     1      33.853 -12.076 -26.316  0.00  0.00    -0.250 OA
ATOM     19  C   UNL     1      33.633 -12.159 -25.115  0.00  0.00    +0.317 C 
BRANCH  19  20
ATOM     20  C   UNL     1      33.896 -11.068 -24.103  0.00  0.00    +0.110 C 
BRANCH  20  21
ATOM     21  C   UNL     1      34.916 -10.051 -24.610  0.00  0.00    +0.012 C 
ATOM     22  C   UNL     1      34.695  -8.682 -23.988  0.00  0.00    +0.001 C 
ENDBRANCH  20  21
ENDBRANCH  19  20
ENDBRANCH  17  19
ENDBRANCH   9  17
TORSDOF 7
ENDMDL
MODEL 2
REMARK VINA RESULT:      -7.4      2.366      6.784
REMARK  Name = 60734
REMARK  7 active torsions:
REMARK  status: ('A' for Active; 'I' for Inactive)
REMARK    1  A    between atoms: C_3  and  O_11
REMARK    2  A    between atoms: C_4  and  O_13
REMARK    3  A    between atoms: C_7  and  O_15
REMARK    4  A    between atoms: C_9  and  O_17
REMARK    5  A    between atoms: O_17  and  C_19
REMARK    6  A    between atoms: C_19  and  C_20
REMARK    7  A    between atoms: C_20  and  C_21
REMARK                            x       y       z     vdW  Elec       q    Type
REMARK                         _______ _______ _______ _____ _____    ______ ____
ROOT
ATOM      1  N   UNL     1      34.139 -15.632 -24.268  0.00  0.00    +0.394 N 
ATOM      2  C   UNL     1      33.355 -14.899 -23.266  0.00  0.00    -0.000 C 
ATOM      3  C   UNL     1      34.042 -14.958 -21.903  0.00  0.00    +0.124 C 
ATOM      4  C   UNL     1      33.214 -13.532 -23.934  0.00  0.00    +0.092 C 
ATOM      5  C   UNL     1      33.500 -15.339 -25.546  0.00  0.00    -0.074 C 
ATOM      6  C   UNL     1      34.225 -17.051 -23.952  0.00  0.00    -0.030 C 
ATOM      7  C   UNL     1      34.246 -16.421 -21.485  0.00  0.00    +0.173 C 
ATOM      8  C   UNL     1      33.109 -13.864 -25.427  0.00  0.00    +0.004 C 
ATOM      9  C   UNL     1      34.919 -17.235 -22.598  0.00  0.00    +0.177 C 
ATOM     10  H   UNL     1      35.114 -15.337 -24.292  0.00  0.00    -0.079 HD
ENDROOT
BRANCH   3  11
ATOM     11  O   UNL     1      33.219 -14.326 -20.926  0.00  0.00    -0.384 OA
ATOM     12  H   UNL     1      32.935 -14.980 -20.270  0.00  0.00    +0.210 HD
ENDBRANCH   3  11
BRANCH   4  13
ATOM     13  O   UNL     1      34.357 -12.711 -23.728  0.00  0.00    -0.387 OA
ATOM     14  H   UNL     1      34.081 -11.783 -23.668  0.00  0.00    +0.210 HD
ENDBRANCH   4  13
BRANCH   7  15
ATOM     15  O   UNL     1      35.087 -16.464 -20.330  0.00  0.00    -0.379 OA
ATOM     16  H   UNL     1      35.989 -16.702 -20.595  0.00  0.00    +0.211 HD
ENDBRANCH   7  15
BRANCH   9  17
ATOM     17  O   UNL     1      34.874 -18.621 -22.261  0.00  0.00    -0.452 OA
BRANCH  17  19
ATOM     18  O   UNL     1      37.050 -18.662 -21.493  0.00  0.00    -0.250 OA
ATOM     19  C   UNL     1      35.898 -19.074 -21.473  0.00  0.00    +0.317 C 
BRANCH  19  20
ATOM     20  C   UNL     1      35.378 -20.171 -20.573  0.00  0.00    +0.110 C 
BRANCH  20  21
ATOM     21  C   UNL     1      33.853 -20.193 -20.520  0.00  0.00    +0.012 C 
ATOM     22  C   UNL     1      33.343 -21.270 -19.576  0.00  0.00    +0.001 C 
ENDBRANCH  20  21
ENDBRANCH  19  20
ENDBRANCH  17  19
ENDBRANCH   9  17
TORSDOF 7
ENDMDL
MODEL 3
REMARK VINA RESULT:      -7.4      8.799     12.072
REMARK  Name = 60734
REMARK  7 active torsions:
REMARK  status: ('A' for Active; 'I' for Inactive)
REMARK    1  A    between atoms: C_3  and  O_11
REMARK    2  A    between atoms: C_4  and  O_13
REMARK    3  A    between atoms: C_7  and  O_15
REMARK    4  A    between atoms: C_9  and  O_17
REMARK    5  A    between atoms: O_17  and  C_19
REMARK    6  A    between atoms: C_19  and  C_20
REMARK    7  A    between atoms: C_20  and  C_21
REMARK                            x       y       z     vdW  Elec       q    Type
REMARK                         _______ _______ _______ _____ _____    ______ ____
ROOT
ATOM      1  N   UNL     1      36.141 -23.913 -15.238  0.00  0.00    +0.394 N 
ATOM      2  C   UNL     1      35.476 -23.629 -13.961  0.00  0.00    -0.000 C 
ATOM      3  C   UNL     1      34.005 -24.034 -14.024  0.00  0.00    +0.124 C 
ATOM      4  C   UNL     1      36.379 -24.372 -12.978  0.00  0.00    +0.092 C 
ATOM      5  C   UNL     1      37.560 -23.676 -14.995  0.00  0.00    -0.074 C 
ATOM      6  C   UNL     1      35.579 -23.124 -16.326  0.00  0.00    -0.030 C 
ATOM      7  C   UNL     1      33.311 -23.306 -15.184  0.00  0.00    +0.173 C 
ATOM      8  C   UNL     1      37.780 -24.217 -13.581  0.00  0.00    +0.004 C 
ATOM      9  C   UNL     1      34.094 -23.463 -16.494  0.00  0.00    +0.177 C 
ATOM     10  H   UNL     1      35.998 -24.874 -15.547  0.00  0.00    -0.079 HD
ENDROOT
BRANCH   3  11
ATOM     11  O   UNL     1      33.355 -23.661 -12.811  0.00  0.00    -0.384 OA
ATOM     12  H   UNL     1      32.554 -24.195 -12.696  0.00  0.00    +0.210 HD
ENDBRANCH   3  11
BRANCH   4  13
ATOM     13  O   UNL     1      36.066 -25.757 -12.901  0.00  0.00    -0.387 OA
ATOM     14  H   UNL     1      35.514 -26.007 -13.659  0.00  0.00    +0.210 HD
ENDBRANCH   4  13
BRANCH   7  15
ATOM     15  O   UNL     1      32.008 -23.863 -15.372  0.00  0.00    -0.379 OA
ATOM     16  H   UNL     1      31.846 -23.991 -16.320  0.00  0.00    +0.211 HD
ENDBRANCH   7  15
BRANCH   9  17
ATOM     17  O   UNL     1      33.547 -22.586 -17.477  0.00  0.00    -0.452 OA
BRANCH  17  19
ATOM     18  O   UNL     1      33.924 -23.958 -19.295  0.00  0.00    -0.250 OA
ATOM     19  C   UNL     1      33.903 -22.851 -18.772  0.00  0.00    +0.317 C 
BRANCH  19  20
ATOM     20  C   UNL     1      34.271 -21.555 -19.458  0.00  0.00    +0.110 C 
BRANCH  20  21
ATOM     21  C   UNL     1      33.036 -20.750 -19.856  0.00  0.00    +0.012 C 
ATOM     22  C   UNL     1      33.374 -19.686 -20.889  0.00  0.00    +0.001 C 
ENDBRANCH  20  21
ENDBRANCH  19  20
ENDBRANCH  17  19
ENDBRANCH   9  17
TORSDOF 7
ENDMDL
MODEL 4
REMARK VINA RESULT:      -7.4      1.937      3.037
REMARK  Name = 60734
REMARK  7 active torsions:
REMARK  status: ('A' for Active; 'I' for Inactive)
REMARK    1  A    between atoms: C_3  and  O_11
REMARK    2  A    between atoms: C_4  and  O_13
REMARK    3  A    between atoms: C_7  and  O_15
REMARK    4  A    between atoms: C_9  and  O_17
REMARK    5  A    between atoms: O_17  and  C_19
REMARK    6  A    between atoms: C_19  and  C_20
REMARK    7  A    between atoms: C_20  and  C_21
REMARK                            x       y       z     vdW  Elec       q    Type
REMARK                         _______ _______ _______ _____ _____    ______ ____
ROOT
ATOM      1  N   UNL     1      34.259 -17.106 -23.863  0.00  0.00    +0.394 N 
ATOM      2  C   UNL     1      35.060 -17.411 -22.671  0.00  0.00    -0.000 C 
ATOM      3  C   UNL     1      34.551 -16.619 -21.469  0.00  0.00    +0.124 C 
ATOM      4  C   UNL     1      34.954 -18.934 -22.618  0.00  0.00    +0.092 C 
ATOM      5  C   UNL     1      34.702 -18.055 -24.878  0.00  0.00    -0.074 C 
ATOM      6  C   UNL     1      34.385 -15.708 -24.253  0.00  0.00    -0.030 C 
ATOM      7  C   UNL     1      34.578 -15.117 -21.784  0.00  0.00    +0.173 C 
ATOM      8  C   UNL     1      34.921 -19.350 -24.093  0.00  0.00    +0.004 C 
ATOM      9  C   UNL     1      33.882 -14.810 -23.117  0.00  0.00    +0.177 C 
ATOM     10  H   UNL     1      33.259 -17.215 -23.699  0.00  0.00    -0.079 HD
ENDROOT
BRANCH   3  11
ATOM     11  O   UNL     1      35.400 -16.855 -20.348  0.00  0.00    -0.384 OA
ATOM     12  H   UNL     1      35.082 -17.627 -19.857  0.00  0.00    +0.210 HD
ENDBRANCH   3  11
BRANCH   4  13
ATOM     13  O   UNL     1      33.752 -19.369 -21.994  0.00  0.00    -0.387 OA
ATOM     14  H   UNL     1      33.090 -18.660 -22.039  0.00  0.00    +0.210 HD
ENDBRANCH   4  13
BRANCH   7  15
ATOM     15  O   UNL     1      33.890 -14.410 -20.749  0.00  0.00    -0.379 OA
ATOM     16  H   UNL     1      33.236 -13.813 -21.144  0.00  0.00    +0.211 HD
ENDBRANCH   7  15
BRANCH   9  17
ATOM     17  O   UNL     1      34.136 -13.453 -23.479  0.00  0.00    -0.452 OA
BRANCH  17  19
ATOM     18  O   UNL     1      32.034 -12.848 -22.742  0.00  0.00    -0.250 OA
ATOM     19  C   UNL     1      33.092 -12.586 -23.298  0.00  0.00    +0.317 C 
BRANCH  19  20
ATOM     20  C   UNL     1      33.454 -11.247 -23.898  0.00  0.00    +0.110 C 
BRANCH  20  21
ATOM     21  C   UNL     1      34.181 -11.397 -25.232  0.00  0.00    +0.012 C 
ATOM     22  C   UNL     1      35.258 -10.337 -25.402  0.00  0.00    +0.001 C 
ENDBRANCH  20  21
ENDBRANCH  19  20
ENDBRANCH  17  19
ENDBRANCH   9  17
TORSDOF 7
ENDMDL
MODEL 5
REMARK VINA RESULT:      -7.4      2.441      6.927
REMARK  Name = 60734
REMARK  7 active torsions:
REMARK  status: ('A' for Active; 'I' for Inactive)
REMARK    1  A    between atoms: C_3  and  O_11
REMARK    2  A    between atoms: C_4  and  O_13
REMARK    3  A    between atoms: C_7  and  O_15
REMARK    4  A    between atoms: C_9  and  O_17
REMARK    5  A    between atoms: O_17  and  C_19
REMARK    6  A    between atoms: C_19  and  C_20
REMARK    7  A    between atoms: C_20  and  C_21
REMARK                            x       y       z     vdW  Elec       q    Type
REMARK                         _______ _______ _______ _____ _____    ______ ____
ROOT
ATOM      1  N   UNL     1      34.270 -16.192 -22.203  0.00  0.00    +0.394 N 
ATOM      2  C   UNL     1      34.793 -15.891 -23.541  0.00  0.00    -0.000 C 
ATOM      3  C   UNL     1      34.462 -17.024 -24.510  0.00  0.00    +0.124 C 
ATOM      4  C   UNL     1      34.171 -14.522 -23.807  0.00  0.00    +0.092 C 
ATOM      5  C   UNL     1      34.467 -14.972 -21.429  0.00  0.00    -0.074 C 
ATOM      6  C   UNL     1      34.903 -17.374 -21.631  0.00  0.00    -0.030 C 
ATOM      7  C   UNL     1      35.029 -18.349 -23.979  0.00  0.00    +0.173 C 
ATOM      8  C   UNL     1      34.152 -13.855 -22.426  0.00  0.00    +0.004 C 
ATOM      9  C   UNL     1      34.621 -18.590 -22.520  0.00  0.00    +0.177 C 
ATOM     10  H   UNL     1      33.281 -16.439 -22.216  0.00  0.00    -0.079 HD
ENDROOT
BRANCH   3  11
ATOM     11  O   UNL     1      35.060 -16.759 -25.777  0.00  0.00    -0.384 OA
ATOM     12  H   UNL     1      35.611 -15.964 -25.714  0.00  0.00    +0.210 HD
ENDBRANCH   3  11
BRANCH   4  13
ATOM     13  O   UNL     1      32.835 -14.620 -24.285  0.00  0.00    -0.387 OA
ATOM     14  H   UNL     1      32.218 -14.470 -23.552  0.00  0.00    +0.210 HD
ENDBRANCH   4  13
BRANCH   7  15
ATOM     15  O   UNL     1      34.520 -19.425 -24.769  0.00  0.00    -0.379 OA
ATOM     16  H   UNL     1      34.005 -20.024 -24.206  0.00  0.00    +0.211 HD
ENDBRANCH   7  15
BRANCH   9  17
ATOM     17  O   UNL     1      35.356 -19.698 -22.002  0.00  0.00    -0.452 OA
BRANCH  17  19
ATOM     18  O   UNL     1      33.761 -20.271 -20.436  0.00  0.00    -0.250 OA
ATOM     19  C   UNL     1      34.927 -20.181 -20.796  0.00  0.00    +0.317 C 
BRANCH  19  20
ATOM     20  C   UNL     1      36.127 -20.587 -19.972  0.00  0.00    +0.110 C 
BRANCH  20  21
ATOM     21  C   UNL     1      35.801 -21.725 -19.008  0.00  0.00    +0.012 C 
ATOM     22  C   UNL     1      36.740 -21.728 -17.812  0.00  0.00    +0.001 C 
ENDBRANCH  20  21
ENDBRANCH  19  20
ENDBRANCH  17  19
ENDBRANCH   9  17
TORSDOF 7
ENDMDL
MODEL 6
REMARK VINA RESULT:      -7.3      9.171     12.661
REMARK  Name = 60734
REMARK  7 active torsions:
REMARK  status: ('A' for Active; 'I' for Inactive)
REMARK    1  A    between atoms: C_3  and  O_11
REMARK    2  A    between atoms: C_4  and  O_13
REMARK    3  A    between atoms: C_7  and  O_15
REMARK    4  A    between atoms: C_9  and  O_17
REMARK    5  A    between atoms: O_17  and  C_19
REMARK    6  A    between atoms: C_19  and  C_20
REMARK    7  A    between atoms: C_20  and  C_21
REMARK                            x       y       z     vdW  Elec       q    Type
REMARK                         _______ _______ _______ _____ _____    ______ ____
ROOT
ATOM      1  N   UNL     1      35.613 -23.423 -13.304  0.00  0.00    +0.394 N 
ATOM      2  C   UNL     1      36.822 -24.241 -13.142  0.00  0.00    -0.000 C 
ATOM      3  C   UNL     1      37.947 -23.713 -14.029  0.00  0.00    +0.124 C 
ATOM      4  C   UNL     1      37.023 -24.186 -11.628  0.00  0.00    +0.092 C 
ATOM      5  C   UNL     1      34.690 -23.892 -12.276  0.00  0.00    -0.074 C 
ATOM      6  C   UNL     1      35.090 -23.499 -14.661  0.00  0.00    -0.030 C 
ATOM      7  C   UNL     1      37.488 -23.687 -15.494  0.00  0.00    +0.173 C 
ATOM      8  C   UNL     1      35.594 -24.159 -11.071  0.00  0.00    +0.004 C 
ATOM      9  C   UNL     1      36.138 -22.973 -15.648  0.00  0.00    +0.177 C 
ATOM     10  H   UNL     1      35.796 -22.428 -13.178  0.00  0.00    -0.079 HD
ENDROOT
BRANCH   3  11
ATOM     11  O   UNL     1      39.077 -24.576 -13.931  0.00  0.00    -0.384 OA
ATOM     12  H   UNL     1      39.631 -24.302 -13.184  0.00  0.00    +0.210 HD
ENDBRANCH   3  11
BRANCH   4  13
ATOM     13  O   UNL     1      37.696 -23.003 -11.216  0.00  0.00    -0.387 OA
ATOM     14  H   UNL     1      38.385 -23.232 -10.572  0.00  0.00    +0.210 HD
ENDBRANCH   4  13
BRANCH   7  15
ATOM     15  O   UNL     1      38.456 -22.982 -16.275  0.00  0.00    -0.379 OA
ATOM     16  H   UNL     1      38.023 -22.585 -17.046  0.00  0.00    +0.211 HD
ENDBRANCH   7  15
BRANCH   9  17
ATOM     17  O   UNL     1      35.644 -23.179 -16.970  0.00  0.00    -0.452 OA
BRANCH  17  19
ATOM     18  O   UNL     1      36.566 -21.213 -17.752  0.00  0.00    -0.250 OA
ATOM     19  C   UNL     1      35.724 -22.099 -17.807  0.00  0.00    +0.317 C 
BRANCH  19  20
ATOM     20  C   UNL     1      34.600 -22.173 -18.815  0.00  0.00    +0.110 C 
BRANCH  20  21
ATOM     21  C   UNL     1      34.661 -21.028 -19.824  0.00  0.00    +0.012 C 
ATOM     22  C   UNL     1      33.272 -20.514 -20.169  0.00  0.00    +0.001 C 
ENDBRANCH  20  21
ENDBRANCH  19  20
ENDBRANCH  17  19
ENDBRANCH   9  17
TORSDOF 7
ENDMDL
MODEL 7
REMARK VINA RESULT:      -7.3      8.303     11.571
REMARK  Name = 60734
REMARK  7 active torsions:
REMARK  status: ('A' for Active; 'I' for Inactive)
REMARK    1  A    between atoms: C_3  and  O_11
REMARK    2  A    between atoms: C_4  and  O_13
REMARK    3  A    between atoms: C_7  and  O_15
REMARK    4  A    between atoms: C_9  and  O_17
REMARK    5  A    between atoms: O_17  and  C_19
REMARK    6  A    between atoms: C_19  and  C_20
REMARK    7  A    between atoms: C_20  and  C_21
REMARK                            x       y       z     vdW  Elec       q    Type
REMARK                         _______ _______ _______ _____ _____    ______ ____
ROOT
ATOM      1  N   UNL     1      32.028 -23.082 -15.691  0.00  0.00    +0.394 N 
ATOM      2  C   UNL     1      32.629 -24.125 -14.850  0.00  0.00    -0.000 C 
ATOM      3  C   UNL     1      34.135 -23.908 -14.725  0.00  0.00    +0.124 C 
ATOM      4  C   UNL     1      31.785 -24.013 -13.581  0.00  0.00    +0.092 C 
ATOM      5  C   UNL     1      30.587 -23.274 -15.573  0.00  0.00    -0.074 C 
ATOM      6  C   UNL     1      32.531 -23.136 -17.057  0.00  0.00    -0.030 C 
ATOM      7  C   UNL     1      34.777 -23.883 -16.119  0.00  0.00    +0.173 C 
ATOM      8  C   UNL     1      30.390 -23.646 -14.102  0.00  0.00    +0.004 C 
ATOM      9  C   UNL     1      34.048 -22.912 -17.056  0.00  0.00    +0.177 C 
ATOM     10  H   UNL     1      32.279 -22.142 -15.385  0.00  0.00    -0.079 HD
ENDROOT
BRANCH   3  11
ATOM     11  O   UNL     1      34.713 -24.983 -13.987  0.00  0.00    -0.384 OA
ATOM     12  H   UNL     1      34.021 -25.437 -13.482  0.00  0.00    +0.210 HD
ENDBRANCH   3  11
BRANCH   4  13
ATOM     13  O   UNL     1      32.239 -22.975 -12.722  0.00  0.00    -0.387 OA
ATOM     14  H   UNL     1      31.553 -22.292 -12.649  0.00  0.00    +0.210 HD
ENDBRANCH   4  13
BRANCH   7  15
ATOM     15  O   UNL     1      36.136 -23.454 -16.001  0.00  0.00    -0.379 OA
ATOM     16  H   UNL     1      36.498 -23.758 -15.155  0.00  0.00    +0.211 HD
ENDBRANCH   7  15
BRANCH   9  17
ATOM     17  O   UNL     1      34.523 -23.096 -18.389  0.00  0.00    -0.452 OA
BRANCH  17  19
ATOM     18  O   UNL     1      36.389 -21.785 -18.744  0.00  0.00    -0.250 OA
ATOM     19  C   UNL     1      35.206 -22.039 -18.926  0.00  0.00    +0.317 C 
BRANCH  19  20
ATOM     20  C   UNL     1      34.262 -21.227 -19.783  0.00  0.00    +0.110 C 
BRANCH  20  21
ATOM     21  C   UNL     1      34.998 -20.162 -20.592  0.00  0.00    +0.012 C 
ATOM     22  C   UNL     1      34.029 -19.279 -21.363  0.00  0.00    +0.001 C 
ENDBRANCH  20  21
ENDBRANCH  19  20
ENDBRANCH  17  19
ENDBRANCH   9  17
TORSDOF 7
ENDMDL
MODEL 8
REMARK VINA RESULT:      -7.2      9.232     12.613
REMARK  Name = 60734
REMARK  7 active torsions:
REMARK  status: ('A' for Active; 'I' for Inactive)
REMARK    1  A    between atoms: C_3  and  O_11
REMARK    2  A    between atoms: C_4  and  O_13
REMARK    3  A    between atoms: C_7  and  O_15
REMARK    4  A    between atoms: C_9  and  O_17
REMARK    5  A    between atoms: O_17  and  C_19
REMARK    6  A    between atoms: C_19  and  C_20
REMARK    7  A    between atoms: C_20  and  C_21
REMARK                            x       y       z     vdW  Elec       q    Type
REMARK                         _______ _______ _______ _____ _____    ______ ____
ROOT
ATOM      1  N   UNL     1      37.839 -24.559 -14.690  0.00  0.00    +0.394 N 
ATOM      2  C   UNL     1      37.198 -24.215 -13.415  0.00  0.00    -0.000 C 
ATOM      3  C   UNL     1      35.709 -23.946 -13.621  0.00  0.00    +0.124 C 
ATOM      4  C   UNL     1      37.592 -25.409 -12.547  0.00  0.00    +0.092 C 
ATOM      5  C   UNL     1      39.190 -24.984 -14.340  0.00  0.00    -0.074 C 
ATOM      6  C   UNL     1      37.785 -23.452 -15.635  0.00  0.00    -0.030 C 
ATOM      7  C   UNL     1      35.519 -22.827 -14.656  0.00  0.00    +0.173 C 
ATOM      8  C   UNL     1      38.997 -25.773 -13.043  0.00  0.00    +0.004 C 
ATOM      9  C   UNL     1      36.323 -23.102 -15.934  0.00  0.00    +0.177 C 
ATOM     10  H   UNL     1      37.355 -25.310 -15.180  0.00  0.00    -0.079 HD
ENDROOT
BRANCH   3  11
ATOM     11  O   UNL     1      35.126 -23.520 -12.392  0.00  0.00    -0.384 OA
ATOM     12  H   UNL     1      35.820 -23.411 -11.725  0.00  0.00    +0.210 HD
ENDBRANCH   3  11
BRANCH   4  13
ATOM     13  O   UNL     1      36.735 -26.526 -12.745  0.00  0.00    -0.387 OA
ATOM     14  H   UNL     1      36.264 -26.723 -11.920  0.00  0.00    +0.210 HD
ENDBRANCH   4  13
BRANCH   7  15
ATOM     15  O   UNL     1      34.136 -22.745 -15.007  0.00  0.00    -0.379 OA
ATOM     16  H   UNL     1      33.777 -23.639 -15.117  0.00  0.00    +0.211 HD
ENDBRANCH   7  15
BRANCH   9  17
ATOM     17  O   UNL     1      36.306 -21.938 -16.760  0.00  0.00    -0.452 OA
BRANCH  17  19
ATOM     18  O   UNL     1      34.692 -22.751 -18.196  0.00  0.00    -0.250 OA
ATOM     19  C   UNL     1      35.694 -22.084 -17.976  0.00  0.00    +0.317 C 
BRANCH  19  20
ATOM     20  C   UNL     1      36.457 -21.288 -19.010  0.00  0.00    +0.110 C 
BRANCH  20  21
ATOM     21  C   UNL     1      35.760 -21.300 -20.368  0.00  0.00    +0.012 C 
ATOM     22  C   UNL     1      34.793 -20.136 -20.509  0.00  0.00    +0.001 C 
ENDBRANCH  20  21
ENDBRANCH  19  20
ENDBRANCH  17  19
ENDBRANCH   9  17
TORSDOF 7
ENDMDL
MODEL 9
REMARK VINA RESULT:      -7.1      9.834     12.822
REMARK  Name = 60734
REMARK  7 active torsions:
REMARK  status: ('A' for Active; 'I' for Inactive)
REMARK    1  A    between atoms: C_3  and  O_11
REMARK    2  A    between atoms: C_4  and  O_13
REMARK    3  A    between atoms: C_7  and  O_15
REMARK    4  A    between atoms: C_9  and  O_17
REMARK    5  A    between atoms: O_17  and  C_19
REMARK    6  A    between atoms: C_19  and  C_20
REMARK    7  A    between atoms: C_20  and  C_21
REMARK                            x       y       z     vdW  Elec       q    Type
REMARK                         _______ _______ _______ _____ _____    ______ ____
ROOT
ATOM      1  N   UNL     1      32.596 -23.328 -15.336  0.00  0.00    +0.394 N 
ATOM      2  C   UNL     1      32.736 -24.312 -14.256  0.00  0.00    -0.000 C 
ATOM      3  C   UNL     1      33.994 -24.030 -13.437  0.00  0.00    +0.124 C 
ATOM      4  C   UNL     1      31.386 -24.184 -13.553  0.00  0.00    +0.092 C 
ATOM      5  C   UNL     1      31.278 -23.573 -15.912  0.00  0.00    -0.074 C 
ATOM      6  C   UNL     1      33.693 -23.415 -16.290  0.00  0.00    -0.030 C 
ATOM      7  C   UNL     1      35.226 -24.034 -14.354  0.00  0.00    +0.173 C 
ATOM      8  C   UNL     1      30.406 -23.894 -14.697  0.00  0.00    +0.004 C 
ATOM      9  C   UNL     1      35.020 -23.131 -15.576  0.00  0.00    +0.177 C 
ATOM     10  H   UNL     1      32.654 -22.367 -14.999  0.00  0.00    -0.079 HD
ENDROOT
BRANCH   3  11
ATOM     11  O   UNL     1      34.164 -25.051 -12.456  0.00  0.00    -0.384 OA
ATOM     12  H   UNL     1      33.331 -25.184 -11.979  0.00  0.00    +0.210 HD
ENDBRANCH   3  11
BRANCH   4  13
ATOM     13  O   UNL     1      31.355 -23.096 -12.639  0.00  0.00    -0.387 OA
ATOM     14  H   UNL     1      31.006 -22.308 -13.086  0.00  0.00    +0.210 HD
ENDBRANCH   4  13
BRANCH   7  15
ATOM     15  O   UNL     1      36.354 -23.547 -13.623  0.00  0.00    -0.379 OA
ATOM     16  H   UNL     1      36.068 -23.260 -12.742  0.00  0.00    +0.211 HD
ENDBRANCH   7  15
BRANCH   9  17
ATOM     17  O   UNL     1      36.079 -23.348 -16.507  0.00  0.00    -0.452 OA
BRANCH  17  19
ATOM     18  O   UNL     1      38.112 -22.592 -15.717  0.00  0.00    -0.250 OA
ATOM     19  C   UNL     1      37.125 -22.468 -16.430  0.00  0.00    +0.317 C 
BRANCH  19  20
ATOM     20  C   UNL     1      36.866 -21.313 -17.369  0.00  0.00    +0.110 C 
BRANCH  20  21
ATOM     21  C   UNL     1      36.157 -21.760 -18.645  0.00  0.00    +0.012 C 
ATOM     22  C   UNL     1      36.539 -20.888 -19.830  0.00  0.00    +0.001 C 
ENDBRANCH  20  21
ENDBRANCH  19  20
ENDBRANCH  17  19
ENDBRANCH   9  17
TORSDOF 7
ENDMDL
