MODEL 1
REMARK VINA RESULT:      -9.0      0.000      0.000
REMARK  Name = 1184681
REMARK  3 active torsions:
REMARK  status: ('A' for Active; 'I' for Inactive)
REMARK    1  A    between atoms: N_2  and  C_7
REMARK    2  A    between atoms: C_3  and  C_15
REMARK    3  A    between atoms: C_12  and  O_13
REMARK                            x       y       z     vdW  Elec       q    Type
REMARK                         _______ _______ _______ _____ _____    ______ ____
ROOT
ATOM      1  O   UNL     1      33.817 -23.811 -19.023  0.00  0.00    -0.270 OA
ATOM      2  N   UNL     1      33.334 -22.239 -17.349  0.00  0.00    -0.280 N 
ATOM      3  C   UNL     1      33.717 -22.635 -18.639  0.00  0.00    +0.249 C 
ATOM      4  H   UNL     1      33.299 -21.269 -17.191  0.00  0.00    +0.155 HD
ENDROOT
BRANCH   2   7
ATOM      5 BR   UNL     1      29.616 -25.085 -14.969  0.00  0.00    -0.046 Br
ATOM      6 BR   UNL     1      34.922 -24.453 -12.859  0.00  0.00    -0.046 Br
ATOM      7  C   UNL     1      32.991 -23.055 -16.242  0.00  0.00    +0.052 C 
ATOM      8  C   UNL     1      33.943 -23.310 -15.270  0.00  0.00    +0.024 C 
ATOM      9  C   UNL     1      31.711 -23.575 -16.157  0.00  0.00    +0.024 C 
ATOM     10  C   UNL     1      31.373 -24.378 -15.067  0.00  0.00    +0.070 C 
ATOM     11  C   UNL     1      33.605 -24.113 -14.180  0.00  0.00    +0.070 C 
ATOM     12  C   UNL     1      32.320 -24.647 -14.079  0.00  0.00    +0.146 C 
BRANCH  12  13
ATOM     13  O   UNL     1      31.989 -25.432 -13.013  0.00  0.00    -0.505 OA
ATOM     14  H   UNL     1      32.024 -26.366 -13.089  0.00  0.00    +0.292 HD
ENDBRANCH  12  13
ENDBRANCH   2   7
BRANCH   3  15
ATOM     15  C   UNL     1      34.037 -21.559 -19.563  0.00  0.00    +0.054 C 
ATOM     16  C   UNL     1      35.368 -21.270 -19.863  0.00  0.00    +0.005 C 
ATOM     17  C   UNL     1      33.013 -20.816 -20.149  0.00  0.00    +0.005 C 
ATOM     18  C   UNL     1      35.675 -20.238 -20.750  0.00  0.00    +0.000 C 
ATOM     19  C   UNL     1      33.321 -19.784 -21.036  0.00  0.00    +0.000 C 
ATOM     20  C   UNL     1      34.652 -19.495 -21.337  0.00  0.00    +0.000 C 
ENDBRANCH   3  15
TORSDOF 3
ENDMDL
MODEL 2
REMARK VINA RESULT:      -9.0      0.022      2.228
REMARK  Name = 1184681
REMARK  3 active torsions:
REMARK  status: ('A' for Active; 'I' for Inactive)
REMARK    1  A    between atoms: N_2  and  C_7
REMARK    2  A    between atoms: C_3  and  C_15
REMARK    3  A    between atoms: C_12  and  O_13
REMARK                            x       y       z     vdW  Elec       q    Type
REMARK                         _______ _______ _______ _____ _____    ______ ____
ROOT
ATOM      1  O   UNL     1      33.818 -23.811 -19.038  0.00  0.00    -0.270 OA
ATOM      2  N   UNL     1      33.344 -22.242 -17.359  0.00  0.00    -0.280 N 
ATOM      3  C   UNL     1      33.725 -22.636 -18.650  0.00  0.00    +0.249 C 
ATOM      4  H   UNL     1      33.314 -21.271 -17.199  0.00  0.00    +0.155 HD
ENDROOT
BRANCH   2   7
ATOM      5 BR   UNL     1      34.921 -24.489 -12.881  0.00  0.00    -0.046 Br
ATOM      6 BR   UNL     1      29.604 -25.061 -14.983  0.00  0.00    -0.046 Br
ATOM      7  C   UNL     1      32.995 -23.058 -16.255  0.00  0.00    +0.052 C 
ATOM      8  C   UNL     1      31.711 -23.568 -16.170  0.00  0.00    +0.024 C 
ATOM      9  C   UNL     1      33.948 -23.328 -15.287  0.00  0.00    +0.024 C 
ATOM     10  C   UNL     1      33.605 -24.132 -14.199  0.00  0.00    +0.070 C 
ATOM     11  C   UNL     1      31.368 -24.372 -15.083  0.00  0.00    +0.070 C 
ATOM     12  C   UNL     1      32.315 -24.654 -14.097  0.00  0.00    +0.146 C 
BRANCH  12  13
ATOM     13  O   UNL     1      31.980 -25.440 -13.033  0.00  0.00    -0.505 OA
ATOM     14  H   UNL     1      32.053 -26.372 -13.096  0.00  0.00    +0.292 HD
ENDBRANCH  12  13
ENDBRANCH   2   7
BRANCH   3  15
ATOM     15  C   UNL     1      34.051 -21.559 -19.571  0.00  0.00    +0.054 C 
ATOM     16  C   UNL     1      35.384 -21.271 -19.864  0.00  0.00    +0.005 C 
ATOM     17  C   UNL     1      33.031 -20.813 -20.162  0.00  0.00    +0.005 C 
ATOM     18  C   UNL     1      35.697 -20.238 -20.747  0.00  0.00    +0.000 C 
ATOM     19  C   UNL     1      33.344 -19.781 -21.046  0.00  0.00    +0.000 C 
ATOM     20  C   UNL     1      34.677 -19.493 -21.339  0.00  0.00    +0.000 C 
ENDBRANCH   3  15
TORSDOF 3
ENDMDL
MODEL 3
REMARK VINA RESULT:      -8.9      1.777      3.208
REMARK  Name = 1184681
REMARK  3 active torsions:
REMARK  status: ('A' for Active; 'I' for Inactive)
REMARK    1  A    between atoms: N_2  and  C_7
REMARK    2  A    between atoms: C_3  and  C_15
REMARK    3  A    between atoms: C_12  and  O_13
REMARK                            x       y       z     vdW  Elec       q    Type
REMARK                         _______ _______ _______ _____ _____    ______ ____
ROOT
ATOM      1  O   UNL     1      33.819 -23.496 -18.892  0.00  0.00    -0.270 OA
ATOM      2  N   UNL     1      35.013 -22.154 -17.383  0.00  0.00    -0.280 N 
ATOM      3  C   UNL     1      34.382 -22.428 -18.605  0.00  0.00    +0.249 C 
ATOM      4  H   UNL     1      35.416 -21.260 -17.300  0.00  0.00    +0.155 HD
ENDROOT
BRANCH   2   7
ATOM      5 BR   UNL     1      38.279 -24.754 -14.196  0.00  0.00    -0.046 Br
ATOM      6 BR   UNL     1      32.571 -24.777 -13.544  0.00  0.00    -0.046 Br
ATOM      7  C   UNL     1      35.146 -22.996 -16.251  0.00  0.00    +0.052 C 
ATOM      8  C   UNL     1      34.009 -23.402 -15.574  0.00  0.00    +0.024 C 
ATOM      9  C   UNL     1      36.409 -23.393 -15.849  0.00  0.00    +0.024 C 
ATOM     10  C   UNL     1      36.540 -24.222 -14.734  0.00  0.00    +0.070 C 
ATOM     11  C   UNL     1      34.140 -24.231 -14.459  0.00  0.00    +0.070 C 
ATOM     12  C   UNL     1      35.405 -24.641 -14.039  0.00  0.00    +0.146 C 
BRANCH  12  13
ATOM     13  O   UNL     1      35.534 -25.452 -12.949  0.00  0.00    -0.505 OA
ATOM     14  H   UNL     1      35.332 -26.365 -13.016  0.00  0.00    +0.292 HD
ENDBRANCH  12  13
ENDBRANCH   2   7
BRANCH   3  15
ATOM     15  C   UNL     1      34.430 -21.365 -19.596  0.00  0.00    +0.054 C 
ATOM     16  C   UNL     1      33.247 -20.799 -20.071  0.00  0.00    +0.005 C 
ATOM     17  C   UNL     1      35.660 -20.911 -20.072  0.00  0.00    +0.005 C 
ATOM     18  C   UNL     1      33.294 -19.780 -21.022  0.00  0.00    +0.000 C 
ATOM     19  C   UNL     1      35.707 -19.891 -21.023  0.00  0.00    +0.000 C 
ATOM     20  C   UNL     1      34.524 -19.325 -21.498  0.00  0.00    +0.000 C 
ENDBRANCH   3  15
TORSDOF 3
ENDMDL
MODEL 4
REMARK VINA RESULT:      -8.9      1.792      2.457
REMARK  Name = 1184681
REMARK  3 active torsions:
REMARK  status: ('A' for Active; 'I' for Inactive)
REMARK    1  A    between atoms: N_2  and  C_7
REMARK    2  A    between atoms: C_3  and  C_15
REMARK    3  A    between atoms: C_12  and  O_13
REMARK                            x       y       z     vdW  Elec       q    Type
REMARK                         _______ _______ _______ _____ _____    ______ ____
ROOT
ATOM      1  O   UNL     1      33.797 -23.483 -18.852  0.00  0.00    -0.270 OA
ATOM      2  N   UNL     1      35.051 -22.170 -17.366  0.00  0.00    -0.280 N 
ATOM      3  C   UNL     1      34.393 -22.430 -18.577  0.00  0.00    +0.249 C 
ATOM      4  H   UNL     1      35.479 -21.287 -17.292  0.00  0.00    +0.155 HD
ENDROOT
BRANCH   2   7
ATOM      5 BR   UNL     1      32.600 -24.802 -13.538  0.00  0.00    -0.046 Br
ATOM      6 BR   UNL     1      38.310 -24.772 -14.174  0.00  0.00    -0.046 Br
ATOM      7  C   UNL     1      35.181 -23.014 -16.234  0.00  0.00    +0.052 C 
ATOM      8  C   UNL     1      36.444 -23.409 -15.829  0.00  0.00    +0.024 C 
ATOM      9  C   UNL     1      34.043 -23.420 -15.560  0.00  0.00    +0.024 C 
ATOM     10  C   UNL     1      34.171 -24.251 -14.447  0.00  0.00    +0.070 C 
ATOM     11  C   UNL     1      36.572 -24.239 -14.715  0.00  0.00    +0.070 C 
ATOM     12  C   UNL     1      35.436 -24.660 -14.024  0.00  0.00    +0.146 C 
BRANCH  12  13
ATOM     13  O   UNL     1      35.560 -25.473 -12.934  0.00  0.00    -0.505 OA
ATOM     14  H   UNL     1      36.171 -25.258 -12.256  0.00  0.00    +0.292 HD
ENDBRANCH  12  13
ENDBRANCH   2   7
BRANCH   3  15
ATOM     15  C   UNL     1      34.453 -21.370 -19.571  0.00  0.00    +0.054 C 
ATOM     16  C   UNL     1      33.275 -20.820 -20.076  0.00  0.00    +0.005 C 
ATOM     17  C   UNL     1      35.688 -20.904 -20.020  0.00  0.00    +0.005 C 
ATOM     18  C   UNL     1      33.332 -19.804 -21.030  0.00  0.00    +0.000 C 
ATOM     19  C   UNL     1      35.745 -19.887 -20.973  0.00  0.00    +0.000 C 
ATOM     20  C   UNL     1      34.567 -19.337 -21.478  0.00  0.00    +0.000 C 
ENDBRANCH   3  15
TORSDOF 3
ENDMDL
MODEL 5
REMARK VINA RESULT:      -8.7      8.232     11.092
REMARK  Name = 1184681
REMARK  3 active torsions:
REMARK  status: ('A' for Active; 'I' for Inactive)
REMARK    1  A    between atoms: N_2  and  C_7
REMARK    2  A    between atoms: C_3  and  C_15
REMARK    3  A    between atoms: C_12  and  O_13
REMARK                            x       y       z     vdW  Elec       q    Type
REMARK                         _______ _______ _______ _____ _____    ______ ____
ROOT
ATOM      1  O   UNL     1      34.956 -15.323 -20.267  0.00  0.00    -0.270 OA
ATOM      2  N   UNL     1      33.480 -15.501 -22.082  0.00  0.00    -0.280 N 
ATOM      3  C   UNL     1      34.322 -16.011 -21.083  0.00  0.00    +0.249 C 
ATOM      4  H   UNL     1      33.043 -16.169 -22.657  0.00  0.00    +0.155 HD
ENDROOT
BRANCH   2   7
ATOM      5 BR   UNL     1      30.838 -11.185 -20.674  0.00  0.00    -0.046 Br
ATOM      6 BR   UNL     1      34.237 -11.419 -25.300  0.00  0.00    -0.046 Br
ATOM      7  C   UNL     1      33.176 -14.147 -22.374  0.00  0.00    +0.052 C 
ATOM      8  C   UNL     1      33.746 -13.552 -23.486  0.00  0.00    +0.024 C 
ATOM      9  C   UNL     1      32.315 -13.454 -21.541  0.00  0.00    +0.024 C 
ATOM     10  C   UNL     1      32.017 -12.121 -21.827  0.00  0.00    +0.070 C 
ATOM     11  C   UNL     1      33.446 -12.219 -23.773  0.00  0.00    +0.070 C 
ATOM     12  C   UNL     1      32.582 -11.504 -22.944  0.00  0.00    +0.146 C 
BRANCH  12  13
ATOM     13  O   UNL     1      32.289 -10.201 -23.224  0.00  0.00    -0.505 OA
ATOM     14  H   UNL     1      32.460  -9.854 -24.078  0.00  0.00    +0.292 HD
ENDBRANCH  12  13
ENDBRANCH   2   7
BRANCH   3  15
ATOM     15  C   UNL     1      34.458 -17.458 -21.046  0.00  0.00    +0.054 C 
ATOM     16  C   UNL     1      35.723 -18.042 -21.107  0.00  0.00    +0.005 C 
ATOM     17  C   UNL     1      33.322 -18.262 -20.950  0.00  0.00    +0.005 C 
ATOM     18  C   UNL     1      35.853 -19.430 -21.072  0.00  0.00    +0.000 C 
ATOM     19  C   UNL     1      33.453 -19.651 -20.914  0.00  0.00    +0.000 C 
ATOM     20  C   UNL     1      34.718 -20.235 -20.975  0.00  0.00    +0.000 C 
ENDBRANCH   3  15
TORSDOF 3
ENDMDL
MODEL 6
REMARK VINA RESULT:      -8.7      8.232     11.202
REMARK  Name = 1184681
REMARK  3 active torsions:
REMARK  status: ('A' for Active; 'I' for Inactive)
REMARK    1  A    between atoms: N_2  and  C_7
REMARK    2  A    between atoms: C_3  and  C_15
REMARK    3  A    between atoms: C_12  and  O_13
REMARK                            x       y       z     vdW  Elec       q    Type
REMARK                         _______ _______ _______ _____ _____    ______ ____
ROOT
ATOM      1  O   UNL     1      34.954 -15.324 -20.271  0.00  0.00    -0.270 OA
ATOM      2  N   UNL     1      33.476 -15.501 -22.084  0.00  0.00    -0.280 N 
ATOM      3  C   UNL     1      34.319 -16.011 -21.086  0.00  0.00    +0.249 C 
ATOM      4  H   UNL     1      33.037 -16.170 -22.657  0.00  0.00    +0.155 HD
ENDROOT
BRANCH   2   7
ATOM      5 BR   UNL     1      34.230 -11.422 -25.305  0.00  0.00    -0.046 Br
ATOM      6 BR   UNL     1      30.840 -11.184 -20.673  0.00  0.00    -0.046 Br
ATOM      7  C   UNL     1      33.173 -14.148 -22.376  0.00  0.00    +0.052 C 
ATOM      8  C   UNL     1      32.315 -13.452 -21.541  0.00  0.00    +0.024 C 
ATOM      9  C   UNL     1      33.742 -13.552 -23.488  0.00  0.00    +0.024 C 
ATOM     10  C   UNL     1      33.443 -12.220 -23.776  0.00  0.00    +0.070 C 
ATOM     11  C   UNL     1      32.017 -12.120 -21.828  0.00  0.00    +0.070 C 
ATOM     12  C   UNL     1      32.581 -11.504 -22.945  0.00  0.00    +0.146 C 
BRANCH  12  13
ATOM     13  O   UNL     1      32.289 -10.201 -23.227  0.00  0.00    -0.505 OA
ATOM     14  H   UNL     1      32.588  -9.815 -24.027  0.00  0.00    +0.292 HD
ENDBRANCH  12  13
ENDBRANCH   2   7
BRANCH   3  15
ATOM     15  C   UNL     1      34.453 -17.458 -21.048  0.00  0.00    +0.054 C 
ATOM     16  C   UNL     1      33.318 -18.261 -20.940  0.00  0.00    +0.005 C 
ATOM     17  C   UNL     1      35.717 -18.044 -21.119  0.00  0.00    +0.005 C 
ATOM     18  C   UNL     1      33.446 -19.650 -20.902  0.00  0.00    +0.000 C 
ATOM     19  C   UNL     1      35.845 -19.433 -21.082  0.00  0.00    +0.000 C 
ATOM     20  C   UNL     1      34.710 -20.236 -20.974  0.00  0.00    +0.000 C 
ENDBRANCH   3  15
TORSDOF 3
ENDMDL
MODEL 7
REMARK VINA RESULT:      -8.6      3.073      3.883
REMARK  Name = 1184681
REMARK  3 active torsions:
REMARK  status: ('A' for Active; 'I' for Inactive)
REMARK    1  A    between atoms: N_2  and  C_7
REMARK    2  A    between atoms: C_3  and  C_15
REMARK    3  A    between atoms: C_12  and  O_13
REMARK                            x       y       z     vdW  Elec       q    Type
REMARK                         _______ _______ _______ _____ _____    ______ ____
ROOT
ATOM      1  O   UNL     1      34.284 -23.659 -17.082  0.00  0.00    -0.270 OA
ATOM      2  N   UNL     1      36.329 -22.632 -16.565  0.00  0.00    -0.280 N 
ATOM      3  C   UNL     1      35.161 -22.814 -17.320  0.00  0.00    +0.249 C 
ATOM      4  H   UNL     1      36.933 -21.920 -16.876  0.00  0.00    +0.155 HD
ENDROOT
BRANCH   2   7
ATOM      5 BR   UNL     1      35.224 -24.084 -11.640  0.00  0.00    -0.046 Br
ATOM      6 BR   UNL     1      40.071 -25.572 -14.343  0.00  0.00    -0.046 Br
ATOM      7  C   UNL     1      36.754 -23.339 -15.413  0.00  0.00    +0.052 C 
ATOM      8  C   UNL     1      37.976 -23.990 -15.432  0.00  0.00    +0.024 C 
ATOM      9  C   UNL     1      35.938 -23.363 -14.295  0.00  0.00    +0.024 C 
ATOM     10  C   UNL     1      36.356 -24.060 -13.161  0.00  0.00    +0.070 C 
ATOM     11  C   UNL     1      38.394 -24.686 -14.298  0.00  0.00    +0.070 C 
ATOM     12  C   UNL     1      37.585 -24.721 -13.163  0.00  0.00    +0.146 C 
BRANCH  12  13
ATOM     13  O   UNL     1      37.993 -25.403 -12.053  0.00  0.00    -0.505 OA
ATOM     14  H   UNL     1      37.365 -25.682 -11.416  0.00  0.00    +0.292 HD
ENDBRANCH  12  13
ENDBRANCH   2   7
BRANCH   3  15
ATOM     15  C   UNL     1      35.012 -21.945 -18.476  0.00  0.00    +0.054 C 
ATOM     16  C   UNL     1      36.136 -21.361 -19.060  0.00  0.00    +0.005 C 
ATOM     17  C   UNL     1      33.744 -21.694 -19.000  0.00  0.00    +0.005 C 
ATOM     18  C   UNL     1      35.992 -20.526 -20.168  0.00  0.00    +0.000 C 
ATOM     19  C   UNL     1      33.600 -20.859 -20.109  0.00  0.00    +0.000 C 
ATOM     20  C   UNL     1      34.724 -20.276 -20.693  0.00  0.00    +0.000 C 
ENDBRANCH   3  15
TORSDOF 3
ENDMDL
MODEL 8
REMARK VINA RESULT:      -8.6      7.342     10.257
REMARK  Name = 1184681
REMARK  3 active torsions:
REMARK  status: ('A' for Active; 'I' for Inactive)
REMARK    1  A    between atoms: N_2  and  C_7
REMARK    2  A    between atoms: C_3  and  C_15
REMARK    3  A    between atoms: C_12  and  O_13
REMARK                            x       y       z     vdW  Elec       q    Type
REMARK                         _______ _______ _______ _____ _____    ______ ____
ROOT
ATOM      1  O   UNL     1      35.457 -17.093 -22.559  0.00  0.00    -0.270 OA
ATOM      2  N   UNL     1      33.519 -16.585 -21.338  0.00  0.00    -0.280 N 
ATOM      3  C   UNL     1      34.589 -17.403 -21.728  0.00  0.00    +0.249 C 
ATOM      4  H   UNL     1      32.909 -16.967 -20.667  0.00  0.00    +0.155 HD
ENDROOT
BRANCH   2   7
ATOM      5 BR   UNL     1      31.681 -11.830 -20.074  0.00  0.00    -0.046 Br
ATOM      6 BR   UNL     1      33.375 -13.235 -25.380  0.00  0.00    -0.046 Br
ATOM      7  C   UNL     1      33.199 -15.279 -21.786  0.00  0.00    +0.052 C 
ATOM      8  C   UNL     1      33.403 -14.952 -23.116  0.00  0.00    +0.024 C 
ATOM      9  C   UNL     1      32.689 -14.361 -20.884  0.00  0.00    +0.024 C 
ATOM     10  C   UNL     1      32.375 -13.075 -21.324  0.00  0.00    +0.070 C 
ATOM     11  C   UNL     1      33.088 -13.666 -23.556  0.00  0.00    +0.070 C 
ATOM     12  C   UNL     1      32.574 -12.727 -22.661  0.00  0.00    +0.146 C 
BRANCH  12  13
ATOM     13  O   UNL     1      32.267 -11.469 -23.091  0.00  0.00    -0.505 OA
ATOM     14  H   UNL     1      32.698 -10.726 -22.716  0.00  0.00    +0.292 HD
ENDBRANCH  12  13
ENDBRANCH   2   7
BRANCH   3  15
ATOM     15  C   UNL     1      34.641 -18.717 -21.107  0.00  0.00    +0.054 C 
ATOM     16  C   UNL     1      33.459 -19.381 -20.779  0.00  0.00    +0.005 C 
ATOM     17  C   UNL     1      35.873 -19.314 -20.839  0.00  0.00    +0.005 C 
ATOM     18  C   UNL     1      33.508 -20.641 -20.183  0.00  0.00    +0.000 C 
ATOM     19  C   UNL     1      35.922 -20.575 -20.243  0.00  0.00    +0.000 C 
ATOM     20  C   UNL     1      34.740 -21.238 -19.916  0.00  0.00    +0.000 C 
ENDBRANCH   3  15
TORSDOF 3
ENDMDL
MODEL 9
REMARK VINA RESULT:      -8.6      3.027      4.334
REMARK  Name = 1184681
REMARK  3 active torsions:
REMARK  status: ('A' for Active; 'I' for Inactive)
REMARK    1  A    between atoms: N_2  and  C_7
REMARK    2  A    between atoms: C_3  and  C_15
REMARK    3  A    between atoms: C_12  and  O_13
REMARK                            x       y       z     vdW  Elec       q    Type
REMARK                         _______ _______ _______ _____ _____    ______ ____
ROOT
ATOM      1  O   UNL     1      34.226 -23.680 -17.108  0.00  0.00    -0.270 OA
ATOM      2  N   UNL     1      36.252 -22.619 -16.586  0.00  0.00    -0.280 N 
ATOM      3  C   UNL     1      35.089 -22.820 -17.343  0.00  0.00    +0.249 C 
ATOM      4  H   UNL     1      36.845 -21.897 -16.895  0.00  0.00    +0.155 HD
ENDROOT
BRANCH   2   7
ATOM      5 BR   UNL     1      40.021 -25.527 -14.367  0.00  0.00    -0.046 Br
ATOM      6 BR   UNL     1      35.177 -24.058 -11.651  0.00  0.00    -0.046 Br
ATOM      7  C   UNL     1      36.687 -23.320 -15.433  0.00  0.00    +0.052 C 
ATOM      8  C   UNL     1      35.874 -23.345 -14.312  0.00  0.00    +0.024 C 
ATOM      9  C   UNL     1      37.911 -23.964 -15.455  0.00  0.00    +0.024 C 
ATOM     10  C   UNL     1      38.339 -24.653 -14.320  0.00  0.00    +0.070 C 
ATOM     11  C   UNL     1      36.302 -24.035 -13.178  0.00  0.00    +0.070 C 
ATOM     12  C   UNL     1      37.534 -24.689 -13.181  0.00  0.00    +0.146 C 
BRANCH  12  13
ATOM     13  O   UNL     1      37.953 -25.364 -12.071  0.00  0.00    -0.505 OA
ATOM     14  H   UNL     1      38.198 -24.892 -11.300  0.00  0.00    +0.292 HD
ENDBRANCH  12  13
ENDBRANCH   2   7
BRANCH   3  15
ATOM     15  C   UNL     1      34.927 -21.953 -18.499  0.00  0.00    +0.054 C 
ATOM     16  C   UNL     1      33.655 -21.709 -19.015  0.00  0.00    +0.005 C 
ATOM     17  C   UNL     1      36.045 -21.365 -19.092  0.00  0.00    +0.005 C 
ATOM     18  C   UNL     1      33.499 -20.877 -20.124  0.00  0.00    +0.000 C 
ATOM     19  C   UNL     1      35.889 -20.532 -20.201  0.00  0.00    +0.000 C 
ATOM     20  C   UNL     1      34.616 -20.288 -20.717  0.00  0.00    +0.000 C 
ENDBRANCH   3  15
TORSDOF 3
ENDMDL
