MODEL 1
REMARK VINA RESULT:     -11.2      0.000      0.000
REMARK  Name = 11464526
REMARK  8 active torsions:
REMARK  status: ('A' for Active; 'I' for Inactive)
REMARK    1  A    between atoms: N_1  and  C_19
REMARK    2  A    between atoms: N_3  and  C_12
REMARK    3  A    between atoms: C_11  and  C_18
REMARK    4  A    between atoms: C_20  and  O_25
REMARK    5  A    between atoms: O_25  and  C_26
REMARK    6  A    between atoms: C_26  and  C_27
REMARK    7  A    between atoms: C_27  and  C_28
REMARK    8  A    between atoms: C_28  and  N_29
REMARK                            x       y       z     vdW  Elec       q    Type
REMARK                         _______ _______ _______ _____ _____    ______ ____
ROOT
ATOM      1  N   UNL     1      33.054 -14.329 -23.212  0.00  0.00    -0.284 N 
ATOM      2  H   UNL     1      32.419 -14.555 -22.495  0.00  0.00    +0.155 HD
ATOM      3  N   UNL     1      31.796 -10.026 -22.124  0.00  0.00    -0.262 N 
ATOM      4  N   UNL     1      31.530 -12.192 -21.675  0.00  0.00    -0.240 NA
ATOM      5  N   UNL     1      33.427 -10.167 -23.919  0.00  0.00    -0.315 NA
ATOM      6  N   UNL     1      34.011 -12.487 -24.403  0.00  0.00    -0.315 NA
ATOM      7  C   UNL     1      32.618 -10.693 -22.986  0.00  0.00    +0.219 C 
ATOM      8  C   UNL     1      31.165 -10.968 -21.357  0.00  0.00    +0.222 C 
ATOM      9  C   UNL     1      32.438 -12.035 -22.692  0.00  0.00    +0.168 C 
ATOM     10  C   UNL     1      33.174 -12.948 -23.442  0.00  0.00    +0.218 C 
ATOM     11  C   UNL     1      34.085 -11.146 -24.579  0.00  0.00    +0.215 C 
ENDROOT
BRANCH   1  12
ATOM     12  C   UNL     1      33.663 -15.456 -23.806  0.00  0.00    +0.085 C 
ATOM     13  C   UNL     1      34.417 -16.342 -23.036  0.00  0.00    +0.152 C 
ATOM     14  C   UNL     1      33.504 -15.680 -25.172  0.00  0.00    +0.018 C 
ATOM     15  C   UNL     1      35.014 -17.453 -23.636  0.00  0.00    +0.038 C 
ATOM     16  C   UNL     1      34.100 -16.790 -25.771  0.00  0.00    +0.001 C 
ATOM     17  C   UNL     1      34.855 -17.675 -25.003  0.00  0.00    +0.003 C 
BRANCH  13  18
ATOM     18  O   UNL     1      34.585 -16.142 -21.698  0.00  0.00    -0.474 OA
BRANCH  18  19
ATOM     19  C   UNL     1      35.199 -17.194 -20.959  0.00  0.00    +0.207 C 
BRANCH  19  20
ATOM     20  C   UNL     1      34.282 -18.411 -20.987  0.00  0.00    +0.069 C 
BRANCH  20  21
ATOM     21  C   UNL     1      35.035 -19.740 -20.939  0.00  0.00    +0.101 C 
BRANCH  21  22
ATOM     22  N   UNL     1      34.401 -20.746 -20.095  0.00  0.00    -0.268 N 
ATOM     23  N   UNL     1      32.807 -21.862 -19.055  0.00  0.00    -0.225 NA
ATOM     24  C   UNL     1      35.042 -21.730 -19.416  0.00  0.00    +0.088 C 
ATOM     25  C   UNL     1      33.067 -20.854 -19.858  0.00  0.00    +0.168 C 
ATOM     26  C   UNL     1      34.034 -22.412 -18.776  0.00  0.00    +0.117 C 
ENDBRANCH  21  22
ENDBRANCH  20  21
ENDBRANCH  19  20
ENDBRANCH  18  19
ENDBRANCH  13  18
ENDBRANCH   1  12
BRANCH   3  27
ATOM     27  C   UNL     1      31.617  -8.579 -22.029  0.00  0.00    +0.077 C 
ATOM     28  C   UNL     1      32.909  -7.828 -21.666  0.00  0.00    +0.020 C 
ATOM     29  C   UNL     1      31.081  -7.917 -23.313  0.00  0.00    +0.020 C 
ATOM     30  C   UNL     1      32.823  -6.522 -22.444  0.00  0.00    +0.002 C 
ATOM     31  C   UNL     1      32.164  -6.936 -23.749  0.00  0.00    +0.002 C 
ENDBRANCH   3  27
BRANCH  11  33
ATOM     32  N   UNL     1      35.709 -10.351 -26.434  0.00  0.00    -0.178 NA
ATOM     33  C   UNL     1      34.978 -10.708 -25.598  0.00  0.00    +0.198 C 
ENDBRANCH  11  33
TORSDOF 8
ENDMDL
MODEL 2
REMARK VINA RESULT:     -10.1      7.629     13.068
REMARK  Name = 11464526
REMARK  8 active torsions:
REMARK  status: ('A' for Active; 'I' for Inactive)
REMARK    1  A    between atoms: N_1  and  C_19
REMARK    2  A    between atoms: N_3  and  C_12
REMARK    3  A    between atoms: C_11  and  C_18
REMARK    4  A    between atoms: C_20  and  O_25
REMARK    5  A    between atoms: O_25  and  C_26
REMARK    6  A    between atoms: C_26  and  C_27
REMARK    7  A    between atoms: C_27  and  C_28
REMARK    8  A    between atoms: C_28  and  N_29
REMARK                            x       y       z     vdW  Elec       q    Type
REMARK                         _______ _______ _______ _____ _____    ______ ____
ROOT
ATOM      1  N   UNL     1      35.469 -24.431 -14.154  0.00  0.00    -0.284 N 
ATOM      2  H   UNL     1      35.252 -24.493 -13.196  0.00  0.00    +0.155 HD
ATOM      3  N   UNL     1      30.956 -23.531 -14.486  0.00  0.00    -0.262 N 
ATOM      4  N   UNL     1      32.645 -24.002 -13.110  0.00  0.00    -0.240 NA
ATOM      5  N   UNL     1      32.136 -23.527 -16.610  0.00  0.00    -0.315 NA
ATOM      6  N   UNL     1      34.508 -24.014 -16.306  0.00  0.00    -0.315 NA
ATOM      7  C   UNL     1      32.063 -23.657 -15.276  0.00  0.00    +0.219 C 
ATOM      8  C   UNL     1      31.356 -23.746 -13.195  0.00  0.00    +0.222 C 
ATOM      9  C   UNL     1      33.098 -23.950 -14.404  0.00  0.00    +0.168 C 
ATOM     10  C   UNL     1      34.360 -24.131 -14.964  0.00  0.00    +0.218 C 
ATOM     11  C   UNL     1      33.403 -23.724 -17.035  0.00  0.00    +0.215 C 
ENDROOT
BRANCH   1  12
ATOM     12  C   UNL     1      36.832 -24.660 -14.442  0.00  0.00    +0.085 C 
ATOM     13  C   UNL     1      37.586 -23.697 -15.112  0.00  0.00    +0.152 C 
ATOM     14  C   UNL     1      37.423 -25.859 -14.048  0.00  0.00    +0.018 C 
ATOM     15  C   UNL     1      38.934 -23.936 -15.390  0.00  0.00    +0.038 C 
ATOM     16  C   UNL     1      38.769 -26.098 -14.325  0.00  0.00    +0.001 C 
ATOM     17  C   UNL     1      39.524 -25.137 -14.996  0.00  0.00    +0.003 C 
BRANCH  13  18
ATOM     18  O   UNL     1      37.028 -22.517 -15.506  0.00  0.00    -0.474 OA
BRANCH  18  19
ATOM     19  C   UNL     1      37.562 -21.909 -16.680  0.00  0.00    +0.207 C 
BRANCH  19  20
ATOM     20  C   UNL     1      36.408 -21.534 -17.602  0.00  0.00    +0.069 C 
BRANCH  20  21
ATOM     21  C   UNL     1      36.770 -21.604 -19.086  0.00  0.00    +0.101 C 
BRANCH  21  22
ATOM     22  N   UNL     1      36.167 -20.547 -19.889  0.00  0.00    -0.268 N 
ATOM     23  N   UNL     1      36.007 -18.709 -21.100  0.00  0.00    -0.225 NA
ATOM     24  C   UNL     1      34.855 -20.453 -20.221  0.00  0.00    +0.088 C 
ATOM     25  C   UNL     1      36.826 -19.489 -20.429  0.00  0.00    +0.168 C 
ATOM     26  C   UNL     1      34.776 -19.305 -20.974  0.00  0.00    +0.117 C 
ENDBRANCH  21  22
ENDBRANCH  20  21
ENDBRANCH  19  20
ENDBRANCH  18  19
ENDBRANCH  13  18
ENDBRANCH   1  12
BRANCH   3  27
ATOM     27  C   UNL     1      29.597 -23.223 -14.926  0.00  0.00    +0.077 C 
ATOM     28  C   UNL     1      29.548 -22.269 -16.131  0.00  0.00    +0.020 C 
ATOM     29  C   UNL     1      28.760 -24.457 -15.319  0.00  0.00    +0.020 C 
ATOM     30  C   UNL     1      28.358 -22.749 -16.950  0.00  0.00    +0.002 C 
ATOM     31  C   UNL     1      28.410 -24.259 -16.790  0.00  0.00    +0.002 C 
ENDBRANCH   3  27
BRANCH  11  33
ATOM     32  N   UNL     1      33.773 -23.519 -19.591  0.00  0.00    -0.178 NA
ATOM     33  C   UNL     1      33.607 -23.611 -18.439  0.00  0.00    +0.198 C 
ENDBRANCH  11  33
TORSDOF 8
ENDMDL
MODEL 3
REMARK VINA RESULT:      -9.5      2.493      9.139
REMARK  Name = 11464526
REMARK  8 active torsions:
REMARK  status: ('A' for Active; 'I' for Inactive)
REMARK    1  A    between atoms: N_1  and  C_19
REMARK    2  A    between atoms: N_3  and  C_12
REMARK    3  A    between atoms: C_11  and  C_18
REMARK    4  A    between atoms: C_20  and  O_25
REMARK    5  A    between atoms: O_25  and  C_26
REMARK    6  A    between atoms: C_26  and  C_27
REMARK    7  A    between atoms: C_27  and  C_28
REMARK    8  A    between atoms: C_28  and  N_29
REMARK                            x       y       z     vdW  Elec       q    Type
REMARK                         _______ _______ _______ _____ _____    ______ ____
ROOT
ATOM      1  N   UNL     1      33.161 -12.447 -22.249  0.00  0.00    -0.284 N 
ATOM      2  H   UNL     1      33.374 -12.414 -21.289  0.00  0.00    +0.155 HD
ATOM      3  N   UNL     1      34.675 -16.782 -21.805  0.00  0.00    -0.262 N 
ATOM      4  N   UNL     1      34.287 -14.850 -20.764  0.00  0.00    -0.240 NA
ATOM      5  N   UNL     1      33.962 -16.197 -24.053  0.00  0.00    -0.315 NA
ATOM      6  N   UNL     1      33.185 -13.886 -24.161  0.00  0.00    -0.315 NA
ATOM      7  C   UNL     1      34.179 -15.935 -22.754  0.00  0.00    +0.219 C 
ATOM      8  C   UNL     1      34.721 -16.086 -20.628  0.00  0.00    +0.222 C 
ATOM      9  C   UNL     1      33.945 -14.743 -22.089  0.00  0.00    +0.168 C 
ATOM     10  C   UNL     1      33.429 -13.693 -22.842  0.00  0.00    +0.218 C 
ATOM     11  C   UNL     1      33.463 -15.107 -24.677  0.00  0.00    +0.215 C 
ENDROOT
BRANCH   1  12
ATOM     12  C   UNL     1      32.647 -11.234 -22.758  0.00  0.00    +0.085 C 
ATOM     13  C   UNL     1      31.417 -10.746 -22.318  0.00  0.00    +0.152 C 
ATOM     14  C   UNL     1      33.382 -10.523 -23.705  0.00  0.00    +0.018 C 
ATOM     15  C   UNL     1      30.921  -9.544 -22.829  0.00  0.00    +0.038 C 
ATOM     16  C   UNL     1      32.887  -9.323 -24.215  0.00  0.00    +0.001 C 
ATOM     17  C   UNL     1      31.657  -8.834 -23.777  0.00  0.00    +0.003 C 
BRANCH  13  18
ATOM     18  O   UNL     1      30.683 -11.425 -21.392  0.00  0.00    -0.474 OA
BRANCH  18  19
ATOM     19  C   UNL     1      31.252 -11.566 -20.092  0.00  0.00    +0.207 C 
BRANCH  19  20
ATOM     20  C   UNL     1      31.049 -10.263 -19.327  0.00  0.00    +0.069 C 
BRANCH  20  21
ATOM     21  C   UNL     1      32.332  -9.447 -19.170  0.00  0.00    +0.101 C 
BRANCH  21  22
ATOM     22  N   UNL     1      32.370  -8.245 -19.994  0.00  0.00    -0.268 N 
ATOM     23  N   UNL     1      33.091  -6.777 -21.475  0.00  0.00    -0.225 NA
ATOM     24  C   UNL     1      31.441  -7.255 -19.995  0.00  0.00    +0.088 C 
ATOM     25  C   UNL     1      33.341  -7.927 -20.888  0.00  0.00    +0.168 C 
ATOM     26  C   UNL     1      31.908  -6.353 -20.923  0.00  0.00    +0.117 C 
ENDBRANCH  21  22
ENDBRANCH  20  21
ENDBRANCH  19  20
ENDBRANCH  18  19
ENDBRANCH  13  18
ENDBRANCH   1  12
BRANCH   3  27
ATOM     27  C   UNL     1      35.082 -18.172 -21.999  0.00  0.00    +0.077 C 
ATOM     28  C   UNL     1      36.230 -18.605 -21.071  0.00  0.00    +0.020 C 
ATOM     29  C   UNL     1      33.953 -19.202 -21.797  0.00  0.00    +0.020 C 
ATOM     30  C   UNL     1      35.924 -20.059 -20.738  0.00  0.00    +0.002 C 
ATOM     31  C   UNL     1      34.408 -20.082 -20.638  0.00  0.00    +0.002 C 
ENDBRANCH   3  27
BRANCH  11  33
ATOM     32  N   UNL     1      32.968 -15.391 -27.204  0.00  0.00    -0.178 NA
ATOM     33  C   UNL     1      33.191 -15.264 -26.066  0.00  0.00    +0.198 C 
ENDBRANCH  11  33
TORSDOF 8
ENDMDL
MODEL 4
REMARK VINA RESULT:      -9.2     10.253     13.416
REMARK  Name = 11464526
REMARK  8 active torsions:
REMARK  status: ('A' for Active; 'I' for Inactive)
REMARK    1  A    between atoms: N_1  and  C_19
REMARK    2  A    between atoms: N_3  and  C_12
REMARK    3  A    between atoms: C_11  and  C_18
REMARK    4  A    between atoms: C_20  and  O_25
REMARK    5  A    between atoms: O_25  and  C_26
REMARK    6  A    between atoms: C_26  and  C_27
REMARK    7  A    between atoms: C_27  and  C_28
REMARK    8  A    between atoms: C_28  and  N_29
REMARK                            x       y       z     vdW  Elec       q    Type
REMARK                         _______ _______ _______ _____ _____    ______ ____
ROOT
ATOM      1  N   UNL     1      34.719 -24.095 -14.851  0.00  0.00    -0.284 N 
ATOM      2  H   UNL     1      34.540 -24.557 -14.000  0.00  0.00    +0.155 HD
ATOM      3  N   UNL     1      30.112 -23.948 -15.032  0.00  0.00    -0.262 N 
ATOM      4  N   UNL     1      31.889 -24.603 -13.859  0.00  0.00    -0.240 NA
ATOM      5  N   UNL     1      31.221 -22.925 -16.936  0.00  0.00    -0.315 NA
ATOM      6  N   UNL     1      33.648 -23.065 -16.727  0.00  0.00    -0.315 NA
ATOM      7  C   UNL     1      31.204 -23.566 -15.757  0.00  0.00    +0.219 C 
ATOM      8  C   UNL     1      30.574 -24.566 -13.902  0.00  0.00    +0.222 C 
ATOM      9  C   UNL     1      32.296 -23.982 -15.013  0.00  0.00    +0.168 C 
ATOM     10  C   UNL     1      33.556 -23.710 -15.538  0.00  0.00    +0.218 C 
ATOM     11  C   UNL     1      32.492 -22.718 -17.343  0.00  0.00    +0.215 C 
ENDROOT
BRANCH   1  12
ATOM     12  C   UNL     1      36.094 -23.953 -15.139  0.00  0.00    +0.085 C 
ATOM     13  C   UNL     1      36.916 -25.074 -15.246  0.00  0.00    +0.152 C 
ATOM     14  C   UNL     1      36.627 -22.677 -15.320  0.00  0.00    +0.018 C 
ATOM     15  C   UNL     1      38.274 -24.919 -15.532  0.00  0.00    +0.038 C 
ATOM     16  C   UNL     1      37.983 -22.522 -15.606  0.00  0.00    +0.001 C 
ATOM     17  C   UNL     1      38.806 -23.642 -15.712  0.00  0.00    +0.003 C 
BRANCH  13  18
ATOM     18  O   UNL     1      36.415 -26.330 -15.073  0.00  0.00    -0.474 OA
BRANCH  18  19
ATOM     19  C   UNL     1      37.184 -27.230 -14.277  0.00  0.00    +0.207 C 
BRANCH  19  20
ATOM     20  C   UNL     1      37.013 -26.850 -12.811  0.00  0.00    +0.069 C 
BRANCH  20  21
ATOM     21  C   UNL     1      38.181 -26.034 -12.256  0.00  0.00    +0.101 C 
BRANCH  21  22
ATOM     22  N   UNL     1      37.838 -24.650 -11.950  0.00  0.00    -0.268 N 
ATOM     23  N   UNL     1      38.079 -22.473 -11.683  0.00  0.00    -0.225 NA
ATOM     24  C   UNL     1      36.622 -24.205 -11.544  0.00  0.00    +0.088 C 
ATOM     25  C   UNL     1      38.685 -23.590 -12.021  0.00  0.00    +0.168 C 
ATOM     26  C   UNL     1      36.793 -22.850 -11.384  0.00  0.00    +0.117 C 
ENDBRANCH  21  22
ENDBRANCH  20  21
ENDBRANCH  19  20
ENDBRANCH  18  19
ENDBRANCH  13  18
ENDBRANCH   1  12
BRANCH   3  27
ATOM     27  C   UNL     1      28.709 -23.741 -15.386  0.00  0.00    +0.077 C 
ATOM     28  C   UNL     1      28.289 -22.261 -15.370  0.00  0.00    +0.020 C 
ATOM     29  C   UNL     1      28.316 -24.284 -16.774  0.00  0.00    +0.020 C 
ATOM     30  C   UNL     1      27.291 -22.134 -16.512  0.00  0.00    +0.002 C 
ATOM     31  C   UNL     1      27.853 -23.069 -17.571  0.00  0.00    +0.002 C 
ENDBRANCH   3  27
BRANCH  11  33
ATOM     32  N   UNL     1      32.759 -21.490 -19.609  0.00  0.00    -0.178 NA
ATOM     33  C   UNL     1      32.639 -22.043 -18.588  0.00  0.00    +0.198 C 
ENDBRANCH  11  33
TORSDOF 8
ENDMDL
MODEL 5
REMARK VINA RESULT:      -9.0      1.919      3.448
REMARK  Name = 11464526
REMARK  8 active torsions:
REMARK  status: ('A' for Active; 'I' for Inactive)
REMARK    1  A    between atoms: N_1  and  C_19
REMARK    2  A    between atoms: N_3  and  C_12
REMARK    3  A    between atoms: C_11  and  C_18
REMARK    4  A    between atoms: C_20  and  O_25
REMARK    5  A    between atoms: O_25  and  C_26
REMARK    6  A    between atoms: C_26  and  C_27
REMARK    7  A    between atoms: C_27  and  C_28
REMARK    8  A    between atoms: C_28  and  N_29
REMARK                            x       y       z     vdW  Elec       q    Type
REMARK                         _______ _______ _______ _____ _____    ______ ____
ROOT
ATOM      1  N   UNL     1      34.063 -12.240 -24.730  0.00  0.00    -0.284 N 
ATOM      2  H   UNL     1      34.774 -11.852 -25.289  0.00  0.00    +0.155 HD
ATOM      3  N   UNL     1      33.694  -7.884 -23.258  0.00  0.00    -0.262 N 
ATOM      4  N   UNL     1      34.768  -9.284 -24.619  0.00  0.00    -0.240 NA
ATOM      5  N   UNL     1      32.137  -9.428 -22.212  0.00  0.00    -0.315 NA
ATOM      6  N   UNL     1      32.429 -11.694 -23.070  0.00  0.00    -0.315 NA
ATOM      7  C   UNL     1      33.133  -9.112 -23.055  0.00  0.00    +0.219 C 
ATOM      8  C   UNL     1      34.670  -8.037 -24.205  0.00  0.00    +0.222 C 
ATOM      9  C   UNL     1      33.813  -9.966 -23.908  0.00  0.00    +0.168 C 
ATOM     10  C   UNL     1      33.428 -11.303 -23.897  0.00  0.00    +0.218 C 
ATOM     11  C   UNL     1      31.854 -10.747 -22.290  0.00  0.00    +0.215 C 
ENDROOT
BRANCH   1  12
ATOM     12  C   UNL     1      33.883 -13.627 -24.924  0.00  0.00    +0.085 C 
ATOM     13  C   UNL     1      34.245 -14.535 -23.929  0.00  0.00    +0.152 C 
ATOM     14  C   UNL     1      33.337 -14.086 -26.122  0.00  0.00    +0.018 C 
ATOM     15  C   UNL     1      34.061 -15.904 -24.134  0.00  0.00    +0.038 C 
ATOM     16  C   UNL     1      33.153 -15.453 -26.327  0.00  0.00    +0.001 C 
ATOM     17  C   UNL     1      33.515 -16.362 -25.333  0.00  0.00    +0.003 C 
BRANCH  13  18
ATOM     18  O   UNL     1      34.780 -14.107 -22.750  0.00  0.00    -0.474 OA
BRANCH  18  19
ATOM     19  C   UNL     1      33.952 -14.200 -21.593  0.00  0.00    +0.207 C 
BRANCH  19  20
ATOM     20  C   UNL     1      34.471 -15.329 -20.711  0.00  0.00    +0.069 C 
BRANCH  20  21
ATOM     21  C   UNL     1      33.586 -16.575 -20.737  0.00  0.00    +0.101 C 
BRANCH  21  22
ATOM     22  N   UNL     1      34.312 -17.805 -21.029  0.00  0.00    -0.268 N 
ATOM     23  N   UNL     1      36.001 -19.147 -21.491  0.00  0.00    -0.225 NA
ATOM     24  C   UNL     1      33.767 -19.045 -21.119  0.00  0.00    +0.088 C 
ATOM     25  C   UNL     1      35.648 -17.903 -21.257  0.00  0.00    +0.168 C 
ATOM     26  C   UNL     1      34.834 -19.864 -21.407  0.00  0.00    +0.117 C 
ENDBRANCH  21  22
ENDBRANCH  20  21
ENDBRANCH  19  20
ENDBRANCH  18  19
ENDBRANCH  13  18
ENDBRANCH   1  12
BRANCH   3  27
ATOM     27  C   UNL     1      33.329  -6.634 -22.594  0.00  0.00    +0.077 C 
ATOM     28  C   UNL     1      32.281  -5.817 -23.367  0.00  0.00    +0.020 C 
ATOM     29  C   UNL     1      32.771  -6.809 -21.168  0.00  0.00    +0.020 C 
ATOM     30  C   UNL     1      31.421  -5.177 -22.286  0.00  0.00    +0.002 C 
ATOM     31  C   UNL     1      31.353  -6.252 -21.214  0.00  0.00    +0.002 C 
ENDBRANCH   3  27
BRANCH  11  33
ATOM     32  N   UNL     1      29.952 -11.579 -20.740  0.00  0.00    -0.178 NA
ATOM     33  C   UNL     1      30.809 -11.204 -21.438  0.00  0.00    +0.198 C 
ENDBRANCH  11  33
TORSDOF 8
ENDMDL
MODEL 6
REMARK VINA RESULT:      -9.0      6.825     11.131
REMARK  Name = 11464526
REMARK  8 active torsions:
REMARK  status: ('A' for Active; 'I' for Inactive)
REMARK    1  A    between atoms: N_1  and  C_19
REMARK    2  A    between atoms: N_3  and  C_12
REMARK    3  A    between atoms: C_11  and  C_18
REMARK    4  A    between atoms: C_20  and  O_25
REMARK    5  A    between atoms: O_25  and  C_26
REMARK    6  A    between atoms: C_26  and  C_27
REMARK    7  A    between atoms: C_27  and  C_28
REMARK    8  A    between atoms: C_28  and  N_29
REMARK                            x       y       z     vdW  Elec       q    Type
REMARK                         _______ _______ _______ _____ _____    ______ ____
ROOT
ATOM      1  N   UNL     1      32.153 -22.748 -17.514  0.00  0.00    -0.284 N 
ATOM      2  H   UNL     1      31.374 -22.485 -18.056  0.00  0.00    +0.155 HD
ATOM      3  N   UNL     1      34.417 -20.292 -20.697  0.00  0.00    -0.262 N 
ATOM      4  N   UNL     1      32.429 -21.024 -20.005  0.00  0.00    -0.240 NA
ATOM      5  N   UNL     1      35.840 -21.263 -18.984  0.00  0.00    -0.315 NA
ATOM      6  N   UNL     1      34.532 -22.535 -17.363  0.00  0.00    -0.315 NA
ATOM      7  C   UNL     1      34.656 -21.024 -19.570  0.00  0.00    +0.219 C 
ATOM      8  C   UNL     1      33.067 -20.321 -20.918  0.00  0.00    +0.222 C 
ATOM      9  C   UNL     1      33.411 -21.469 -19.156  0.00  0.00    +0.168 C 
ATOM     10  C   UNL     1      33.373 -22.252 -18.006  0.00  0.00    +0.218 C 
ATOM     11  C   UNL     1      35.676 -22.030 -17.884  0.00  0.00    +0.215 C 
ENDROOT
BRANCH   1  12
ATOM     12  C   UNL     1      31.823 -23.546 -16.398  0.00  0.00    +0.085 C 
ATOM     13  C   UNL     1      32.684 -23.623 -15.303  0.00  0.00    +0.152 C 
ATOM     14  C   UNL     1      30.625 -24.258 -16.395  0.00  0.00    +0.018 C 
ATOM     15  C   UNL     1      32.345 -24.416 -14.205  0.00  0.00    +0.038 C 
ATOM     16  C   UNL     1      30.286 -25.051 -15.298  0.00  0.00    +0.001 C 
ATOM     17  C   UNL     1      31.146 -25.129 -14.203  0.00  0.00    +0.003 C 
BRANCH  13  18
ATOM     18  O   UNL     1      33.860 -22.934 -15.284  0.00  0.00    -0.474 OA
BRANCH  18  19
ATOM     19  C   UNL     1      34.761 -23.221 -14.217  0.00  0.00    +0.207 C 
BRANCH  19  20
ATOM     20  C   UNL     1      35.517 -24.502 -14.548  0.00  0.00    +0.069 C 
BRANCH  20  21
ATOM     21  C   UNL     1      36.340 -25.040 -13.378  0.00  0.00    +0.101 C 
BRANCH  21  22
ATOM     22  N   UNL     1      37.683 -25.466 -13.750  0.00  0.00    -0.268 N 
ATOM     23  N   UNL     1      39.286 -26.600 -14.756  0.00  0.00    -0.225 NA
ATOM     24  C   UNL     1      38.842 -24.945 -13.272  0.00  0.00    +0.088 C 
ATOM     25  C   UNL     1      37.986 -26.453 -14.634  0.00  0.00    +0.168 C 
ATOM     26  C   UNL     1      39.826 -25.663 -13.910  0.00  0.00    +0.117 C 
ENDBRANCH  21  22
ENDBRANCH  20  21
ENDBRANCH  19  20
ENDBRANCH  18  19
ENDBRANCH  13  18
ENDBRANCH   1  12
BRANCH   3  27
ATOM     27  C   UNL     1      35.408 -19.604 -21.521  0.00  0.00    +0.077 C 
ATOM     28  C   UNL     1      34.999 -19.490 -22.999  0.00  0.00    +0.020 C 
ATOM     29  C   UNL     1      35.741 -18.173 -21.055  0.00  0.00    +0.020 C 
ATOM     30  C   UNL     1      35.538 -18.137 -23.442  0.00  0.00    +0.002 C 
ATOM     31  C   UNL     1      35.343 -17.264 -22.213  0.00  0.00    +0.002 C 
ENDBRANCH   3  27
BRANCH  11  33
ATOM     32  N   UNL     1      37.844 -22.617 -16.593  0.00  0.00    -0.178 NA
ATOM     33  C   UNL     1      36.868 -22.352 -17.175  0.00  0.00    +0.198 C 
ENDBRANCH  11  33
TORSDOF 8
ENDMDL
MODEL 7
REMARK VINA RESULT:      -8.9      1.762      2.300
REMARK  Name = 11464526
REMARK  8 active torsions:
REMARK  status: ('A' for Active; 'I' for Inactive)
REMARK    1  A    between atoms: N_1  and  C_19
REMARK    2  A    between atoms: N_3  and  C_12
REMARK    3  A    between atoms: C_11  and  C_18
REMARK    4  A    between atoms: C_20  and  O_25
REMARK    5  A    between atoms: O_25  and  C_26
REMARK    6  A    between atoms: C_26  and  C_27
REMARK    7  A    between atoms: C_27  and  C_28
REMARK    8  A    between atoms: C_28  and  N_29
REMARK                            x       y       z     vdW  Elec       q    Type
REMARK                         _______ _______ _______ _____ _____    ______ ____
ROOT
ATOM      1  N   UNL     1      33.070 -13.104 -23.571  0.00  0.00    -0.284 N 
ATOM      2  H   UNL     1      32.394 -13.204 -22.863  0.00  0.00    +0.155 HD
ATOM      3  N   UNL     1      32.568  -8.629 -22.568  0.00  0.00    -0.262 N 
ATOM      4  N   UNL     1      31.919 -10.708 -22.094  0.00  0.00    -0.240 NA
ATOM      5  N   UNL     1      34.179  -9.085 -24.329  0.00  0.00    -0.315 NA
ATOM      6  N   UNL     1      34.356 -11.479 -24.768  0.00  0.00    -0.315 NA
ATOM      7  C   UNL     1      33.274  -9.445 -23.405  0.00  0.00    +0.219 C 
ATOM      8  C   UNL     1      31.769  -9.433 -21.801  0.00  0.00    +0.222 C 
ATOM      9  C   UNL     1      32.857 -10.729 -23.096  0.00  0.00    +0.168 C 
ATOM     10  C   UNL     1      33.434 -11.770 -23.818  0.00  0.00    +0.218 C 
ATOM     11  C   UNL     1      34.666 -10.175 -24.962  0.00  0.00    +0.215 C 
ENDROOT
BRANCH   1  12
ATOM     12  C   UNL     1      33.483 -14.331 -24.136  0.00  0.00    +0.085 C 
ATOM     13  C   UNL     1      34.423 -15.130 -23.487  0.00  0.00    +0.152 C 
ATOM     14  C   UNL     1      32.939 -14.741 -25.353  0.00  0.00    +0.018 C 
ATOM     15  C   UNL     1      34.822 -16.341 -24.057  0.00  0.00    +0.038 C 
ATOM     16  C   UNL     1      33.337 -15.950 -25.922  0.00  0.00    +0.001 C 
ATOM     17  C   UNL     1      34.278 -16.750 -25.274  0.00  0.00    +0.003 C 
BRANCH  13  18
ATOM     18  O   UNL     1      34.967 -14.748 -22.297  0.00  0.00    -0.474 OA
BRANCH  18  19
ATOM     19  C   UNL     1      34.143 -14.873 -21.140  0.00  0.00    +0.207 C 
BRANCH  19  20
ATOM     20  C   UNL     1      33.022 -15.860 -21.444  0.00  0.00    +0.069 C 
BRANCH  20  21
ATOM     21  C   UNL     1      33.112 -17.149 -20.627  0.00  0.00    +0.101 C 
BRANCH  21  22
ATOM     22  N   UNL     1      34.150 -18.065 -21.085  0.00  0.00    -0.268 N 
ATOM     23  N   UNL     1      36.163 -18.896 -21.438  0.00  0.00    -0.225 NA
ATOM     24  C   UNL     1      33.943 -19.226 -21.757  0.00  0.00    +0.088 C 
ATOM     25  C   UNL     1      35.487 -17.899 -20.912  0.00  0.00    +0.168 C 
ATOM     26  C   UNL     1      35.206 -19.727 -21.966  0.00  0.00    +0.117 C 
ENDBRANCH  21  22
ENDBRANCH  20  21
ENDBRANCH  19  20
ENDBRANCH  18  19
ENDBRANCH  13  18
ENDBRANCH   1  12
BRANCH   3  27
ATOM     27  C   UNL     1      32.643  -7.172 -22.497  0.00  0.00    +0.077 C 
ATOM     28  C   UNL     1      31.917  -6.467 -23.656  0.00  0.00    +0.020 C 
ATOM     29  C   UNL     1      32.072  -6.566 -21.200  0.00  0.00    +0.020 C 
ATOM     30  C   UNL     1      31.328  -5.211 -23.029  0.00  0.00    +0.002 C 
ATOM     31  C   UNL     1      30.918  -5.673 -21.641  0.00  0.00    +0.002 C 
ENDBRANCH   3  27
BRANCH  11  33
ATOM     32  N   UNL     1      36.436  -9.709 -26.796  0.00  0.00    -0.178 NA
ATOM     33  C   UNL     1      35.639  -9.918 -25.970  0.00  0.00    +0.198 C 
ENDBRANCH  11  33
TORSDOF 8
ENDMDL
MODEL 8
REMARK VINA RESULT:      -8.6      8.467     14.113
REMARK  Name = 11464526
REMARK  8 active torsions:
REMARK  status: ('A' for Active; 'I' for Inactive)
REMARK    1  A    between atoms: N_1  and  C_19
REMARK    2  A    between atoms: N_3  and  C_12
REMARK    3  A    between atoms: C_11  and  C_18
REMARK    4  A    between atoms: C_20  and  O_25
REMARK    5  A    between atoms: O_25  and  C_26
REMARK    6  A    between atoms: C_26  and  C_27
REMARK    7  A    between atoms: C_27  and  C_28
REMARK    8  A    between atoms: C_28  and  N_29
REMARK                            x       y       z     vdW  Elec       q    Type
REMARK                         _______ _______ _______ _____ _____    ______ ____
ROOT
ATOM      1  N   UNL     1      36.805 -24.735 -15.383  0.00  0.00    -0.284 N 
ATOM      2  H   UNL     1      36.581 -24.668 -16.339  0.00  0.00    +0.155 HD
ATOM      3  N   UNL     1      32.321 -23.765 -14.896  0.00  0.00    -0.262 N 
ATOM      4  N   UNL     1      33.987 -24.102 -16.337  0.00  0.00    -0.240 NA
ATOM      5  N   UNL     1      33.513 -24.064 -12.800  0.00  0.00    -0.315 NA
ATOM      6  N   UNL     1      35.869 -24.571 -13.186  0.00  0.00    -0.315 NA
ATOM      7  C   UNL     1      33.428 -24.021 -14.139  0.00  0.00    +0.219 C 
ATOM      8  C   UNL     1      32.706 -23.825 -16.208  0.00  0.00    +0.222 C 
ATOM      9  C   UNL     1      34.451 -24.227 -15.051  0.00  0.00    +0.168 C 
ATOM     10  C   UNL     1      35.710 -24.512 -14.531  0.00  0.00    +0.218 C 
ATOM     11  C   UNL     1      34.777 -24.347 -12.416  0.00  0.00    +0.215 C 
ENDROOT
BRANCH   1  12
ATOM     12  C   UNL     1      38.163 -25.037 -15.139  0.00  0.00    +0.085 C 
ATOM     13  C   UNL     1      39.170 -24.179 -15.579  0.00  0.00    +0.152 C 
ATOM     14  C   UNL     1      38.492 -26.204 -14.450  0.00  0.00    +0.018 C 
ATOM     15  C   UNL     1      40.508 -24.489 -15.331  0.00  0.00    +0.038 C 
ATOM     16  C   UNL     1      39.829 -26.514 -14.202  0.00  0.00    +0.001 C 
ATOM     17  C   UNL     1      40.837 -25.657 -14.643  0.00  0.00    +0.003 C 
BRANCH  13  18
ATOM     18  O   UNL     1      38.870 -23.033 -16.254  0.00  0.00    -0.474 OA
BRANCH  18  19
ATOM     19  C   UNL     1      37.752 -22.281 -15.786  0.00  0.00    +0.207 C 
BRANCH  19  20
ATOM     20  C   UNL     1      37.267 -21.377 -16.913  0.00  0.00    +0.069 C 
BRANCH  20  21
ATOM     21  C   UNL     1      36.375 -22.097 -17.925  0.00  0.00    +0.101 C 
BRANCH  21  22
ATOM     22  N   UNL     1      35.938 -21.251 -19.029  0.00  0.00    -0.268 N 
ATOM     23  N   UNL     1      36.022 -19.726 -20.622  0.00  0.00    -0.225 NA
ATOM     24  C   UNL     1      34.703 -21.256 -19.591  0.00  0.00    +0.088 C 
ATOM     25  C   UNL     1      36.700 -20.326 -19.669  0.00  0.00    +0.168 C 
ATOM     26  C   UNL     1      34.776 -20.301 -20.579  0.00  0.00    +0.117 C 
ENDBRANCH  21  22
ENDBRANCH  20  21
ENDBRANCH  19  20
ENDBRANCH  18  19
ENDBRANCH  13  18
ENDBRANCH   1  12
BRANCH   3  27
ATOM     27  C   UNL     1      30.974 -23.479 -14.407  0.00  0.00    +0.077 C 
ATOM     28  C   UNL     1      30.149 -22.609 -15.371  0.00  0.00    +0.020 C 
ATOM     29  C   UNL     1      30.121 -24.730 -14.120  0.00  0.00    +0.020 C 
ATOM     30  C   UNL     1      28.727 -23.135 -15.238  0.00  0.00    +0.002 C 
ATOM     31  C   UNL     1      28.924 -24.631 -15.058  0.00  0.00    +0.002 C 
ENDBRANCH   3  27
BRANCH  11  33
ATOM     32  N   UNL     1      35.170 -24.480  -9.858  0.00  0.00    -0.178 NA
ATOM     33  C   UNL     1      34.992 -24.420 -11.010  0.00  0.00    +0.198 C 
ENDBRANCH  11  33
TORSDOF 8
ENDMDL
MODEL 9
REMARK VINA RESULT:      -8.6      3.525      6.867
REMARK  Name = 11464526
REMARK  8 active torsions:
REMARK  status: ('A' for Active; 'I' for Inactive)
REMARK    1  A    between atoms: N_1  and  C_19
REMARK    2  A    between atoms: N_3  and  C_12
REMARK    3  A    between atoms: C_11  and  C_18
REMARK    4  A    between atoms: C_20  and  O_25
REMARK    5  A    between atoms: O_25  and  C_26
REMARK    6  A    between atoms: C_26  and  C_27
REMARK    7  A    between atoms: C_27  and  C_28
REMARK    8  A    between atoms: C_28  and  N_29
REMARK                            x       y       z     vdW  Elec       q    Type
REMARK                         _______ _______ _______ _____ _____    ______ ____
ROOT
ATOM      1  N   UNL     1      32.870  -8.984 -22.269  0.00  0.00    -0.284 N 
ATOM      2  H   UNL     1      33.569  -9.496 -22.735  0.00  0.00    +0.155 HD
ATOM      3  N   UNL     1      33.892  -5.839 -25.486  0.00  0.00    -0.262 N 
ATOM      4  N   UNL     1      34.344  -7.868 -24.684  0.00  0.00    -0.240 NA
ATOM      5  N   UNL     1      32.150  -5.155 -23.936  0.00  0.00    -0.315 NA
ATOM      6  N   UNL     1      31.700  -6.896 -22.286  0.00  0.00    -0.315 NA
ATOM      7  C   UNL     1      33.060  -6.016 -24.418  0.00  0.00    +0.219 C 
ATOM      8  C   UNL     1      34.642  -6.977 -25.607  0.00  0.00    +0.222 C 
ATOM      9  C   UNL     1      33.356  -7.280 -23.934  0.00  0.00    +0.168 C 
ATOM     10  C   UNL     1      32.636  -7.715 -22.826  0.00  0.00    +0.218 C 
ATOM     11  C   UNL     1      31.518  -5.685 -22.866  0.00  0.00    +0.215 C 
ENDROOT
BRANCH   1  12
ATOM     12  C   UNL     1      32.302  -9.669 -21.173  0.00  0.00    +0.085 C 
ATOM     13  C   UNL     1      31.789 -10.957 -21.331  0.00  0.00    +0.152 C 
ATOM     14  C   UNL     1      32.258  -9.049 -19.925  0.00  0.00    +0.018 C 
ATOM     15  C   UNL     1      31.231 -11.624 -20.239  0.00  0.00    +0.038 C 
ATOM     16  C   UNL     1      31.700  -9.715 -18.834  0.00  0.00    +0.001 C 
ATOM     17  C   UNL     1      31.186 -11.002 -18.991  0.00  0.00    +0.003 C 
BRANCH  13  18
ATOM     18  O   UNL     1      31.823 -11.582 -22.542  0.00  0.00    -0.474 OA
BRANCH  18  19
ATOM     19  C   UNL     1      32.111 -12.978 -22.542  0.00  0.00    +0.207 C 
BRANCH  19  20
ATOM     20  C   UNL     1      33.119 -13.268 -23.647  0.00  0.00    +0.069 C 
BRANCH  20  21
ATOM     21  C   UNL     1      34.198 -14.270 -23.235  0.00  0.00    +0.101 C 
BRANCH  21  22
ATOM     22  N   UNL     1      34.254 -15.456 -24.081  0.00  0.00    -0.268 N 
ATOM     23  N   UNL     1      34.006 -16.737 -25.860  0.00  0.00    -0.225 NA
ATOM     24  C   UNL     1      34.746 -16.667 -23.718  0.00  0.00    +0.088 C 
ATOM     25  C   UNL     1      33.820 -15.533 -25.366  0.00  0.00    +0.168 C 
ATOM     26  C   UNL     1      34.583 -17.449 -24.838  0.00  0.00    +0.117 C 
ENDBRANCH  21  22
ENDBRANCH  20  21
ENDBRANCH  19  20
ENDBRANCH  18  19
ENDBRANCH  13  18
ENDBRANCH   1  12
BRANCH   3  27
ATOM     27  C   UNL     1      33.974  -4.660 -26.345  0.00  0.00    +0.077 C 
ATOM     28  C   UNL     1      35.134  -4.720 -27.353  0.00  0.00    +0.020 C 
ATOM     29  C   UNL     1      32.701  -4.383 -27.171  0.00  0.00    +0.020 C 
ATOM     30  C   UNL     1      34.591  -4.041 -28.602  0.00  0.00    +0.002 C 
ATOM     31  C   UNL     1      33.134  -4.473 -28.630  0.00  0.00    +0.002 C 
ENDBRANCH   3  27
BRANCH  11  33
ATOM     32  N   UNL     1      29.711  -4.184 -21.774  0.00  0.00    -0.178 NA
ATOM     33  C   UNL     1      30.525  -4.860 -22.266  0.00  0.00    +0.198 C 
ENDBRANCH  11  33
TORSDOF 8
ENDMDL
