MODEL 1
REMARK VINA RESULT:      -9.8      0.000      0.000
REMARK  Name = 5287523
REMARK  5 active torsions:
REMARK  status: ('A' for Active; 'I' for Inactive)
REMARK    1  A    between atoms: N_4  and  C_14
REMARK    2  A    between atoms: C_6  and  N_21
REMARK    3  A    between atoms: N_21  and  C_23
REMARK    4  A    between atoms: C_23  and  C_24
REMARK    5  A    between atoms: C_24  and  C_25
REMARK                            x       y       z     vdW  Elec       q    Type
REMARK                         _______ _______ _______ _____ _____    ______ ____
ROOT
ATOM      1  N   UNL     1      35.110 -22.430 -17.803  0.00  0.00    -0.088 N 
ATOM      2  N   UNL     1      35.589 -23.133 -16.744  0.00  0.00    -0.082 NA
ATOM      3  N   UNL     1      35.907 -20.784 -19.364  0.00  0.00    -0.330 NA
ATOM      4  N   UNL     1      37.758 -23.103 -15.739  0.00  0.00    -0.246 N 
ATOM      5  N   UNL     1      37.213 -21.769 -17.574  0.00  0.00    -0.255 NA
ATOM      6  C   UNL     1      33.832 -22.465 -18.376  0.00  0.00    +0.136 C 
ATOM      7  C   UNL     1      36.123 -21.602 -18.296  0.00  0.00    +0.238 C 
ATOM      8  C   UNL     1      33.587 -21.671 -19.432  0.00  0.00    +0.061 C 
ATOM      9  C   UNL     1      34.721 -20.816 -19.896  0.00  0.00    +0.126 C 
ATOM     10  C   UNL     1      36.842 -22.698 -16.656  0.00  0.00    +0.177 C 
ATOM     11  C   UNL     1      34.459 -19.919 -21.080  0.00  0.00    +0.068 C 
ATOM     12  H   UNL     1      38.659 -22.734 -15.887  0.00  0.00    +0.165 HD
ENDROOT
BRANCH   4  14
ATOM     13 CL   UNL     1      35.141 -24.478 -11.557  0.00  0.00    -0.082 Cl
ATOM     14  C   UNL     1      37.666 -23.958 -14.604  0.00  0.00    +0.054 C 
ATOM     15  C   UNL     1      38.642 -24.915 -14.366  0.00  0.00    -0.008 C 
ATOM     16  C   UNL     1      36.584 -23.815 -13.745  0.00  0.00    +0.026 C 
ATOM     17  C   UNL     1      38.536 -25.746 -13.250  0.00  0.00    -0.002 C 
ATOM     18  C   UNL     1      39.812 -25.084 -15.281  0.00  0.00    +0.032 C 
ATOM     19  C   UNL     1      36.477 -24.645 -12.628  0.00  0.00    +0.059 C 
ATOM     20  C   UNL     1      37.453 -25.610 -12.381  0.00  0.00    +0.011 C 
ENDBRANCH   4  14
BRANCH   6  21
ATOM     21  N   UNL     1      32.912 -23.308 -17.823  0.00  0.00    -0.319 N 
ATOM     22  H   UNL     1      32.941 -24.260 -18.075  0.00  0.00    +0.148 HD
BRANCH  21  23
ATOM     23  C   UNL     1      31.904 -22.879 -16.891  0.00  0.00    +0.088 C 
BRANCH  23  24
ATOM     24  C   UNL     1      32.198 -23.412 -15.491  0.00  0.00    +0.021 C 
BRANCH  24  25
ATOM     25  C   UNL     1      31.168 -22.951 -14.456  0.00  0.00    +0.002 C 
ATOM     26  C   UNL     1      29.785 -22.813 -15.072  0.00  0.00    +0.000 C 
ENDBRANCH  24  25
ENDBRANCH  23  24
ENDBRANCH  21  23
ENDBRANCH   6  21
TORSDOF 5
ENDMDL
MODEL 2
REMARK VINA RESULT:      -9.5      6.463      9.861
REMARK  Name = 5287523
REMARK  5 active torsions:
REMARK  status: ('A' for Active; 'I' for Inactive)
REMARK    1  A    between atoms: N_4  and  C_14
REMARK    2  A    between atoms: C_6  and  N_21
REMARK    3  A    between atoms: N_21  and  C_23
REMARK    4  A    between atoms: C_23  and  C_24
REMARK    5  A    between atoms: C_24  and  C_25
REMARK                            x       y       z     vdW  Elec       q    Type
REMARK                         _______ _______ _______ _____ _____    ______ ____
ROOT
ATOM      1  N   UNL     1      33.911 -15.650 -23.957  0.00  0.00    -0.088 N 
ATOM      2  N   UNL     1      34.219 -16.626 -23.064  0.00  0.00    -0.082 NA
ATOM      3  N   UNL     1      33.707 -15.406 -26.340  0.00  0.00    -0.330 NA
ATOM      4  N   UNL     1      34.797 -18.916 -23.436  0.00  0.00    -0.246 N 
ATOM      5  N   UNL     1      34.311 -17.451 -25.185  0.00  0.00    -0.255 NA
ATOM      6  C   UNL     1      33.574 -14.312 -23.715  0.00  0.00    +0.136 C 
ATOM      7  C   UNL     1      33.973 -16.179 -25.250  0.00  0.00    +0.238 C 
ATOM      8  C   UNL     1      33.305 -13.523 -24.769  0.00  0.00    +0.061 C 
ATOM      9  C   UNL     1      33.394 -14.164 -26.116  0.00  0.00    +0.126 C 
ATOM     10  C   UNL     1      34.446 -17.672 -23.852  0.00  0.00    +0.177 C 
ATOM     11  C   UNL     1      33.096 -13.290 -27.309  0.00  0.00    +0.068 C 
ATOM     12  H   UNL     1      34.836 -19.582 -24.160  0.00  0.00    +0.165 HD
ENDROOT
BRANCH   4  14
ATOM     13 CL   UNL     1      33.221 -21.470 -19.286  0.00  0.00    -0.082 Cl
ATOM     14  C   UNL     1      35.119 -19.442 -22.153  0.00  0.00    +0.054 C 
ATOM     15  C   UNL     1      36.395 -19.285 -21.630  0.00  0.00    -0.008 C 
ATOM     16  C   UNL     1      34.135 -20.114 -21.439  0.00  0.00    +0.026 C 
ATOM     17  C   UNL     1      36.694 -19.808 -20.371  0.00  0.00    -0.002 C 
ATOM     18  C   UNL     1      37.467 -18.567 -22.384  0.00  0.00    +0.032 C 
ATOM     19  C   UNL     1      34.432 -20.636 -20.180  0.00  0.00    +0.059 C 
ATOM     20  C   UNL     1      35.712 -20.484 -19.646  0.00  0.00    +0.011 C 
ENDBRANCH   4  14
BRANCH   6  21
ATOM     21  N   UNL     1      33.540 -13.891 -22.417  0.00  0.00    -0.319 N 
ATOM     22  H   UNL     1      34.390 -13.654 -21.980  0.00  0.00    +0.148 HD
BRANCH  21  23
ATOM     23  C   UNL     1      32.325 -13.777 -21.654  0.00  0.00    +0.088 C 
BRANCH  23  24
ATOM     24  C   UNL     1      31.867 -12.322 -21.580  0.00  0.00    +0.021 C 
BRANCH  24  25
ATOM     25  C   UNL     1      31.599 -11.860 -20.145  0.00  0.00    +0.002 C 
ATOM     26  C   UNL     1      31.497 -10.346 -20.059  0.00  0.00    +0.000 C 
ENDBRANCH  24  25
ENDBRANCH  23  24
ENDBRANCH  21  23
ENDBRANCH   6  21
TORSDOF 5
ENDMDL
MODEL 3
REMARK VINA RESULT:      -9.5      9.789     13.467
REMARK  Name = 5287523
REMARK  5 active torsions:
REMARK  status: ('A' for Active; 'I' for Inactive)
REMARK    1  A    between atoms: N_4  and  C_14
REMARK    2  A    between atoms: C_6  and  N_21
REMARK    3  A    between atoms: N_21  and  C_23
REMARK    4  A    between atoms: C_23  and  C_24
REMARK    5  A    between atoms: C_24  and  C_25
REMARK                            x       y       z     vdW  Elec       q    Type
REMARK                         _______ _______ _______ _____ _____    ______ ____
ROOT
ATOM      1  N   UNL     1      34.330 -15.139 -23.872  0.00  0.00    -0.088 N 
ATOM      2  N   UNL     1      34.301 -13.790 -23.716  0.00  0.00    -0.082 NA
ATOM      3  N   UNL     1      33.829 -16.752 -25.583  0.00  0.00    -0.330 NA
ATOM      4  N   UNL     1      33.653 -12.082 -25.259  0.00  0.00    -0.246 N 
ATOM      5  N   UNL     1      33.600 -14.349 -25.809  0.00  0.00    -0.255 NA
ATOM      6  C   UNL     1      34.715 -16.122 -22.951  0.00  0.00    +0.136 C 
ATOM      7  C   UNL     1      33.896 -15.458 -25.162  0.00  0.00    +0.238 C 
ATOM      8  C   UNL     1      34.660 -17.408 -23.335  0.00  0.00    +0.061 C 
ATOM      9  C   UNL     1      34.186 -17.665 -24.728  0.00  0.00    +0.126 C 
ATOM     10  C   UNL     1      33.860 -13.375 -24.900  0.00  0.00    +0.177 C 
ATOM     11  C   UNL     1      34.119 -19.105 -25.173  0.00  0.00    +0.068 C 
ATOM     12  H   UNL     1      33.409 -11.967 -26.206  0.00  0.00    +0.165 HD
ENDROOT
BRANCH   4  14
ATOM     13 CL   UNL     1      31.670  -9.116 -21.585  0.00  0.00    -0.082 Cl
ATOM     14  C   UNL     1      33.722 -10.861 -24.530  0.00  0.00    +0.054 C 
ATOM     15  C   UNL     1      34.718  -9.934 -24.807  0.00  0.00    -0.008 C 
ATOM     16  C   UNL     1      32.780 -10.619 -23.539  0.00  0.00    +0.026 C 
ATOM     17  C   UNL     1      34.772  -8.743 -24.083  0.00  0.00    -0.002 C 
ATOM     18  C   UNL     1      35.742 -10.179 -25.868  0.00  0.00    +0.032 C 
ATOM     19  C   UNL     1      32.832  -9.428 -22.814  0.00  0.00    +0.059 C 
ATOM     20  C   UNL     1      33.829  -8.490 -23.085  0.00  0.00    +0.011 C 
ENDBRANCH   4  14
BRANCH   6  21
ATOM     21  N   UNL     1      35.124 -15.709 -21.717  0.00  0.00    -0.319 N 
ATOM     22  H   UNL     1      35.979 -15.224 -21.646  0.00  0.00    +0.148 HD
BRANCH  21  23
ATOM     23  C   UNL     1      34.370 -15.944 -20.513  0.00  0.00    +0.088 C 
BRANCH  23  24
ATOM     24  C   UNL     1      32.938 -15.436 -20.663  0.00  0.00    +0.021 C 
BRANCH  24  25
ATOM     25  C   UNL     1      32.803 -13.946 -20.340  0.00  0.00    +0.002 C 
ATOM     26  C   UNL     1      31.968 -13.225 -21.386  0.00  0.00    +0.000 C 
ENDBRANCH  24  25
ENDBRANCH  23  24
ENDBRANCH  21  23
ENDBRANCH   6  21
TORSDOF 5
ENDMDL
MODEL 4
REMARK VINA RESULT:      -9.2      2.356      4.845
REMARK  Name = 5287523
REMARK  5 active torsions:
REMARK  status: ('A' for Active; 'I' for Inactive)
REMARK    1  A    between atoms: N_4  and  C_14
REMARK    2  A    between atoms: C_6  and  N_21
REMARK    3  A    between atoms: N_21  and  C_23
REMARK    4  A    between atoms: C_23  and  C_24
REMARK    5  A    between atoms: C_24  and  C_25
REMARK                            x       y       z     vdW  Elec       q    Type
REMARK                         _______ _______ _______ _____ _____    ______ ____
ROOT
ATOM      1  N   UNL     1      32.771 -23.548 -15.219  0.00  0.00    -0.088 N 
ATOM      2  N   UNL     1      34.022 -23.841 -14.780  0.00  0.00    -0.082 NA
ATOM      3  N   UNL     1      30.534 -23.499 -14.340  0.00  0.00    -0.330 NA
ATOM      4  N   UNL     1      34.762 -24.555 -12.622  0.00  0.00    -0.246 N 
ATOM      5  N   UNL     1      32.519 -24.121 -13.093  0.00  0.00    -0.255 NA
ATOM      6  C   UNL     1      32.361 -23.130 -16.492  0.00  0.00    +0.136 C 
ATOM      7  C   UNL     1      31.866 -23.727 -14.168  0.00  0.00    +0.238 C 
ATOM      8  C   UNL     1      31.053 -22.897 -16.694  0.00  0.00    +0.061 C 
ATOM      9  C   UNL     1      30.153 -23.111 -15.521  0.00  0.00    +0.126 C 
ATOM     10  C   UNL     1      33.810 -24.174 -13.511  0.00  0.00    +0.177 C 
ATOM     11  C   UNL     1      28.682 -22.854 -15.733  0.00  0.00    +0.068 C 
ATOM     12  H   UNL     1      34.424 -24.678 -11.704  0.00  0.00    +0.165 HD
ENDROOT
BRANCH   4  14
ATOM     13 CL   UNL     1      38.467 -27.148 -15.024  0.00  0.00    -0.082 Cl
ATOM     14  C   UNL     1      36.155 -24.812 -12.760  0.00  0.00    +0.054 C 
ATOM     15  C   UNL     1      37.075 -24.145 -11.962  0.00  0.00    -0.008 C 
ATOM     16  C   UNL     1      36.574 -25.738 -13.706  0.00  0.00    +0.026 C 
ATOM     17  C   UNL     1      38.437 -24.408 -12.111  0.00  0.00    -0.002 C 
ATOM     18  C   UNL     1      36.642 -23.143 -10.940  0.00  0.00    +0.032 C 
ATOM     19  C   UNL     1      37.936 -26.003 -13.856  0.00  0.00    +0.059 C 
ATOM     20  C   UNL     1      38.867 -25.337 -13.059  0.00  0.00    +0.011 C 
ENDBRANCH   4  14
BRANCH   6  21
ATOM     21  N   UNL     1      33.321 -22.984 -17.451  0.00  0.00    -0.319 N 
ATOM     22  H   UNL     1      34.199 -23.406 -17.300  0.00  0.00    +0.148 HD
BRANCH  21  23
ATOM     23  C   UNL     1      33.117 -22.247 -18.669  0.00  0.00    +0.088 C 
BRANCH  23  24
ATOM     24  C   UNL     1      34.450 -21.948 -19.351  0.00  0.00    +0.021 C 
BRANCH  24  25
ATOM     25  C   UNL     1      34.409 -20.669 -20.192  0.00  0.00    +0.002 C 
ATOM     26  C   UNL     1      32.980 -20.208 -20.431  0.00  0.00    +0.000 C 
ENDBRANCH  24  25
ENDBRANCH  23  24
ENDBRANCH  21  23
ENDBRANCH   6  21
TORSDOF 5
ENDMDL
MODEL 5
REMARK VINA RESULT:      -8.6      8.378     13.080
REMARK  Name = 5287523
REMARK  5 active torsions:
REMARK  status: ('A' for Active; 'I' for Inactive)
REMARK    1  A    between atoms: N_4  and  C_14
REMARK    2  A    between atoms: C_6  and  N_21
REMARK    3  A    between atoms: N_21  and  C_23
REMARK    4  A    between atoms: C_23  and  C_24
REMARK    5  A    between atoms: C_24  and  C_25
REMARK                            x       y       z     vdW  Elec       q    Type
REMARK                         _______ _______ _______ _____ _____    ______ ____
ROOT
ATOM      1  N   UNL     1      34.247 -15.451 -24.089  0.00  0.00    -0.088 N 
ATOM      2  N   UNL     1      34.217 -14.111 -23.868  0.00  0.00    -0.082 NA
ATOM      3  N   UNL     1      33.748 -16.980 -25.876  0.00  0.00    -0.330 NA
ATOM      4  N   UNL     1      33.569 -12.331 -25.327  0.00  0.00    -0.246 N 
ATOM      5  N   UNL     1      33.517 -14.569 -25.986  0.00  0.00    -0.255 NA
ATOM      6  C   UNL     1      34.631 -16.478 -23.216  0.00  0.00    +0.136 C 
ATOM      7  C   UNL     1      33.815 -15.708 -25.393  0.00  0.00    +0.238 C 
ATOM      8  C   UNL     1      34.578 -17.744 -23.662  0.00  0.00    +0.061 C 
ATOM      9  C   UNL     1      34.105 -17.933 -25.066  0.00  0.00    +0.126 C 
ATOM     10  C   UNL     1      33.776 -13.640 -25.030  0.00  0.00    +0.177 C 
ATOM     11  C   UNL     1      34.039 -19.350 -25.580  0.00  0.00    +0.068 C 
ATOM     12  H   UNL     1      33.325 -12.170 -26.268  0.00  0.00    +0.165 HD
ENDROOT
BRANCH   4  14
ATOM     13 CL   UNL     1      31.660  -9.607 -21.433  0.00  0.00    -0.082 Cl
ATOM     14  C   UNL     1      33.637 -11.147 -24.539  0.00  0.00    +0.054 C 
ATOM     15  C   UNL     1      34.597 -10.181 -24.807  0.00  0.00    -0.008 C 
ATOM     16  C   UNL     1      32.729 -10.980 -23.503  0.00  0.00    +0.026 C 
ATOM     17  C   UNL     1      34.650  -9.026 -24.025  0.00  0.00    -0.002 C 
ATOM     18  C   UNL     1      35.584 -10.344 -25.918  0.00  0.00    +0.032 C 
ATOM     19  C   UNL     1      32.780  -9.826 -22.720  0.00  0.00    +0.059 C 
ATOM     20  C   UNL     1      33.742  -8.849 -22.981  0.00  0.00    +0.011 C 
ENDBRANCH   4  14
BRANCH   6  21
ATOM     21  N   UNL     1      35.039 -16.124 -21.963  0.00  0.00    -0.319 N 
ATOM     22  H   UNL     1      35.430 -15.229 -21.834  0.00  0.00    +0.148 HD
BRANCH  21  23
ATOM     23  C   UNL     1      34.927 -16.991 -20.820  0.00  0.00    +0.088 C 
BRANCH  23  24
ATOM     24  C   UNL     1      35.826 -18.216 -20.979  0.00  0.00    +0.021 C 
BRANCH  24  25
ATOM     25  C   UNL     1      35.072 -19.531 -20.768  0.00  0.00    +0.002 C 
ATOM     26  C   UNL     1      33.567 -19.324 -20.824  0.00  0.00    +0.000 C 
ENDBRANCH  24  25
ENDBRANCH  23  24
ENDBRANCH  21  23
ENDBRANCH   6  21
TORSDOF 5
ENDMDL
MODEL 6
REMARK VINA RESULT:      -8.6      1.716      5.223
REMARK  Name = 5287523
REMARK  5 active torsions:
REMARK  status: ('A' for Active; 'I' for Inactive)
REMARK    1  A    between atoms: N_4  and  C_14
REMARK    2  A    between atoms: C_6  and  N_21
REMARK    3  A    between atoms: N_21  and  C_23
REMARK    4  A    between atoms: C_23  and  C_24
REMARK    5  A    between atoms: C_24  and  C_25
REMARK                            x       y       z     vdW  Elec       q    Type
REMARK                         _______ _______ _______ _____ _____    ______ ____
ROOT
ATOM      1  N   UNL     1      34.500 -21.700 -18.774  0.00  0.00    -0.088 N 
ATOM      2  N   UNL     1      33.920 -22.343 -17.728  0.00  0.00    -0.082 NA
ATOM      3  N   UNL     1      33.811 -20.514 -20.749  0.00  0.00    -0.330 NA
ATOM      4  N   UNL     1      31.606 -22.681 -17.228  0.00  0.00    -0.246 N 
ATOM      5  N   UNL     1      32.319 -21.522 -19.124  0.00  0.00    -0.255 NA
ATOM      6  C   UNL     1      35.862 -21.514 -19.046  0.00  0.00    +0.136 C 
ATOM      7  C   UNL     1      33.500 -21.205 -19.616  0.00  0.00    +0.238 C 
ATOM      8  C   UNL     1      36.202 -20.837 -20.155  0.00  0.00    +0.061 C 
ATOM      9  C   UNL     1      35.075 -20.342 -21.001  0.00  0.00    +0.126 C 
ATOM     10  C   UNL     1      32.624 -22.203 -17.990  0.00  0.00    +0.177 C 
ATOM     11  C   UNL     1      35.441 -19.580 -22.251  0.00  0.00    +0.068 C 
ATOM     12  H   UNL     1      30.713 -22.402 -17.537  0.00  0.00    +0.165 HD
ENDROOT
BRANCH   4  14
ATOM     13 CL   UNL     1      34.105 -24.456 -13.126  0.00  0.00    -0.082 Cl
ATOM     14  C   UNL     1      31.582 -23.506 -16.069  0.00  0.00    +0.054 C 
ATOM     15  C   UNL     1      30.443 -24.233 -15.749  0.00  0.00    -0.008 C 
ATOM     16  C   UNL     1      32.714 -23.568 -15.267  0.00  0.00    +0.026 C 
ATOM     17  C   UNL     1      30.435 -25.037 -14.608  0.00  0.00    -0.002 C 
ATOM     18  C   UNL     1      29.215 -24.177 -16.599  0.00  0.00    +0.032 C 
ATOM     19  C   UNL     1      32.708 -24.371 -14.126  0.00  0.00    +0.059 C 
ATOM     20  C   UNL     1      31.568 -25.105 -13.797  0.00  0.00    +0.011 C 
ENDBRANCH   4  14
BRANCH   6  21
ATOM     21  N   UNL     1      36.761 -22.035 -18.162  0.00  0.00    -0.319 N 
ATOM     22  H   UNL     1      37.179 -22.902 -18.376  0.00  0.00    +0.148 HD
BRANCH  21  23
ATOM     23  C   UNL     1      37.132 -21.384 -16.934  0.00  0.00    +0.088 C 
BRANCH  23  24
ATOM     24  C   UNL     1      37.569 -22.408 -15.888  0.00  0.00    +0.021 C 
BRANCH  24  25
ATOM     25  C   UNL     1      36.494 -23.462 -15.610  0.00  0.00    +0.002 C 
ATOM     26  C   UNL     1      37.094 -24.719 -15.000  0.00  0.00    +0.000 C 
ENDBRANCH  24  25
ENDBRANCH  23  24
ENDBRANCH  21  23
ENDBRANCH   6  21
TORSDOF 5
ENDMDL
MODEL 7
REMARK VINA RESULT:      -8.5     12.806     16.883
REMARK  Name = 5287523
REMARK  5 active torsions:
REMARK  status: ('A' for Active; 'I' for Inactive)
REMARK    1  A    between atoms: N_4  and  C_14
REMARK    2  A    between atoms: C_6  and  N_21
REMARK    3  A    between atoms: N_21  and  C_23
REMARK    4  A    between atoms: C_23  and  C_24
REMARK    5  A    between atoms: C_24  and  C_25
REMARK                            x       y       z     vdW  Elec       q    Type
REMARK                         _______ _______ _______ _____ _____    ______ ____
ROOT
ATOM      1  N   UNL     1      32.603 -10.736 -23.208  0.00  0.00    -0.088 N 
ATOM      2  N   UNL     1      32.342  -9.404 -23.262  0.00  0.00    -0.082 NA
ATOM      3  N   UNL     1      34.320 -12.253 -23.936  0.00  0.00    -0.330 NA
ATOM      4  N   UNL     1      33.616  -7.631 -24.235  0.00  0.00    -0.246 N 
ATOM      5  N   UNL     1      34.321  -9.854 -24.295  0.00  0.00    -0.255 NA
ATOM      6  C   UNL     1      31.839 -11.759 -22.631  0.00  0.00    +0.136 C 
ATOM      7  C   UNL     1      33.821 -10.988 -23.847  0.00  0.00    +0.238 C 
ATOM      8  C   UNL     1      32.304 -13.017 -22.701  0.00  0.00    +0.061 C 
ATOM      9  C   UNL     1      33.612 -13.202 -23.400  0.00  0.00    +0.126 C 
ATOM     10  C   UNL     1      33.397  -8.933 -23.919  0.00  0.00    +0.177 C 
ATOM     11  C   UNL     1      34.147 -14.610 -23.488  0.00  0.00    +0.068 C 
ATOM     12  H   UNL     1      34.497  -7.464 -24.645  0.00  0.00    +0.165 HD
ENDROOT
BRANCH   4  14
ATOM     13 CL   UNL     1      30.195  -5.050 -21.432  0.00  0.00    -0.082 Cl
ATOM     14  C   UNL     1      32.819  -6.461 -24.088  0.00  0.00    +0.054 C 
ATOM     15  C   UNL     1      32.863  -5.456 -25.045  0.00  0.00    -0.008 C 
ATOM     16  C   UNL     1      32.001  -6.345 -22.972  0.00  0.00    +0.026 C 
ATOM     17  C   UNL     1      32.076  -4.316 -24.885  0.00  0.00    -0.002 C 
ATOM     18  C   UNL     1      33.739  -5.563 -26.252  0.00  0.00    +0.032 C 
ATOM     19  C   UNL     1      31.212  -5.205 -22.810  0.00  0.00    +0.059 C 
ATOM     20  C   UNL     1      31.250  -4.190 -23.767  0.00  0.00    +0.011 C 
ENDBRANCH   4  14
BRANCH   6  21
ATOM     21  N   UNL     1      30.664 -11.410 -22.030  0.00  0.00    -0.319 N 
ATOM     22  H   UNL     1      29.915 -11.121 -22.601  0.00  0.00    +0.148 HD
BRANCH  21  23
ATOM     23  C   UNL     1      30.463 -11.445 -20.605  0.00  0.00    +0.088 C 
BRANCH  23  24
ATOM     24  C   UNL     1      31.762 -11.127 -19.867  0.00  0.00    +0.021 C 
BRANCH  24  25
ATOM     25  C   UNL     1      31.707  -9.789 -19.126  0.00  0.00    +0.002 C 
ATOM     26  C   UNL     1      32.210  -8.650 -19.999  0.00  0.00    +0.000 C 
ENDBRANCH  24  25
ENDBRANCH  23  24
ENDBRANCH  21  23
ENDBRANCH   6  21
TORSDOF 5
ENDMDL
MODEL 8
REMARK VINA RESULT:      -8.5      7.885     12.874
REMARK  Name = 5287523
REMARK  5 active torsions:
REMARK  status: ('A' for Active; 'I' for Inactive)
REMARK    1  A    between atoms: N_4  and  C_14
REMARK    2  A    between atoms: C_6  and  N_21
REMARK    3  A    between atoms: N_21  and  C_23
REMARK    4  A    between atoms: C_23  and  C_24
REMARK    5  A    between atoms: C_24  and  C_25
REMARK                            x       y       z     vdW  Elec       q    Type
REMARK                         _______ _______ _______ _____ _____    ______ ____
ROOT
ATOM      1  N   UNL     1      33.921 -16.274 -22.358  0.00  0.00    -0.088 N 
ATOM      2  N   UNL     1      33.637 -14.984 -22.673  0.00  0.00    -0.082 NA
ATOM      3  N   UNL     1      33.355 -17.863 -20.644  0.00  0.00    -0.330 NA
ATOM      4  N   UNL     1      32.244 -13.402 -21.545  0.00  0.00    -0.246 N 
ATOM      5  N   UNL     1      32.550 -15.578 -20.762  0.00  0.00    -0.255 NA
ATOM      6  C   UNL     1      34.743 -17.185 -23.036  0.00  0.00    +0.136 C 
ATOM      7  C   UNL     1      33.243 -16.617 -21.184  0.00  0.00    +0.238 C 
ATOM      8  C   UNL     1      34.873 -18.422 -22.530  0.00  0.00    +0.061 C 
ATOM      9  C   UNL     1      34.117 -18.708 -21.273  0.00  0.00    +0.126 C 
ATOM     10  C   UNL     1      32.818 -14.623 -21.690  0.00  0.00    +0.177 C 
ATOM     11  C   UNL     1      34.255 -20.093 -20.693  0.00  0.00    +0.068 C 
ATOM     12  H   UNL     1      31.598 -13.351 -20.804  0.00  0.00    +0.165 HD
ENDROOT
BRANCH   4  14
ATOM     13 CL   UNL     1      34.597 -10.858 -25.316  0.00  0.00    -0.082 Cl
ATOM     14  C   UNL     1      32.397 -12.180 -22.260  0.00  0.00    +0.054 C 
ATOM     15  C   UNL     1      31.644 -11.066 -21.914  0.00  0.00    -0.008 C 
ATOM     16  C   UNL     1      33.308 -12.126 -23.306  0.00  0.00    +0.026 C 
ATOM     17  C   UNL     1      31.805  -9.876 -22.625  0.00  0.00    -0.002 C 
ATOM     18  C   UNL     1      30.657 -11.106 -20.792  0.00  0.00    +0.032 C 
ATOM     19  C   UNL     1      33.471 -10.937 -24.018  0.00  0.00    +0.059 C 
ATOM     20  C   UNL     1      32.719  -9.812 -23.678  0.00  0.00    +0.011 C 
ENDBRANCH   4  14
BRANCH   6  21
ATOM     21  N   UNL     1      35.361 -16.754 -24.174  0.00  0.00    -0.319 N 
ATOM     22  H   UNL     1      36.154 -16.177 -24.085  0.00  0.00    +0.148 HD
BRANCH  21  23
ATOM     23  C   UNL     1      34.914 -17.102 -25.497  0.00  0.00    +0.088 C 
BRANCH  23  24
ATOM     24  C   UNL     1      33.610 -16.383 -25.835  0.00  0.00    +0.021 C 
BRANCH  24  25
ATOM     25  C   UNL     1      33.772 -14.861 -25.888  0.00  0.00    +0.002 C 
ATOM     26  C   UNL     1      32.612 -14.205 -26.620  0.00  0.00    +0.000 C 
ENDBRANCH  24  25
ENDBRANCH  23  24
ENDBRANCH  21  23
ENDBRANCH   6  21
TORSDOF 5
ENDMDL
MODEL 9
REMARK VINA RESULT:      -8.4      9.628     13.231
REMARK  Name = 5287523
REMARK  5 active torsions:
REMARK  status: ('A' for Active; 'I' for Inactive)
REMARK    1  A    between atoms: N_4  and  C_14
REMARK    2  A    between atoms: C_6  and  N_21
REMARK    3  A    between atoms: N_21  and  C_23
REMARK    4  A    between atoms: C_23  and  C_24
REMARK    5  A    between atoms: C_24  and  C_25
REMARK                            x       y       z     vdW  Elec       q    Type
REMARK                         _______ _______ _______ _____ _____    ______ ____
ROOT
ATOM      1  N   UNL     1      33.267 -11.451 -23.331  0.00  0.00    -0.088 N 
ATOM      2  N   UNL     1      33.756 -12.714 -23.225  0.00  0.00    -0.082 NA
ATOM      3  N   UNL     1      31.403 -10.181 -22.500  0.00  0.00    -0.330 NA
ATOM      4  N   UNL     1      32.916 -14.586 -21.999  0.00  0.00    -0.246 N 
ATOM      5  N   UNL     1      31.851 -12.510 -21.996  0.00  0.00    -0.255 NA
ATOM      6  C   UNL     1      33.779 -10.368 -24.058  0.00  0.00    +0.136 C 
ATOM      7  C   UNL     1      32.099 -11.350 -22.569  0.00  0.00    +0.238 C 
ATOM      8  C   UNL     1      33.115  -9.201 -24.010  0.00  0.00    +0.061 C 
ATOM      9  C   UNL     1      31.877  -9.176 -23.175  0.00  0.00    +0.126 C 
ATOM     10  C   UNL     1      32.874 -13.296 -22.419  0.00  0.00    +0.177 C 
ATOM     11  C   UNL     1      31.121  -7.872 -23.113  0.00  0.00    +0.068 C 
ATOM     12  H   UNL     1      32.224 -14.811 -21.334  0.00  0.00    +0.165 HD
ENDROOT
BRANCH   4  14
ATOM     13 CL   UNL     1      34.604 -17.815 -25.597  0.00  0.00    -0.082 Cl
ATOM     14  C   UNL     1      33.768 -15.676 -22.333  0.00  0.00    +0.054 C 
ATOM     15  C   UNL     1      34.584 -16.251 -21.367  0.00  0.00    -0.008 C 
ATOM     16  C   UNL     1      33.767 -16.151 -23.638  0.00  0.00    +0.026 C 
ATOM     17  C   UNL     1      35.414 -17.318 -21.711  0.00  0.00    -0.002 C 
ATOM     18  C   UNL     1      34.599 -15.752 -19.958  0.00  0.00    +0.032 C 
ATOM     19  C   UNL     1      34.596 -17.219 -23.984  0.00  0.00    +0.059 C 
ATOM     20  C   UNL     1      35.420 -17.802 -23.020  0.00  0.00    +0.011 C 
ENDBRANCH   4  14
BRANCH   6  21
ATOM     21  N   UNL     1      34.925 -10.568 -24.770  0.00  0.00    -0.319 N 
ATOM     22  H   UNL     1      35.785 -10.342 -24.344  0.00  0.00    +0.148 HD
BRANCH  21  23
ATOM     23  C   UNL     1      34.944 -11.092 -26.110  0.00  0.00    +0.088 C 
BRANCH  23  24
ATOM     24  C   UNL     1      33.655 -11.853 -26.412  0.00  0.00    +0.021 C 
BRANCH  24  25
ATOM     25  C   UNL     1      33.894 -13.110 -27.252  0.00  0.00    +0.002 C 
ATOM     26  C   UNL     1      33.130 -14.302 -26.697  0.00  0.00    +0.000 C 
ENDBRANCH  24  25
ENDBRANCH  23  24
ENDBRANCH  21  23
ENDBRANCH   6  21
TORSDOF 5
ENDMDL
