MODEL 1
REMARK VINA RESULT:     -10.7      0.000      0.000
REMARK  Name = 5288238
REMARK  3 active torsions:
REMARK  status: ('A' for Active; 'I' for Inactive)
REMARK    1  A    between atoms: N_1  and  O_23
REMARK    2  A    between atoms: C_3  and  C_11
REMARK    3  A    between atoms: C_4  and  C_18
REMARK                            x       y       z     vdW  Elec       q    Type
REMARK                         _______ _______ _______ _____ _____    ______ ____
ROOT
ATOM      1  N   UNL     1      32.880 -24.384 -14.249  0.00  0.00    -0.182 N 
ATOM      2  N   UNL     1      31.170 -22.740 -16.860  0.00  0.00    -0.242 NA
ATOM      3  C   UNL     1      33.488 -23.345 -16.121  0.00  0.00    +0.038 A 
ATOM      4  C   UNL     1      33.957 -24.021 -15.016  0.00  0.00    +0.099 A 
ATOM      5  C   UNL     1      32.076 -23.298 -16.017  0.00  0.00    +0.102 A 
ATOM      6  C   UNL     1      31.718 -23.952 -14.841  0.00  0.00    +0.115 A 
ATOM      7  C   UNL     1      30.382 -24.072 -14.457  0.00  0.00    +0.024 C 
ATOM      8  C   UNL     1      29.444 -23.504 -15.313  0.00  0.00    +0.022 C 
ATOM      9  C   UNL     1      29.883 -22.869 -16.468  0.00  0.00    +0.099 C 
ENDROOT
BRANCH   3  11
ATOM     10  F   UNL     1      36.780 -21.275 -20.103  0.00  0.00    -0.204 F 
ATOM     11  C   UNL     1      34.338 -22.812 -17.149  0.00  0.00    +0.003 C 
ATOM     12  C   UNL     1      33.891 -22.768 -18.470  0.00  0.00    +0.002 C 
ATOM     13  C   UNL     1      35.608 -22.336 -16.826  0.00  0.00    +0.002 C 
ATOM     14  C   UNL     1      34.716 -22.249 -19.467  0.00  0.00    +0.030 C 
ATOM     15  C   UNL     1      36.433 -21.817 -17.823  0.00  0.00    +0.030 C 
ATOM     16  C   UNL     1      35.987 -21.774 -19.145  0.00  0.00    +0.140 C 
ENDBRANCH   3  11
BRANCH   4  18
ATOM     17  N   UNL     1      37.925 -24.978 -13.882  0.00  0.00    -0.242 NA
ATOM     18  C   UNL     1      35.314 -24.347 -14.631  0.00  0.00    +0.022 C 
ATOM     19  C   UNL     1      36.007 -23.512 -13.767  0.00  0.00    +0.022 C 
ATOM     20  C   UNL     1      35.916 -25.496 -15.123  0.00  0.00    +0.022 C 
ATOM     21  C   UNL     1      37.301 -23.870 -13.425  0.00  0.00    +0.099 C 
ATOM     22  C   UNL     1      37.215 -25.766 -14.721  0.00  0.00    +0.099 C 
ENDBRANCH   4  18
BRANCH   1  23
ATOM     23  O   UNL     1      32.944 -25.082 -13.049  0.00  0.00    -0.426 OA
ATOM     24  H   UNL     1      32.280 -24.957 -12.399  0.00  0.00    +0.326 HD
ENDBRANCH   1  23
TORSDOF 3
ENDMDL
MODEL 2
REMARK VINA RESULT:      -9.7      2.504      4.541
REMARK  Name = 5288238
REMARK  3 active torsions:
REMARK  status: ('A' for Active; 'I' for Inactive)
REMARK    1  A    between atoms: N_1  and  O_23
REMARK    2  A    between atoms: C_3  and  C_11
REMARK    3  A    between atoms: C_4  and  C_18
REMARK                            x       y       z     vdW  Elec       q    Type
REMARK                         _______ _______ _______ _____ _____    ______ ____
ROOT
ATOM      1  N   UNL     1      32.390 -23.070 -16.583  0.00  0.00    -0.182 N 
ATOM      2  N   UNL     1      32.319 -24.916 -13.577  0.00  0.00    -0.242 NA
ATOM      3  C   UNL     1      33.931 -23.921 -15.221  0.00  0.00    +0.038 A 
ATOM      4  C   UNL     1      33.740 -23.207 -16.382  0.00  0.00    +0.099 A 
ATOM      5  C   UNL     1      32.649 -24.229 -14.701  0.00  0.00    +0.102 A 
ATOM      6  C   UNL     1      31.702 -23.688 -15.567  0.00  0.00    +0.115 A 
ATOM      7  C   UNL     1      30.335 -23.825 -15.322  0.00  0.00    +0.024 C 
ATOM      8  C   UNL     1      29.984 -24.527 -14.173  0.00  0.00    +0.022 C 
ATOM      9  C   UNL     1      30.990 -25.036 -13.362  0.00  0.00    +0.099 C 
ENDROOT
BRANCH   3  11
ATOM     10  F   UNL     1      38.942 -25.230 -13.185  0.00  0.00    -0.204 F 
ATOM     11  C   UNL     1      35.225 -24.259 -14.696  0.00  0.00    +0.003 C 
ATOM     12  C   UNL     1      35.809 -23.458 -13.714  0.00  0.00    +0.002 C 
ATOM     13  C   UNL     1      35.896 -25.386 -15.166  0.00  0.00    +0.002 C 
ATOM     14  C   UNL     1      37.065 -23.787 -13.204  0.00  0.00    +0.030 C 
ATOM     15  C   UNL     1      37.151 -25.715 -14.657  0.00  0.00    +0.030 C 
ATOM     16  C   UNL     1      37.736 -24.914 -13.675  0.00  0.00    +0.140 C 
ENDBRANCH   3  11
BRANCH   4  18
ATOM     17  N   UNL     1      36.571 -21.573 -19.079  0.00  0.00    -0.242 NA
ATOM     18  C   UNL     1      34.709 -22.650 -17.304  0.00  0.00    +0.022 C 
ATOM     19  C   UNL     1      34.414 -22.580 -18.657  0.00  0.00    +0.022 C 
ATOM     20  C   UNL     1      35.927 -22.187 -16.830  0.00  0.00    +0.022 C 
ATOM     21  C   UNL     1      35.372 -22.036 -19.498  0.00  0.00    +0.099 C 
ATOM     22  C   UNL     1      36.819 -21.660 -17.752  0.00  0.00    +0.099 C 
ENDBRANCH   4  18
BRANCH   1  23
ATOM     23  O   UNL     1      31.796 -22.410 -17.653  0.00  0.00    -0.426 OA
ATOM     24  H   UNL     1      31.997 -21.510 -17.816  0.00  0.00    +0.326 HD
ENDBRANCH   1  23
TORSDOF 3
ENDMDL
MODEL 3
REMARK VINA RESULT:      -9.5      2.733      5.216
REMARK  Name = 5288238
REMARK  3 active torsions:
REMARK  status: ('A' for Active; 'I' for Inactive)
REMARK    1  A    between atoms: N_1  and  O_23
REMARK    2  A    between atoms: C_3  and  C_11
REMARK    3  A    between atoms: C_4  and  C_18
REMARK                            x       y       z     vdW  Elec       q    Type
REMARK                         _______ _______ _______ _____ _____    ______ ____
ROOT
ATOM      1  N   UNL     1      32.415 -22.612 -17.253  0.00  0.00    -0.182 N 
ATOM      2  N   UNL     1      35.826 -22.420 -18.134  0.00  0.00    -0.242 NA
ATOM      3  C   UNL     1      34.327 -23.226 -16.292  0.00  0.00    +0.038 A 
ATOM      4  C   UNL     1      32.958 -23.203 -16.140  0.00  0.00    +0.099 A 
ATOM      5  C   UNL     1      34.621 -22.627 -17.542  0.00  0.00    +0.102 A 
ATOM      6  C   UNL     1      33.413 -22.251 -18.125  0.00  0.00    +0.115 A 
ATOM      7  C   UNL     1      33.374 -21.630 -19.373  0.00  0.00    +0.024 C 
ATOM      8  C   UNL     1      34.602 -21.412 -19.989  0.00  0.00    +0.022 C 
ATOM      9  C   UNL     1      35.762 -21.816 -19.341  0.00  0.00    +0.099 C 
ENDROOT
BRANCH   3  11
ATOM     10  F   UNL     1      37.821 -25.340 -12.512  0.00  0.00    -0.204 F 
ATOM     11  C   UNL     1      35.228 -23.772 -15.316  0.00  0.00    +0.003 C 
ATOM     12  C   UNL     1      35.532 -25.134 -15.332  0.00  0.00    +0.002 C 
ATOM     13  C   UNL     1      35.800 -22.941 -14.354  0.00  0.00    +0.002 C 
ATOM     14  C   UNL     1      36.408 -25.663 -14.385  0.00  0.00    +0.030 C 
ATOM     15  C   UNL     1      36.676 -23.470 -13.406  0.00  0.00    +0.030 C 
ATOM     16  C   UNL     1      36.980 -24.832 -13.422  0.00  0.00    +0.140 C 
ENDBRANCH   3  11
BRANCH   4  18
ATOM     17  N   UNL     1      30.541 -24.604 -12.956  0.00  0.00    -0.242 NA
ATOM     18  C   UNL     1      32.134 -23.683 -15.051  0.00  0.00    +0.022 C 
ATOM     19  C   UNL     1      31.974 -22.909 -13.911  0.00  0.00    +0.022 C 
ATOM     20  C   UNL     1      31.503 -24.914 -15.152  0.00  0.00    +0.022 C 
ATOM     21  C   UNL     1      31.172 -23.411 -12.899  0.00  0.00    +0.099 C 
ATOM     22  C   UNL     1      30.722 -25.327 -14.084  0.00  0.00    +0.099 C 
ENDBRANCH   4  18
BRANCH   1  23
ATOM     23  O   UNL     1      31.059 -22.403 -17.474  0.00  0.00    -0.426 OA
ATOM     24  H   UNL     1      30.577 -21.827 -16.913  0.00  0.00    +0.326 HD
ENDBRANCH   1  23
TORSDOF 3
ENDMDL
MODEL 4
REMARK VINA RESULT:      -9.4      2.932      4.991
REMARK  Name = 5288238
REMARK  3 active torsions:
REMARK  status: ('A' for Active; 'I' for Inactive)
REMARK    1  A    between atoms: N_1  and  O_23
REMARK    2  A    between atoms: C_3  and  C_11
REMARK    3  A    between atoms: C_4  and  C_18
REMARK                            x       y       z     vdW  Elec       q    Type
REMARK                         _______ _______ _______ _____ _____    ______ ____
ROOT
ATOM      1  N   UNL     1      36.698 -22.859 -16.247  0.00  0.00    -0.182 N 
ATOM      2  N   UNL     1      33.845 -22.244 -18.229  0.00  0.00    -0.242 NA
ATOM      3  C   UNL     1      34.516 -23.241 -16.028  0.00  0.00    +0.038 A 
ATOM      4  C   UNL     1      35.742 -23.387 -15.417  0.00  0.00    +0.099 A 
ATOM      5  C   UNL     1      34.740 -22.601 -17.272  0.00  0.00    +0.102 A 
ATOM      6  C   UNL     1      36.109 -22.372 -17.388  0.00  0.00    +0.115 A 
ATOM      7  C   UNL     1      36.646 -21.751 -18.516  0.00  0.00    +0.024 C 
ATOM      8  C   UNL     1      35.738 -21.380 -19.503  0.00  0.00    +0.022 C 
ATOM      9  C   UNL     1      34.389 -21.644 -19.311  0.00  0.00    +0.099 C 
ENDROOT
BRANCH   3  11
ATOM     10  F   UNL     1      29.722 -24.960 -13.783  0.00  0.00    -0.204 F 
ATOM     11  C   UNL     1      33.278 -23.684 -15.448  0.00  0.00    +0.003 C 
ATOM     12  C   UNL     1      32.065 -23.234 -15.968  0.00  0.00    +0.002 C 
ATOM     13  C   UNL     1      33.291 -24.564 -14.367  0.00  0.00    +0.002 C 
ATOM     14  C   UNL     1      30.863 -23.666 -15.406  0.00  0.00    +0.030 C 
ATOM     15  C   UNL     1      32.090 -24.995 -13.804  0.00  0.00    +0.030 C 
ATOM     16  C   UNL     1      30.876 -24.545 -14.324  0.00  0.00    +0.140 C 
ENDBRANCH   3  11
BRANCH   4  18
ATOM     17  N   UNL     1      36.740 -25.103 -11.674  0.00  0.00    -0.242 NA
ATOM     18  C   UNL     1      36.081 -23.974 -14.137  0.00  0.00    +0.022 C 
ATOM     19  C   UNL     1      36.530 -25.285 -14.075  0.00  0.00    +0.022 C 
ATOM     20  C   UNL     1      35.958 -23.223 -12.978  0.00  0.00    +0.022 C 
ATOM     21  C   UNL     1      36.845 -25.799 -12.828  0.00  0.00    +0.099 C 
ATOM     22  C   UNL     1      36.299 -23.829 -11.778  0.00  0.00    +0.099 C 
ENDBRANCH   4  18
BRANCH   1  23
ATOM     23  O   UNL     1      38.062 -22.820 -15.983  0.00  0.00    -0.426 OA
ATOM     24  H   UNL     1      38.674 -22.751 -16.689  0.00  0.00    +0.326 HD
ENDBRANCH   1  23
TORSDOF 3
ENDMDL
MODEL 5
REMARK VINA RESULT:      -8.8     11.402     13.572
REMARK  Name = 5288238
REMARK  3 active torsions:
REMARK  status: ('A' for Active; 'I' for Inactive)
REMARK    1  A    between atoms: N_1  and  O_23
REMARK    2  A    between atoms: C_3  and  C_11
REMARK    3  A    between atoms: C_4  and  C_18
REMARK                            x       y       z     vdW  Elec       q    Type
REMARK                         _______ _______ _______ _____ _____    ______ ____
ROOT
ATOM      1  N   UNL     1      32.396 -13.629 -22.045  0.00  0.00    -0.182 N 
ATOM      2  N   UNL     1      32.291 -10.137 -22.534  0.00  0.00    -0.242 NA
ATOM      3  C   UNL     1      33.242 -12.224 -23.549  0.00  0.00    +0.038 A 
ATOM      4  C   UNL     1      33.159 -13.549 -23.182  0.00  0.00    +0.099 A 
ATOM      5  C   UNL     1      32.503 -11.477 -22.599  0.00  0.00    +0.102 A 
ATOM      6  C   UNL     1      31.983 -12.374 -21.669  0.00  0.00    +0.115 A 
ATOM      7  C   UNL     1      31.202 -11.937 -20.600  0.00  0.00    +0.024 C 
ATOM      8  C   UNL     1      30.978 -10.566 -20.522  0.00  0.00    +0.022 C 
ATOM      9  C   UNL     1      31.532  -9.738 -21.490  0.00  0.00    +0.099 C 
ENDROOT
BRANCH   3  11
ATOM     10  F   UNL     1      36.050 -10.421 -28.003  0.00  0.00    -0.204 F 
ATOM     11  C   UNL     1      33.967 -11.759 -24.699  0.00  0.00    +0.003 C 
ATOM     12  C   UNL     1      33.729 -12.329 -25.950  0.00  0.00    +0.002 C 
ATOM     13  C   UNL     1      34.907 -10.738 -24.564  0.00  0.00    +0.002 C 
ATOM     14  C   UNL     1      34.433 -11.876 -27.066  0.00  0.00    +0.030 C 
ATOM     15  C   UNL     1      35.611 -10.286 -25.680  0.00  0.00    +0.030 C 
ATOM     16  C   UNL     1      35.374 -10.856 -26.932  0.00  0.00    +0.140 C 
ENDBRANCH   3  11
BRANCH   4  18
ATOM     17  N   UNL     1      34.825 -16.995 -24.998  0.00  0.00    -0.242 NA
ATOM     18  C   UNL     1      33.729 -14.725 -23.805  0.00  0.00    +0.022 C 
ATOM     19  C   UNL     1      34.770 -15.400 -23.183  0.00  0.00    +0.022 C 
ATOM     20  C   UNL     1      33.232 -15.176 -25.018  0.00  0.00    +0.022 C 
ATOM     21  C   UNL     1      35.279 -16.522 -23.816  0.00  0.00    +0.099 C 
ATOM     22  C   UNL     1      33.810 -16.309 -25.570  0.00  0.00    +0.099 C 
ENDBRANCH   4  18
BRANCH   1  23
ATOM     23  O   UNL     1      32.084 -14.801 -21.366  0.00  0.00    -0.426 OA
ATOM     24  H   UNL     1      32.239 -14.863 -20.443  0.00  0.00    +0.326 HD
ENDBRANCH   1  23
TORSDOF 3
ENDMDL
MODEL 6
REMARK VINA RESULT:      -8.8      1.116      1.804
REMARK  Name = 5288238
REMARK  3 active torsions:
REMARK  status: ('A' for Active; 'I' for Inactive)
REMARK    1  A    between atoms: N_1  and  O_23
REMARK    2  A    between atoms: C_3  and  C_11
REMARK    3  A    between atoms: C_4  and  C_18
REMARK                            x       y       z     vdW  Elec       q    Type
REMARK                         _______ _______ _______ _____ _____    ______ ____
ROOT
ATOM      1  N   UNL     1      32.200 -24.138 -14.677  0.00  0.00    -0.182 N 
ATOM      2  N   UNL     1      30.102 -22.670 -17.104  0.00  0.00    -0.242 NA
ATOM      3  C   UNL     1      32.526 -23.078 -16.608  0.00  0.00    +0.038 A 
ATOM      4  C   UNL     1      33.159 -23.699 -15.555  0.00  0.00    +0.099 A 
ATOM      5  C   UNL     1      31.133 -23.142 -16.357  0.00  0.00    +0.102 A 
ATOM      6  C   UNL     1      30.952 -23.809 -15.147  0.00  0.00    +0.115 A 
ATOM      7  C   UNL     1      29.678 -24.031 -14.626  0.00  0.00    +0.024 C 
ATOM      8  C   UNL     1      28.612 -23.551 -15.383  0.00  0.00    +0.022 C 
ATOM      9  C   UNL     1      28.877 -22.897 -16.579  0.00  0.00    +0.099 C 
ENDROOT
BRANCH   3  11
ATOM     10  F   UNL     1      35.208 -20.806 -20.923  0.00  0.00    -0.204 F 
ATOM     11  C   UNL     1      33.218 -22.491 -17.721  0.00  0.00    +0.003 C 
ATOM     12  C   UNL     1      34.571 -22.765 -17.924  0.00  0.00    +0.002 C 
ATOM     13  C   UNL     1      32.538 -21.648 -18.599  0.00  0.00    +0.002 C 
ATOM     14  C   UNL     1      35.243 -22.196 -19.006  0.00  0.00    +0.030 C 
ATOM     15  C   UNL     1      33.209 -21.079 -19.681  0.00  0.00    +0.030 C 
ATOM     16  C   UNL     1      34.563 -21.353 -19.884  0.00  0.00    +0.140 C 
ENDBRANCH   3  11
BRANCH   4  18
ATOM     17  N   UNL     1      37.291 -24.320 -14.849  0.00  0.00    -0.242 NA
ATOM     18  C   UNL     1      34.571 -23.911 -15.311  0.00  0.00    +0.022 C 
ATOM     19  C   UNL     1      35.093 -25.196 -15.342  0.00  0.00    +0.022 C 
ATOM     20  C   UNL     1      35.398 -22.829 -15.051  0.00  0.00    +0.022 C 
ATOM     21  C   UNL     1      36.450 -25.346 -15.107  0.00  0.00    +0.099 C 
ATOM     22  C   UNL     1      36.743 -23.084 -14.829  0.00  0.00    +0.099 C 
ENDBRANCH   4  18
BRANCH   1  23
ATOM     23  O   UNL     1      32.445 -24.813 -13.488  0.00  0.00    -0.426 OA
ATOM     24  H   UNL     1      32.771 -25.691 -13.507  0.00  0.00    +0.326 HD
ENDBRANCH   1  23
TORSDOF 3
ENDMDL
MODEL 7
REMARK VINA RESULT:      -8.8     11.412     13.608
REMARK  Name = 5288238
REMARK  3 active torsions:
REMARK  status: ('A' for Active; 'I' for Inactive)
REMARK    1  A    between atoms: N_1  and  O_23
REMARK    2  A    between atoms: C_3  and  C_11
REMARK    3  A    between atoms: C_4  and  C_18
REMARK                            x       y       z     vdW  Elec       q    Type
REMARK                         _______ _______ _______ _____ _____    ______ ____
ROOT
ATOM      1  N   UNL     1      32.394 -13.631 -22.045  0.00  0.00    -0.182 N 
ATOM      2  N   UNL     1      32.293 -10.136 -22.515  0.00  0.00    -0.242 NA
ATOM      3  C   UNL     1      33.241 -12.218 -23.542  0.00  0.00    +0.038 A 
ATOM      4  C   UNL     1      33.157 -13.545 -23.182  0.00  0.00    +0.099 A 
ATOM      5  C   UNL     1      32.503 -11.476 -22.588  0.00  0.00    +0.102 A 
ATOM      6  C   UNL     1      31.983 -12.378 -21.662  0.00  0.00    +0.115 A 
ATOM      7  C   UNL     1      31.202 -11.946 -20.591  0.00  0.00    +0.024 C 
ATOM      8  C   UNL     1      30.979 -10.574 -20.506  0.00  0.00    +0.022 C 
ATOM      9  C   UNL     1      31.534  -9.742 -21.469  0.00  0.00    +0.099 C 
ENDROOT
BRANCH   3  11
ATOM     10  F   UNL     1      36.056 -10.400 -27.985  0.00  0.00    -0.204 F 
ATOM     11  C   UNL     1      33.968 -11.748 -24.689  0.00  0.00    +0.003 C 
ATOM     12  C   UNL     1      34.909 -10.728 -24.548  0.00  0.00    +0.002 C 
ATOM     13  C   UNL     1      33.733 -12.313 -25.942  0.00  0.00    +0.002 C 
ATOM     14  C   UNL     1      35.614 -10.273 -25.662  0.00  0.00    +0.030 C 
ATOM     15  C   UNL     1      34.438 -11.858 -27.055  0.00  0.00    +0.030 C 
ATOM     16  C   UNL     1      35.379 -10.837 -26.916  0.00  0.00    +0.140 C 
ENDBRANCH   3  11
BRANCH   4  18
ATOM     17  N   UNL     1      34.819 -16.984 -25.017  0.00  0.00    -0.242 NA
ATOM     18  C   UNL     1      33.726 -14.719 -23.811  0.00  0.00    +0.022 C 
ATOM     19  C   UNL     1      34.762 -15.402 -23.190  0.00  0.00    +0.022 C 
ATOM     20  C   UNL     1      33.232 -15.159 -25.030  0.00  0.00    +0.022 C 
ATOM     21  C   UNL     1      35.269 -16.521 -23.829  0.00  0.00    +0.099 C 
ATOM     22  C   UNL     1      33.808 -16.290 -25.588  0.00  0.00    +0.099 C 
ENDBRANCH   4  18
BRANCH   1  23
ATOM     23  O   UNL     1      32.080 -14.806 -21.372  0.00  0.00    -0.426 OA
ATOM     24  H   UNL     1      32.163 -14.848 -20.440  0.00  0.00    +0.326 HD
ENDBRANCH   1  23
TORSDOF 3
ENDMDL
MODEL 8
REMARK VINA RESULT:      -8.7     12.502     14.908
REMARK  Name = 5288238
REMARK  3 active torsions:
REMARK  status: ('A' for Active; 'I' for Inactive)
REMARK    1  A    between atoms: N_1  and  O_23
REMARK    2  A    between atoms: C_3  and  C_11
REMARK    3  A    between atoms: C_4  and  C_18
REMARK                            x       y       z     vdW  Elec       q    Type
REMARK                         _______ _______ _______ _____ _____    ______ ____
ROOT
ATOM      1  N   UNL     1      31.723 -11.786 -21.252  0.00  0.00    -0.182 N 
ATOM      2  N   UNL     1      33.728 -14.217 -22.837  0.00  0.00    -0.242 NA
ATOM      3  C   UNL     1      33.113 -11.791 -22.990  0.00  0.00    +0.038 A 
ATOM      4  C   UNL     1      32.271 -11.004 -22.236  0.00  0.00    +0.099 A 
ATOM      5  C   UNL     1      33.072 -13.096 -22.441  0.00  0.00    +0.102 A 
ATOM      6  C   UNL     1      32.197 -13.071 -21.357  0.00  0.00    +0.115 A 
ATOM      7  C   UNL     1      31.944 -14.217 -20.603  0.00  0.00    +0.024 C 
ATOM      8  C   UNL     1      32.611 -15.372 -20.999  0.00  0.00    +0.022 C 
ATOM      9  C   UNL     1      33.467 -15.315 -22.092  0.00  0.00    +0.099 C 
ENDROOT
BRANCH   3  11
ATOM     10  F   UNL     1      36.018  -9.916 -27.351  0.00  0.00    -0.204 F 
ATOM     11  C   UNL     1      33.863 -11.306 -24.116  0.00  0.00    +0.003 C 
ATOM     12  C   UNL     1      34.617 -10.138 -24.001  0.00  0.00    +0.002 C 
ATOM     13  C   UNL     1      33.837 -12.004 -25.322  0.00  0.00    +0.002 C 
ATOM     14  C   UNL     1      35.345  -9.670 -25.094  0.00  0.00    +0.030 C 
ATOM     15  C   UNL     1      34.564 -11.535 -26.415  0.00  0.00    +0.030 C 
ATOM     16  C   UNL     1      35.319 -10.367 -26.301  0.00  0.00    +0.140 C 
ENDBRANCH   3  11
BRANCH   4  18
ATOM     17  N   UNL     1      31.328  -6.891 -22.615  0.00  0.00    -0.242 NA
ATOM     18  C   UNL     1      31.946  -9.598 -22.365  0.00  0.00    +0.022 C 
ATOM     19  C   UNL     1      32.397  -8.695 -21.413  0.00  0.00    +0.022 C 
ATOM     20  C   UNL     1      31.190  -9.159 -23.441  0.00  0.00    +0.022 C 
ATOM     21  C   UNL     1      32.063  -7.361 -21.583  0.00  0.00    +0.099 C 
ATOM     22  C   UNL     1      30.909  -7.804 -23.521  0.00  0.00    +0.099 C 
ENDBRANCH   4  18
BRANCH   1  23
ATOM     23  O   UNL     1      30.819 -11.353 -20.289  0.00  0.00    -0.426 OA
ATOM     24  H   UNL     1      30.602 -10.444 -20.225  0.00  0.00    +0.326 HD
ENDBRANCH   1  23
TORSDOF 3
ENDMDL
MODEL 9
REMARK VINA RESULT:      -8.5      9.722     12.699
REMARK  Name = 5288238
REMARK  3 active torsions:
REMARK  status: ('A' for Active; 'I' for Inactive)
REMARK    1  A    between atoms: N_1  and  O_23
REMARK    2  A    between atoms: C_3  and  C_11
REMARK    3  A    between atoms: C_4  and  C_18
REMARK                            x       y       z     vdW  Elec       q    Type
REMARK                         _______ _______ _______ _____ _____    ______ ____
ROOT
ATOM      1  N   UNL     1      34.540 -16.493 -24.616  0.00  0.00    -0.182 N 
ATOM      2  N   UNL     1      34.096 -17.208 -21.190  0.00  0.00    -0.242 NA
ATOM      3  C   UNL     1      33.644 -15.417 -22.886  0.00  0.00    +0.038 A 
ATOM      4  C   UNL     1      33.912 -15.334 -24.234  0.00  0.00    +0.099 A 
ATOM      5  C   UNL     1      34.128 -16.670 -22.436  0.00  0.00    +0.102 A 
ATOM      6  C   UNL     1      34.683 -17.325 -23.533  0.00  0.00    +0.115 A 
ATOM      7  C   UNL     1      35.248 -18.595 -23.408  0.00  0.00    +0.024 C 
ATOM      8  C   UNL     1      35.221 -19.156 -22.135  0.00  0.00    +0.022 C 
ATOM      9  C   UNL     1      34.649 -18.437 -21.094  0.00  0.00    +0.099 C 
ENDROOT
BRANCH   3  11
ATOM     10  F   UNL     1      31.116 -11.392 -19.990  0.00  0.00    -0.204 F 
ATOM     11  C   UNL     1      32.991 -14.378 -22.138  0.00  0.00    +0.003 C 
ATOM     12  C   UNL     1      33.081 -14.360 -20.746  0.00  0.00    +0.002 C 
ATOM     13  C   UNL     1      32.269 -13.388 -22.804  0.00  0.00    +0.002 C 
ATOM     14  C   UNL     1      32.447 -13.350 -20.021  0.00  0.00    +0.030 C 
ATOM     15  C   UNL     1      31.636 -12.380 -22.079  0.00  0.00    +0.030 C 
ATOM     16  C   UNL     1      31.725 -12.361 -20.686  0.00  0.00    +0.140 C 
ENDBRANCH   3  11
BRANCH   4  18
ATOM     17  N   UNL     1      33.095 -12.226 -26.995  0.00  0.00    -0.242 NA
ATOM     18  C   UNL     1      33.631 -14.272 -25.177  0.00  0.00    +0.022 C 
ATOM     19  C   UNL     1      34.154 -13.005 -24.966  0.00  0.00    +0.022 C 
ATOM     20  C   UNL     1      32.841 -14.525 -26.288  0.00  0.00    +0.022 C 
ATOM     21  C   UNL     1      33.859 -12.023 -25.899  0.00  0.00    +0.099 C 
ATOM     22  C   UNL     1      32.604 -13.475 -27.163  0.00  0.00    +0.099 C 
ENDBRANCH   4  18
BRANCH   1  23
ATOM     23  O   UNL     1      34.974 -16.788 -25.903  0.00  0.00    -0.426 OA
ATOM     24  H   UNL     1      35.005 -16.113 -26.552  0.00  0.00    +0.326 HD
ENDBRANCH   1  23
TORSDOF 3
ENDMDL
