MODEL 1
REMARK VINA RESULT:      -8.9      0.000      0.000
REMARK  Name = 5284595
REMARK  4 active torsions:
REMARK  status: ('A' for Active; 'I' for Inactive)
REMARK    1  A    between atoms: N_2  and  C_24
REMARK    2  A    between atoms: C_12  and  O_20
REMARK    3  A    between atoms: C_17  and  O_22
REMARK    4  A    between atoms: C_24  and  C_25
REMARK                            x       y       z     vdW  Elec       q    Type
REMARK                         _______ _______ _______ _____ _____    ______ ____
ROOT
ATOM      1  O   UNL     1      31.656 -11.197 -22.796  0.00  0.00    -0.473 OA
ATOM      2  N   UNL     1      31.558  -5.997 -23.479  0.00  0.00    +0.391 N 
ATOM      3  C   UNL     1      31.509  -8.771 -22.629  0.00  0.00    +0.061 C 
ATOM      4  C   UNL     1      31.864  -7.620 -21.676  0.00  0.00    +0.010 C 
ATOM      5  C   UNL     1      32.573  -6.524 -22.537  0.00  0.00    -0.049 C 
ATOM      6  C   UNL     1      31.061 -10.112 -22.001  0.00  0.00    +0.200 C 
ATOM      7  C   UNL     1      30.533  -8.261 -23.706  0.00  0.00    -0.015 C 
ATOM      8  C   UNL     1      32.768  -9.260 -23.266  0.00  0.00    +0.014 C 
ATOM      9  C   UNL     1      33.892  -7.041 -23.208  0.00  0.00    +0.006 C 
ATOM     10  C   UNL     1      31.042  -6.997 -24.419  0.00  0.00    -0.076 C 
ATOM     11  C   UNL     1      33.865  -8.491 -23.608  0.00  0.00    -0.025 C 
ATOM     12  C   UNL     1      31.414 -10.267 -20.499  0.00  0.00    +0.172 C 
ATOM     13  C   UNL     1      32.662  -8.105 -20.492  0.00  0.00    -0.030 C 
ATOM     14  C   UNL     1      32.756 -10.632 -23.383  0.00  0.00    +0.168 C 
ATOM     15  C   UNL     1      32.463  -9.325 -19.972  0.00  0.00    +0.002 C 
ATOM     16  C   UNL     1      34.942  -9.149 -24.207  0.00  0.00    -0.001 C 
ATOM     17  C   UNL     1      33.802 -11.302 -23.979  0.00  0.00    +0.167 C 
ATOM     18  C   UNL     1      34.899 -10.544 -24.409  0.00  0.00    +0.039 C 
ATOM     19  H   UNL     1      30.776  -5.736 -22.879  0.00  0.00    -0.079 HD
ENDROOT
BRANCH  12  20
ATOM     20  O   UNL     1      31.777 -11.618 -20.222  0.00  0.00    -0.377 OA
ATOM     21  H   UNL     1      31.028 -12.201 -20.422  0.00  0.00    +0.211 HD
ENDBRANCH  12  20
BRANCH  17  22
ATOM     22  O   UNL     1      33.795 -12.650 -24.117  0.00  0.00    -0.503 OA
ATOM     23  H   UNL     1      34.547 -13.090 -24.463  0.00  0.00    +0.292 HD
ENDBRANCH  17  22
BRANCH   2  24
ATOM     24  C   UNL     1      31.984  -4.785 -24.173  0.00  0.00    -0.050 C 
BRANCH  24  25
ATOM     25  C   UNL     1      32.168  -5.024 -25.640  0.00  0.00    -0.049 C 
ATOM     26  C   UNL     1      33.352  -4.977 -26.262  0.00  0.00    -0.007 C 
ENDBRANCH  24  25
ENDBRANCH   2  24
TORSDOF 4
ENDMDL
MODEL 2
REMARK VINA RESULT:      -7.2     16.543     18.846
REMARK  Name = 5284595
REMARK  4 active torsions:
REMARK  status: ('A' for Active; 'I' for Inactive)
REMARK    1  A    between atoms: N_2  and  C_24
REMARK    2  A    between atoms: C_12  and  O_20
REMARK    3  A    between atoms: C_17  and  O_22
REMARK    4  A    between atoms: C_24  and  C_25
REMARK                            x       y       z     vdW  Elec       q    Type
REMARK                         _______ _______ _______ _____ _____    ______ ____
ROOT
ATOM      1  O   UNL     1      38.724 -23.980 -14.157  0.00  0.00    -0.473 OA
ATOM      2  N   UNL     1      33.740 -23.604 -15.750  0.00  0.00    +0.391 N 
ATOM      3  C   UNL     1      36.494 -24.248 -15.102  0.00  0.00    +0.061 C 
ATOM      4  C   UNL     1      35.430 -25.327 -15.352  0.00  0.00    +0.010 C 
ATOM      5  C   UNL     1      34.068 -24.740 -14.856  0.00  0.00    -0.049 C 
ATOM      6  C   UNL     1      37.980 -24.661 -15.227  0.00  0.00    +0.200 C 
ATOM      7  C   UNL     1      36.153 -22.992 -15.925  0.00  0.00    -0.015 C 
ATOM      8  C   UNL     1      36.501 -23.923 -13.644  0.00  0.00    +0.014 C 
ATOM      9  C   UNL     1      34.078 -24.396 -13.327  0.00  0.00    +0.006 C 
ATOM     10  C   UNL     1      34.711 -22.507 -15.698  0.00  0.00    -0.076 C 
ATOM     11  C   UNL     1      35.404 -23.917 -12.801  0.00  0.00    -0.025 C 
ATOM     12  C   UNL     1      38.226 -26.192 -15.186  0.00  0.00    +0.172 C 
ATOM     13  C   UNL     1      35.814 -26.643 -14.726  0.00  0.00    -0.030 C 
ATOM     14  C   UNL     1      37.786 -23.725 -13.193  0.00  0.00    +0.168 C 
ATOM     15  C   UNL     1      37.098 -27.022 -14.636  0.00  0.00    +0.002 C 
ATOM     16  C   UNL     1      35.629 -23.571 -11.467  0.00  0.00    -0.001 C 
ATOM     17  C   UNL     1      38.032 -23.375 -11.883  0.00  0.00    +0.167 C 
ATOM     18  C   UNL     1      36.934 -23.283 -11.018  0.00  0.00    +0.039 C 
ATOM     19  H   UNL     1      33.804 -24.001 -16.687  0.00  0.00    -0.079 HD
ENDROOT
BRANCH  12  20
ATOM     20  O   UNL     1      39.435 -26.471 -14.484  0.00  0.00    -0.377 OA
ATOM     21  H   UNL     1      40.070 -25.754 -14.636  0.00  0.00    +0.211 HD
ENDBRANCH  12  20
BRANCH  17  22
ATOM     22  O   UNL     1      39.291 -23.159 -11.430  0.00  0.00    -0.503 OA
ATOM     23  H   UNL     1      39.583 -22.286 -11.257  0.00  0.00    +0.292 HD
ENDBRANCH  17  22
BRANCH   2  24
ATOM     24  C   UNL     1      32.374 -23.115 -15.589  0.00  0.00    -0.050 C 
BRANCH  24  25
ATOM     25  C   UNL     1      31.379 -24.233 -15.631  0.00  0.00    -0.049 C 
ATOM     26  C   UNL     1      30.182 -24.191 -15.035  0.00  0.00    -0.007 C 
ENDBRANCH  24  25
ENDBRANCH   2  24
TORSDOF 4
ENDMDL
MODEL 3
REMARK VINA RESULT:      -7.1     16.271     18.648
REMARK  Name = 5284595
REMARK  4 active torsions:
REMARK  status: ('A' for Active; 'I' for Inactive)
REMARK    1  A    between atoms: N_2  and  C_24
REMARK    2  A    between atoms: C_12  and  O_20
REMARK    3  A    between atoms: C_17  and  O_22
REMARK    4  A    between atoms: C_24  and  C_25
REMARK                            x       y       z     vdW  Elec       q    Type
REMARK                         _______ _______ _______ _____ _____    ______ ____
ROOT
ATOM      1  O   UNL     1      38.974 -24.048 -14.012  0.00  0.00    -0.473 OA
ATOM      2  N   UNL     1      34.178 -23.689 -16.107  0.00  0.00    +0.391 N 
ATOM      3  C   UNL     1      36.851 -24.327 -15.174  0.00  0.00    +0.061 C 
ATOM      4  C   UNL     1      35.814 -25.408 -15.514  0.00  0.00    +0.010 C 
ATOM      5  C   UNL     1      34.410 -24.812 -15.168  0.00  0.00    -0.049 C 
ATOM      6  C   UNL     1      38.340 -24.744 -15.142  0.00  0.00    +0.200 C 
ATOM      7  C   UNL     1      36.598 -23.082 -16.045  0.00  0.00    -0.015 C 
ATOM      8  C   UNL     1      36.710 -23.981 -13.728  0.00  0.00    +0.014 C 
ATOM      9  C   UNL     1      34.267 -24.445 -13.650  0.00  0.00    +0.006 C 
ATOM     10  C   UNL     1      35.142 -22.593 -15.973  0.00  0.00    -0.076 C 
ATOM     11  C   UNL     1      35.534 -23.960 -13.001  0.00  0.00    -0.025 C 
ATOM     12  C   UNL     1      38.576 -26.275 -15.054  0.00  0.00    +0.172 C 
ATOM     13  C   UNL     1      36.128 -26.715 -14.833  0.00  0.00    -0.030 C 
ATOM     14  C   UNL     1      37.944 -23.778 -13.152  0.00  0.00    +0.168 C 
ATOM     15  C   UNL     1      37.395 -27.095 -14.609  0.00  0.00    +0.002 C 
ATOM     16  C   UNL     1      35.623 -23.595 -11.655  0.00  0.00    -0.001 C 
ATOM     17  C   UNL     1      38.057 -23.409 -11.829  0.00  0.00    +0.167 C 
ATOM     18  C   UNL     1      36.877 -23.302 -11.081  0.00  0.00    +0.039 C 
ATOM     19  H   UNL     1      34.335 -24.100 -17.026  0.00  0.00    -0.079 HD
ENDROOT
BRANCH  12  20
ATOM     20  O   UNL     1      39.706 -26.545 -14.229  0.00  0.00    -0.377 OA
ATOM     21  H   UNL     1      40.289 -27.178 -14.677  0.00  0.00    +0.211 HD
ENDBRANCH  12  20
BRANCH  17  22
ATOM     22  O   UNL     1      39.265 -23.188 -11.254  0.00  0.00    -0.503 OA
ATOM     23  H   UNL     1      39.549 -23.726 -10.541  0.00  0.00    +0.292 HD
ENDBRANCH  17  22
BRANCH   2  24
ATOM     24  C   UNL     1      32.804 -23.195 -16.092  0.00  0.00    -0.050 C 
BRANCH  24  25
ATOM     25  C   UNL     1      32.335 -22.829 -17.467  0.00  0.00    -0.049 C 
ATOM     26  C   UNL     1      33.150 -22.453 -18.459  0.00  0.00    -0.007 C 
ENDBRANCH  24  25
ENDBRANCH   2  24
TORSDOF 4
ENDMDL
MODEL 4
REMARK VINA RESULT:      -6.3      7.825     10.852
REMARK  Name = 5284595
REMARK  4 active torsions:
REMARK  status: ('A' for Active; 'I' for Inactive)
REMARK    1  A    between atoms: N_2  and  C_24
REMARK    2  A    between atoms: C_12  and  O_20
REMARK    3  A    between atoms: C_17  and  O_22
REMARK    4  A    between atoms: C_24  and  C_25
REMARK                            x       y       z     vdW  Elec       q    Type
REMARK                         _______ _______ _______ _____ _____    ______ ____
ROOT
ATOM      1  O   UNL     1      35.040 -15.335 -23.239  0.00  0.00    -0.473 OA
ATOM      2  N   UNL     1      35.600 -19.699 -20.382  0.00  0.00    +0.391 N 
ATOM      3  C   UNL     1      34.992 -17.135 -21.598  0.00  0.00    +0.061 C 
ATOM      4  C   UNL     1      34.024 -17.846 -20.640  0.00  0.00    +0.010 C 
ATOM      5  C   UNL     1      34.229 -19.382 -20.849  0.00  0.00    -0.049 C 
ATOM      6  C   UNL     1      34.801 -15.615 -21.815  0.00  0.00    +0.200 C 
ATOM      7  C   UNL     1      36.441 -17.508 -21.233  0.00  0.00    -0.015 C 
ATOM      8  C   UNL     1      34.682 -17.575 -22.991  0.00  0.00    +0.014 C 
ATOM      9  C   UNL     1      33.908 -19.841 -22.313  0.00  0.00    +0.006 C 
ATOM     10  C   UNL     1      36.658 -19.028 -21.143  0.00  0.00    -0.076 C 
ATOM     11  C   UNL     1      34.241 -18.829 -23.375  0.00  0.00    -0.025 C 
ATOM     12  C   UNL     1      33.419 -15.071 -21.367  0.00  0.00    +0.172 C 
ATOM     13  C   UNL     1      32.607 -17.369 -20.825  0.00  0.00    -0.030 C 
ATOM     14  C   UNL     1      34.788 -16.522 -23.872  0.00  0.00    +0.168 C 
ATOM     15  C   UNL     1      32.339 -16.102 -21.178  0.00  0.00    +0.002 C 
ATOM     16  C   UNL     1      34.020 -19.036 -24.739  0.00  0.00    -0.001 C 
ATOM     17  C   UNL     1      34.583 -16.704 -25.222  0.00  0.00    +0.167 C 
ATOM     18  C   UNL     1      34.211 -17.983 -25.657  0.00  0.00    +0.039 C 
ATOM     19  H   UNL     1      35.634 -19.311 -19.439  0.00  0.00    -0.079 HD
ENDROOT
BRANCH  12  20
ATOM     20  O   UNL     1      32.982 -14.055 -22.267  0.00  0.00    -0.377 OA
ATOM     21  H   UNL     1      33.677 -13.385 -22.359  0.00  0.00    +0.211 HD
ENDBRANCH  12  20
BRANCH  17  22
ATOM     22  O   UNL     1      34.702 -15.680 -26.103  0.00  0.00    -0.503 OA
ATOM     23  H   UNL     1      34.911 -15.855 -26.999  0.00  0.00    +0.292 HD
ENDBRANCH  17  22
BRANCH   2  24
ATOM     24  C   UNL     1      35.856 -21.131 -20.262  0.00  0.00    -0.050 C 
BRANCH  24  25
ATOM     25  C   UNL     1      35.158 -21.718 -19.074  0.00  0.00    -0.049 C 
ATOM     26  C   UNL     1      34.068 -22.490 -19.153  0.00  0.00    -0.007 C 
ENDBRANCH  24  25
ENDBRANCH   2  24
TORSDOF 4
ENDMDL
