MODEL 1
REMARK VINA RESULT:      -9.3      0.000      0.000
REMARK  Name = 3082654
REMARK  9 active torsions:
REMARK  status: ('A' for Active; 'I' for Inactive)
REMARK    1  A    between atoms: N_2  and  C_15
REMARK    2  A    between atoms: C_3  and  C_5
REMARK    3  A    between atoms: C_5  and  N_7
REMARK    4  A    between atoms: C_5  and  C_11
REMARK    5  A    between atoms: C_11  and  C_12
REMARK    6  A    between atoms: C_15  and  C_17
REMARK    7  A    between atoms: C_15  and  C_22
REMARK    8  A    between atoms: C_17  and  C_21
REMARK    9  A    between atoms: C_22  and  C_23
REMARK                            x       y       z     vdW  Elec       q    Type
REMARK                         _______ _______ _______ _____ _____    ______ ____
ROOT
ATOM      1  O   UNL     1      36.550 -22.723 -15.984  0.00  0.00    -0.273 OA
ATOM      2  N   UNL     1      34.616 -23.996 -16.144  0.00  0.00    -0.298 N 
ATOM      3  C   UNL     1      35.929 -23.760 -15.764  0.00  0.00    +0.241 C 
ATOM      4  H   UNL     1      34.212 -24.865 -15.916  0.00  0.00    +0.150 HD
ENDROOT
BRANCH   3   5
ATOM      5  C   UNL     1      36.554 -24.971 -15.078  0.00  0.00    +0.149 C 
BRANCH   5   7
ATOM      6  O   UNL     1      38.605 -26.983 -14.666  0.00  0.00    -0.275 OA
ATOM      7  N   UNL     1      37.980 -24.782 -15.098  0.00  0.00    -0.298 N 
ATOM      8  C   UNL     1      38.889 -25.809 -14.890  0.00  0.00    +0.223 C 
ATOM      9  C   UNL     1      40.317 -25.342 -14.989  0.00  0.00    +0.095 C 
ATOM     10  H   UNL     1      38.330 -23.877 -15.269  0.00  0.00    +0.150 HD
ENDBRANCH   5   7
BRANCH   5  11
ATOM     11  C   UNL     1      36.007 -25.114 -13.651  0.00  0.00    +0.029 C 
BRANCH  11  12
ATOM     12  C   UNL     1      36.439 -23.999 -12.678  0.00  0.00    +0.002 C 
ATOM     13  C   UNL     1      35.339 -23.640 -11.678  0.00  0.00    +0.000 C 
ATOM     14  C   UNL     1      37.700 -24.432 -11.925  0.00  0.00    +0.000 C 
ENDBRANCH  11  12
ENDBRANCH   5  11
ENDBRANCH   3   5
BRANCH   2  15
ATOM     15  C   UNL     1      33.811 -23.031 -16.856  0.00  0.00    +0.142 C 
BRANCH  15  17
ATOM     16  O   UNL     1      31.398 -23.045 -16.973  0.00  0.00    -0.286 OA
ATOM     17  C   UNL     1      32.408 -23.127 -16.276  0.00  0.00    +0.262 C 
BRANCH  17  21
ATOM     18  F   UNL     1      32.330 -24.686 -14.487  0.00  0.00    -0.163 F 
ATOM     19  F   UNL     1      31.158 -22.861 -14.282  0.00  0.00    -0.163 F 
ATOM     20  F   UNL     1      33.332 -22.786 -14.119  0.00  0.00    -0.163 F 
ATOM     21  C   UNL     1      32.309 -23.365 -14.795  0.00  0.00    +0.453 C 
ENDBRANCH  17  21
ENDBRANCH  15  17
BRANCH  15  22
ATOM     22  C   UNL     1      33.775 -23.291 -18.363  0.00  0.00    +0.054 C 
BRANCH  22  23
ATOM     23  C   UNL     1      34.216 -22.094 -19.171  0.00  0.00    -0.020 C 
ATOM     24  C   UNL     1      33.263 -21.256 -19.751  0.00  0.00    -0.004 C 
ATOM     25  C   UNL     1      35.574 -21.826 -19.335  0.00  0.00    -0.004 C 
ATOM     26  C   UNL     1      33.669 -20.151 -20.497  0.00  0.00    -0.000 C 
ATOM     27  C   UNL     1      35.980 -20.719 -20.081  0.00  0.00    -0.000 C 
ATOM     28  C   UNL     1      35.028 -19.882 -20.662  0.00  0.00    -0.000 C 
ENDBRANCH  22  23
ENDBRANCH  15  22
ENDBRANCH   2  15
TORSDOF 9
ENDMDL
MODEL 2
REMARK VINA RESULT:      -9.2      7.286     11.174
REMARK  Name = 3082654
REMARK  9 active torsions:
REMARK  status: ('A' for Active; 'I' for Inactive)
REMARK    1  A    between atoms: N_2  and  C_15
REMARK    2  A    between atoms: C_3  and  C_5
REMARK    3  A    between atoms: C_5  and  N_7
REMARK    4  A    between atoms: C_5  and  C_11
REMARK    5  A    between atoms: C_11  and  C_12
REMARK    6  A    between atoms: C_15  and  C_17
REMARK    7  A    between atoms: C_15  and  C_22
REMARK    8  A    between atoms: C_17  and  C_21
REMARK    9  A    between atoms: C_22  and  C_23
REMARK                            x       y       z     vdW  Elec       q    Type
REMARK                         _______ _______ _______ _____ _____    ______ ____
ROOT
ATOM      1  O   UNL     1      34.910 -15.313 -20.172  0.00  0.00    -0.273 OA
ATOM      2  N   UNL     1      34.159 -16.516 -22.010  0.00  0.00    -0.298 N 
ATOM      3  C   UNL     1      34.319 -15.367 -21.248  0.00  0.00    +0.241 C 
ATOM      4  H   UNL     1      33.668 -16.448 -22.860  0.00  0.00    +0.150 HD
ENDROOT
BRANCH   3   5
ATOM      5  C   UNL     1      33.620 -14.164 -21.872  0.00  0.00    +0.149 C 
BRANCH   5   7
ATOM      6  O   UNL     1      33.940 -12.653 -24.330  0.00  0.00    -0.275 OA
ATOM      7  N   UNL     1      33.209 -14.551 -23.196  0.00  0.00    -0.298 N 
ATOM      8  C   UNL     1      33.405 -13.759 -24.318  0.00  0.00    +0.223 C 
ATOM      9  C   UNL     1      32.905 -14.413 -25.578  0.00  0.00    +0.095 C 
ATOM     10  H   UNL     1      32.767 -15.423 -23.313  0.00  0.00    +0.150 HD
ENDBRANCH   5   7
BRANCH   5  11
ATOM     11  C   UNL     1      32.435 -13.727 -21.001  0.00  0.00    +0.029 C 
BRANCH  11  12
ATOM     12  C   UNL     1      32.186 -12.205 -20.963  0.00  0.00    +0.002 C 
ATOM     13  C   UNL     1      31.175 -11.754 -22.019  0.00  0.00    +0.000 C 
ATOM     14  C   UNL     1      31.695 -11.797 -19.571  0.00  0.00    +0.000 C 
ENDBRANCH  11  12
ENDBRANCH   5  11
ENDBRANCH   3   5
BRANCH   2  15
ATOM     15  C   UNL     1      34.680 -17.806 -21.618  0.00  0.00    +0.142 C 
BRANCH  15  17
ATOM     16  O   UNL     1      36.811 -18.346 -22.619  0.00  0.00    -0.286 OA
ATOM     17  C   UNL     1      35.590 -18.264 -22.747  0.00  0.00    +0.262 C 
BRANCH  17  21
ATOM     18  F   UNL     1      33.573 -18.733 -23.907  0.00  0.00    -0.163 F 
ATOM     19  F   UNL     1      35.348 -19.858 -24.481  0.00  0.00    -0.163 F 
ATOM     20  F   UNL     1      35.168 -17.754 -25.024  0.00  0.00    -0.163 F 
ATOM     21  C   UNL     1      34.920 -18.650 -24.036  0.00  0.00    +0.453 C 
ENDBRANCH  17  21
ENDBRANCH  15  17
BRANCH  15  22
ATOM     22  C   UNL     1      33.576 -18.839 -21.381  0.00  0.00    +0.054 C 
BRANCH  22  23
ATOM     23  C   UNL     1      34.038 -20.000 -20.536  0.00  0.00    -0.020 C 
ATOM     24  C   UNL     1      35.402 -20.250 -20.381  0.00  0.00    -0.004 C 
ATOM     25  C   UNL     1      33.103 -20.822 -19.907  0.00  0.00    -0.004 C 
ATOM     26  C   UNL     1      35.830 -21.323 -19.601  0.00  0.00    -0.000 C 
ATOM     27  C   UNL     1      33.531 -21.895 -19.126  0.00  0.00    -0.000 C 
ATOM     28  C   UNL     1      34.895 -22.146 -18.972  0.00  0.00    -0.000 C 
ENDBRANCH  22  23
ENDBRANCH  15  22
ENDBRANCH   2  15
TORSDOF 9
ENDMDL
MODEL 3
REMARK VINA RESULT:      -9.1      1.780      2.675
REMARK  Name = 3082654
REMARK  9 active torsions:
REMARK  status: ('A' for Active; 'I' for Inactive)
REMARK    1  A    between atoms: N_2  and  C_15
REMARK    2  A    between atoms: C_3  and  C_5
REMARK    3  A    between atoms: C_5  and  N_7
REMARK    4  A    between atoms: C_5  and  C_11
REMARK    5  A    between atoms: C_11  and  C_12
REMARK    6  A    between atoms: C_15  and  C_17
REMARK    7  A    between atoms: C_15  and  C_22
REMARK    8  A    between atoms: C_17  and  C_21
REMARK    9  A    between atoms: C_22  and  C_23
REMARK                            x       y       z     vdW  Elec       q    Type
REMARK                         _______ _______ _______ _____ _____    ______ ____
ROOT
ATOM      1  O   UNL     1      36.296 -21.556 -15.983  0.00  0.00    -0.273 OA
ATOM      2  N   UNL     1      34.953 -23.338 -15.343  0.00  0.00    -0.298 N 
ATOM      3  C   UNL     1      36.114 -22.579 -15.326  0.00  0.00    +0.241 C 
ATOM      4  H   UNL     1      34.912 -24.142 -14.776  0.00  0.00    +0.150 HD
ENDROOT
BRANCH   3   5
ATOM      5  C   UNL     1      37.186 -23.190 -14.430  0.00  0.00    +0.149 C 
BRANCH   5   7
ATOM      6  O   UNL     1      38.053 -22.692 -11.704  0.00  0.00    -0.275 OA
ATOM      7  N   UNL     1      36.537 -23.609 -13.216  0.00  0.00    -0.298 N 
ATOM      8  C   UNL     1      37.028 -23.322 -11.950  0.00  0.00    +0.223 C 
ATOM      9  C   UNL     1      36.141 -23.855 -10.856  0.00  0.00    +0.095 C 
ATOM     10  H   UNL     1      35.700 -24.124 -13.286  0.00  0.00    +0.150 HD
ENDBRANCH   5   7
BRANCH   5  11
ATOM     11  C   UNL     1      37.879 -24.356 -15.149  0.00  0.00    +0.029 C 
BRANCH  11  12
ATOM     12  C   UNL     1      38.294 -25.526 -14.234  0.00  0.00    +0.002 C 
ATOM     13  C   UNL     1      37.598 -26.834 -14.610  0.00  0.00    +0.000 C 
ATOM     14  C   UNL     1      39.813 -25.714 -14.295  0.00  0.00    +0.000 C 
ENDBRANCH  11  12
ENDBRANCH   5  11
ENDBRANCH   3   5
BRANCH   2  15
ATOM     15  C   UNL     1      33.801 -23.008 -16.150  0.00  0.00    +0.142 C 
BRANCH  15  17
ATOM     16  O   UNL     1      32.715 -24.559 -14.651  0.00  0.00    -0.286 OA
ATOM     17  C   UNL     1      32.601 -23.650 -15.472  0.00  0.00    +0.262 C 
BRANCH  17  21
ATOM     18  F   UNL     1      30.353 -24.071 -16.109  0.00  0.00    -0.163 F 
ATOM     19  F   UNL     1      31.311 -22.289 -16.918  0.00  0.00    -0.163 F 
ATOM     20  F   UNL     1      30.726 -22.355 -14.818  0.00  0.00    -0.163 F 
ATOM     21  C   UNL     1      31.251 -23.094 -15.827  0.00  0.00    +0.453 C 
ENDBRANCH  17  21
ENDBRANCH  15  17
BRANCH  15  22
ATOM     22  C   UNL     1      33.926 -23.515 -17.588  0.00  0.00    +0.054 C 
BRANCH  22  23
ATOM     23  C   UNL     1      34.158 -22.401 -18.580  0.00  0.00    -0.020 C 
ATOM     24  C   UNL     1      33.072 -21.715 -19.124  0.00  0.00    -0.004 C 
ATOM     25  C   UNL     1      35.458 -22.056 -18.949  0.00  0.00    -0.004 C 
ATOM     26  C   UNL     1      33.286 -20.685 -20.040  0.00  0.00    -0.000 C 
ATOM     27  C   UNL     1      35.671 -21.025 -19.865  0.00  0.00    -0.000 C 
ATOM     28  C   UNL     1      34.586 -20.340 -20.411  0.00  0.00    -0.000 C 
ENDBRANCH  22  23
ENDBRANCH  15  22
ENDBRANCH   2  15
TORSDOF 9
ENDMDL
MODEL 4
REMARK VINA RESULT:      -8.9      7.136     11.309
REMARK  Name = 3082654
REMARK  9 active torsions:
REMARK  status: ('A' for Active; 'I' for Inactive)
REMARK    1  A    between atoms: N_2  and  C_15
REMARK    2  A    between atoms: C_3  and  C_5
REMARK    3  A    between atoms: C_5  and  N_7
REMARK    4  A    between atoms: C_5  and  C_11
REMARK    5  A    between atoms: C_11  and  C_12
REMARK    6  A    between atoms: C_15  and  C_17
REMARK    7  A    between atoms: C_15  and  C_22
REMARK    8  A    between atoms: C_17  and  C_21
REMARK    9  A    between atoms: C_22  and  C_23
REMARK                            x       y       z     vdW  Elec       q    Type
REMARK                         _______ _______ _______ _____ _____    ______ ____
ROOT
ATOM      1  O   UNL     1      34.822 -15.353 -20.376  0.00  0.00    -0.273 OA
ATOM      2  N   UNL     1      33.848 -16.760 -21.944  0.00  0.00    -0.298 N 
ATOM      3  C   UNL     1      34.061 -15.538 -21.323  0.00  0.00    +0.241 C 
ATOM      4  H   UNL     1      33.215 -16.798 -22.697  0.00  0.00    +0.150 HD
ENDROOT
BRANCH   3   5
ATOM      5  C   UNL     1      33.190 -14.435 -21.915  0.00  0.00    +0.149 C 
BRANCH   5   7
ATOM      6  O   UNL     1      31.420 -12.137 -22.034  0.00  0.00    -0.275 OA
ATOM      7  N   UNL     1      32.824 -13.557 -20.835  0.00  0.00    -0.298 N 
ATOM      8  C   UNL     1      31.966 -12.477 -20.987  0.00  0.00    +0.223 C 
ATOM      9  C   UNL     1      31.733 -11.742 -19.693  0.00  0.00    +0.095 C 
ATOM     10  H   UNL     1      33.201 -13.731 -19.942  0.00  0.00    +0.150 HD
ENDBRANCH   5   7
BRANCH   5  11
ATOM     11  C   UNL     1      33.948 -13.700 -23.029  0.00  0.00    +0.029 C 
BRANCH  11  12
ATOM     12  C   UNL     1      33.225 -13.666 -24.390  0.00  0.00    +0.002 C 
ATOM     13  C   UNL     1      33.692 -12.505 -25.269  0.00  0.00    +0.000 C 
ATOM     14  C   UNL     1      33.448 -14.991 -25.126  0.00  0.00    +0.000 C 
ENDBRANCH  11  12
ENDBRANCH   5  11
ENDBRANCH   3   5
BRANCH   2  15
ATOM     15  C   UNL     1      34.509 -17.980 -21.541  0.00  0.00    +0.142 C 
BRANCH  15  17
ATOM     16  O   UNL     1      36.722 -18.307 -22.456  0.00  0.00    -0.286 OA
ATOM     17  C   UNL     1      35.505 -18.313 -22.642  0.00  0.00    +0.262 C 
BRANCH  17  21
ATOM     18  F   UNL     1      33.574 -18.744 -23.954  0.00  0.00    -0.163 F 
ATOM     19  F   UNL     1      35.364 -19.910 -24.385  0.00  0.00    -0.163 F 
ATOM     20  F   UNL     1      35.271 -17.804 -24.945  0.00  0.00    -0.163 F 
ATOM     21  C   UNL     1      34.929 -18.691 -23.978  0.00  0.00    +0.453 C 
ENDBRANCH  17  21
ENDBRANCH  15  17
BRANCH  15  22
ATOM     22  C   UNL     1      33.533 -19.142 -21.346  0.00  0.00    +0.054 C 
BRANCH  22  23
ATOM     23  C   UNL     1      34.082 -20.217 -20.439  0.00  0.00    -0.020 C 
ATOM     24  C   UNL     1      33.210 -21.054 -19.743  0.00  0.00    -0.004 C 
ATOM     25  C   UNL     1      35.461 -20.373 -20.299  0.00  0.00    -0.004 C 
ATOM     26  C   UNL     1      33.716 -22.046 -18.905  0.00  0.00    -0.000 C 
ATOM     27  C   UNL     1      35.967 -21.367 -19.460  0.00  0.00    -0.000 C 
ATOM     28  C   UNL     1      35.096 -22.203 -18.763  0.00  0.00    -0.000 C 
ENDBRANCH  22  23
ENDBRANCH  15  22
ENDBRANCH   2  15
TORSDOF 9
ENDMDL
MODEL 5
REMARK VINA RESULT:      -8.8     11.286     14.440
REMARK  Name = 3082654
REMARK  9 active torsions:
REMARK  status: ('A' for Active; 'I' for Inactive)
REMARK    1  A    between atoms: N_2  and  C_15
REMARK    2  A    between atoms: C_3  and  C_5
REMARK    3  A    between atoms: C_5  and  N_7
REMARK    4  A    between atoms: C_5  and  C_11
REMARK    5  A    between atoms: C_11  and  C_12
REMARK    6  A    between atoms: C_15  and  C_17
REMARK    7  A    between atoms: C_15  and  C_22
REMARK    8  A    between atoms: C_17  and  C_21
REMARK    9  A    between atoms: C_22  and  C_23
REMARK                            x       y       z     vdW  Elec       q    Type
REMARK                         _______ _______ _______ _____ _____    ______ ____
ROOT
ATOM      1  O   UNL     1      33.843 -11.326 -24.020  0.00  0.00    -0.273 OA
ATOM      2  N   UNL     1      32.414 -11.390 -22.191  0.00  0.00    -0.298 N 
ATOM      3  C   UNL     1      33.171 -11.957 -23.207  0.00  0.00    +0.241 C 
ATOM      4  H   UNL     1      31.912 -11.989 -21.592  0.00  0.00    +0.150 HD
ENDROOT
BRANCH   3   5
ATOM      5  C   UNL     1      33.035 -13.476 -23.243  0.00  0.00    +0.149 C 
BRANCH   5   7
ATOM      6  O   UNL     1      33.806 -15.997 -24.457  0.00  0.00    -0.275 OA
ATOM      7  N   UNL     1      32.903 -13.857 -24.625  0.00  0.00    -0.298 N 
ATOM      8  C   UNL     1      33.301 -15.092 -25.116  0.00  0.00    +0.223 C 
ATOM      9  C   UNL     1      33.027 -15.240 -26.590  0.00  0.00    +0.095 C 
ATOM     10  H   UNL     1      32.509 -13.210 -25.254  0.00  0.00    +0.150 HD
ENDBRANCH   5   7
BRANCH   5  11
ATOM     11  C   UNL     1      34.249 -14.134 -22.573  0.00  0.00    +0.029 C 
BRANCH  11  12
ATOM     12  C   UNL     1      33.983 -14.695 -21.161  0.00  0.00    +0.002 C 
ATOM     13  C   UNL     1      32.494 -14.917 -20.894  0.00  0.00    +0.000 C 
ATOM     14  C   UNL     1      34.742 -16.012 -20.979  0.00  0.00    +0.000 C 
ENDBRANCH  11  12
ENDBRANCH   5  11
ENDBRANCH   3   5
BRANCH   2  15
ATOM     15  C   UNL     1      32.326  -9.965 -21.969  0.00  0.00    +0.142 C 
BRANCH  15  17
ATOM     16  O   UNL     1      32.248  -8.800 -19.854  0.00  0.00    -0.286 OA
ATOM     17  C   UNL     1      31.912  -9.780 -20.517  0.00  0.00    +0.262 C 
BRANCH  17  21
ATOM     18  F   UNL     1      30.111 -11.297 -20.817  0.00  0.00    -0.163 F 
ATOM     19  F   UNL     1      30.347 -10.393 -18.849  0.00  0.00    -0.163 F 
ATOM     20  F   UNL     1      31.746 -11.925 -19.521  0.00  0.00    -0.163 F 
ATOM     21  C   UNL     1      31.031 -10.847 -19.929  0.00  0.00    +0.453 C 
ENDBRANCH  17  21
ENDBRANCH  15  17
BRANCH  15  22
ATOM     22  C   UNL     1      31.315  -9.286 -22.895  0.00  0.00    +0.054 C 
BRANCH  22  23
ATOM     23  C   UNL     1      31.880  -8.063 -23.575  0.00  0.00    -0.020 C 
ATOM     24  C   UNL     1      31.020  -7.099 -24.102  0.00  0.00    -0.004 C 
ATOM     25  C   UNL     1      33.261  -7.895 -23.675  0.00  0.00    -0.004 C 
ATOM     26  C   UNL     1      31.541  -5.969 -24.731  0.00  0.00    -0.000 C 
ATOM     27  C   UNL     1      33.782  -6.764 -24.304  0.00  0.00    -0.000 C 
ATOM     28  C   UNL     1      32.923  -5.801 -24.831  0.00  0.00    -0.000 C 
ENDBRANCH  22  23
ENDBRANCH  15  22
ENDBRANCH   2  15
TORSDOF 9
ENDMDL
MODEL 6
REMARK VINA RESULT:      -8.8      2.367      4.464
REMARK  Name = 3082654
REMARK  9 active torsions:
REMARK  status: ('A' for Active; 'I' for Inactive)
REMARK    1  A    between atoms: N_2  and  C_15
REMARK    2  A    between atoms: C_3  and  C_5
REMARK    3  A    between atoms: C_5  and  N_7
REMARK    4  A    between atoms: C_5  and  C_11
REMARK    5  A    between atoms: C_11  and  C_12
REMARK    6  A    between atoms: C_15  and  C_17
REMARK    7  A    between atoms: C_15  and  C_22
REMARK    8  A    between atoms: C_17  and  C_21
REMARK    9  A    between atoms: C_22  and  C_23
REMARK                            x       y       z     vdW  Elec       q    Type
REMARK                         _______ _______ _______ _____ _____    ______ ____
ROOT
ATOM      1  O   UNL     1      35.446 -26.044 -15.964  0.00  0.00    -0.273 OA
ATOM      2  N   UNL     1      34.865 -23.915 -15.242  0.00  0.00    -0.298 N 
ATOM      3  C   UNL     1      35.531 -25.129 -15.148  0.00  0.00    +0.241 C 
ATOM      4  H   UNL     1      35.005 -23.249 -14.532  0.00  0.00    +0.150 HD
ENDROOT
BRANCH   3   5
ATOM      5  C   UNL     1      36.355 -25.233 -13.868  0.00  0.00    +0.149 C 
BRANCH   5   7
ATOM      6  O   UNL     1      38.440 -27.109 -14.612  0.00  0.00    -0.275 OA
ATOM      7  N   UNL     1      37.719 -24.931 -14.215  0.00  0.00    -0.298 N 
ATOM      8  C   UNL     1      38.650 -25.900 -14.559  0.00  0.00    +0.223 C 
ATOM      9  C   UNL     1      39.993 -25.310 -14.901  0.00  0.00    +0.095 C 
ATOM     10  H   UNL     1      38.006 -23.989 -14.208  0.00  0.00    +0.150 HD
ENDBRANCH   5   7
BRANCH   5  11
ATOM     11  C   UNL     1      35.802 -24.276 -12.802  0.00  0.00    +0.029 C 
BRANCH  11  12
ATOM     12  C   UNL     1      36.686 -24.125 -11.547  0.00  0.00    +0.002 C 
ATOM     13  C   UNL     1      37.392 -22.770 -11.492  0.00  0.00    +0.000 C 
ATOM     14  C   UNL     1      35.832 -24.314 -10.290  0.00  0.00    +0.000 C 
ENDBRANCH  11  12
ENDBRANCH   5  11
ENDBRANCH   3   5
BRANCH   2  15
ATOM     15  C   UNL     1      33.978 -23.580 -16.333  0.00  0.00    +0.142 C 
BRANCH  15  17
ATOM     16  O   UNL     1      35.961 -22.450 -17.125  0.00  0.00    -0.286 OA
ATOM     17  C   UNL     1      34.821 -22.847 -17.364  0.00  0.00    +0.262 C 
BRANCH  17  21
ATOM     18  F   UNL     1      33.263 -21.678 -18.722  0.00  0.00    -0.163 F 
ATOM     19  F   UNL     1      33.598 -23.785 -19.162  0.00  0.00    -0.163 F 
ATOM     20  F   UNL     1      35.128 -22.311 -19.654  0.00  0.00    -0.163 F 
ATOM     21  C   UNL     1      34.204 -22.654 -18.722  0.00  0.00    +0.453 C 
ENDBRANCH  17  21
ENDBRANCH  15  17
BRANCH  15  22
ATOM     22  C   UNL     1      32.806 -22.702 -15.890  0.00  0.00    +0.054 C 
BRANCH  22  23
ATOM     23  C   UNL     1      31.560 -23.500 -15.593  0.00  0.00    -0.020 C 
ATOM     24  C   UNL     1      31.587 -24.495 -14.616  0.00  0.00    -0.004 C 
ATOM     25  C   UNL     1      30.383 -23.242 -16.294  0.00  0.00    -0.004 C 
ATOM     26  C   UNL     1      30.436 -25.234 -14.341  0.00  0.00    -0.000 C 
ATOM     27  C   UNL     1      29.232 -23.980 -16.019  0.00  0.00    -0.000 C 
ATOM     28  C   UNL     1      29.258 -24.975 -15.043  0.00  0.00    -0.000 C 
ENDBRANCH  22  23
ENDBRANCH  15  22
ENDBRANCH   2  15
TORSDOF 9
ENDMDL
MODEL 7
REMARK VINA RESULT:      -8.8      9.525     13.185
REMARK  Name = 3082654
REMARK  9 active torsions:
REMARK  status: ('A' for Active; 'I' for Inactive)
REMARK    1  A    between atoms: N_2  and  C_15
REMARK    2  A    between atoms: C_3  and  C_5
REMARK    3  A    between atoms: C_5  and  N_7
REMARK    4  A    between atoms: C_5  and  C_11
REMARK    5  A    between atoms: C_11  and  C_12
REMARK    6  A    between atoms: C_15  and  C_17
REMARK    7  A    between atoms: C_15  and  C_22
REMARK    8  A    between atoms: C_17  and  C_21
REMARK    9  A    between atoms: C_22  and  C_23
REMARK                            x       y       z     vdW  Elec       q    Type
REMARK                         _______ _______ _______ _____ _____    ______ ____
ROOT
ATOM      1  O   UNL     1      31.795 -12.939 -22.876  0.00  0.00    -0.273 OA
ATOM      2  N   UNL     1      34.083 -13.319 -22.979  0.00  0.00    -0.298 N 
ATOM      3  C   UNL     1      32.945 -12.526 -23.007  0.00  0.00    +0.241 C 
ATOM      4  H   UNL     1      34.959 -12.885 -23.094  0.00  0.00    +0.150 HD
ENDROOT
BRANCH   3   5
ATOM      5  C   UNL     1      33.274 -11.061 -23.280  0.00  0.00    +0.149 C 
BRANCH   5   7
ATOM      6  O   UNL     1      35.392  -9.221 -24.023  0.00  0.00    -0.275 OA
ATOM      7  N   UNL     1      33.991 -11.012 -24.527  0.00  0.00    -0.298 N 
ATOM      8  C   UNL     1      34.994 -10.092 -24.793  0.00  0.00    +0.223 C 
ATOM      9  C   UNL     1      35.596 -10.278 -26.161  0.00  0.00    +0.095 C 
ATOM     10  H   UNL     1      33.759 -11.666 -25.226  0.00  0.00    +0.150 HD
ENDBRANCH   5   7
BRANCH   5  11
ATOM     11  C   UNL     1      31.987 -10.226 -23.318  0.00  0.00    +0.029 C 
BRANCH  11  12
ATOM     12  C   UNL     1      31.784  -9.295 -22.105  0.00  0.00    +0.002 C 
ATOM     13  C   UNL     1      31.694 -10.066 -20.788  0.00  0.00    +0.000 C 
ATOM     14  C   UNL     1      32.931  -8.284 -22.034  0.00  0.00    +0.000 C 
ENDBRANCH  11  12
ENDBRANCH   5  11
ENDBRANCH   3   5
BRANCH   2  15
ATOM     15  C   UNL     1      34.046 -14.751 -22.789  0.00  0.00    +0.142 C 
BRANCH  15  17
ATOM     16  O   UNL     1      34.941 -14.630 -20.548  0.00  0.00    -0.286 OA
ATOM     17  C   UNL     1      34.023 -14.985 -21.286  0.00  0.00    +0.262 C 
BRANCH  17  21
ATOM     18  F   UNL     1      32.494 -15.203 -19.483  0.00  0.00    -0.163 F 
ATOM     19  F   UNL     1      32.948 -16.994 -20.639  0.00  0.00    -0.163 F 
ATOM     20  F   UNL     1      31.703 -15.425 -21.501  0.00  0.00    -0.163 F 
ATOM     21  C   UNL     1      32.794 -15.649 -20.728  0.00  0.00    +0.453 C 
ENDBRANCH  17  21
ENDBRANCH  15  17
BRANCH  15  22
ATOM     22  C   UNL     1      35.251 -15.459 -23.412  0.00  0.00    +0.054 C 
BRANCH  22  23
ATOM     23  C   UNL     1      34.970 -16.905 -23.741  0.00  0.00    -0.020 C 
ATOM     24  C   UNL     1      35.280 -17.902 -22.816  0.00  0.00    -0.004 C 
ATOM     25  C   UNL     1      34.399 -17.243 -24.968  0.00  0.00    -0.004 C 
ATOM     26  C   UNL     1      35.021 -19.239 -23.119  0.00  0.00    -0.000 C 
ATOM     27  C   UNL     1      34.139 -18.580 -25.270  0.00  0.00    -0.000 C 
ATOM     28  C   UNL     1      34.450 -19.578 -24.346  0.00  0.00    -0.000 C 
ENDBRANCH  22  23
ENDBRANCH  15  22
ENDBRANCH   2  15
TORSDOF 9
ENDMDL
MODEL 8
REMARK VINA RESULT:      -8.7     11.572     14.940
REMARK  Name = 3082654
REMARK  9 active torsions:
REMARK  status: ('A' for Active; 'I' for Inactive)
REMARK    1  A    between atoms: N_2  and  C_15
REMARK    2  A    between atoms: C_3  and  C_5
REMARK    3  A    between atoms: C_5  and  N_7
REMARK    4  A    between atoms: C_5  and  C_11
REMARK    5  A    between atoms: C_11  and  C_12
REMARK    6  A    between atoms: C_15  and  C_17
REMARK    7  A    between atoms: C_15  and  C_22
REMARK    8  A    between atoms: C_17  and  C_21
REMARK    9  A    between atoms: C_22  and  C_23
REMARK                            x       y       z     vdW  Elec       q    Type
REMARK                         _______ _______ _______ _____ _____    ______ ____
ROOT
ATOM      1  O   UNL     1      34.083 -11.036 -24.317  0.00  0.00    -0.273 OA
ATOM      2  N   UNL     1      32.554 -11.566 -22.653  0.00  0.00    -0.298 N 
ATOM      3  C   UNL     1      33.464 -11.867 -23.657  0.00  0.00    +0.241 C 
ATOM      4  H   UNL     1      32.112 -12.310 -22.184  0.00  0.00    +0.150 HD
ENDROOT
BRANCH   3   5
ATOM      5  C   UNL     1      33.575 -13.369 -23.898  0.00  0.00    +0.149 C 
BRANCH   5   7
ATOM      6  O   UNL     1      35.281 -15.600 -23.167  0.00  0.00    -0.275 OA
ATOM      7  N   UNL     1      33.685 -13.999 -22.609  0.00  0.00    -0.298 N 
ATOM      8  C   UNL     1      34.533 -15.066 -22.352  0.00  0.00    +0.223 C 
ATOM      9  C   UNL     1      34.471 -15.517 -20.916  0.00  0.00    +0.095 C 
ATOM     10  H   UNL     1      33.131 -13.655 -21.871  0.00  0.00    +0.150 HD
ENDBRANCH   5   7
BRANCH   5  11
ATOM     11  C   UNL     1      32.359 -13.871 -24.688  0.00  0.00    +0.029 C 
BRANCH  11  12
ATOM     12  C   UNL     1      32.681 -14.417 -26.094  0.00  0.00    +0.002 C 
ATOM     13  C   UNL     1      33.364 -13.375 -26.981  0.00  0.00    +0.000 C 
ATOM     14  C   UNL     1      33.572 -15.656 -25.974  0.00  0.00    +0.000 C 
ENDBRANCH  11  12
ENDBRANCH   5  11
ENDBRANCH   3   5
BRANCH   2  15
ATOM     15  C   UNL     1      32.224 -10.215 -22.261  0.00  0.00    +0.142 C 
BRANCH  15  17
ATOM     16  O   UNL     1      30.712 -11.123 -20.610  0.00  0.00    -0.286 OA
ATOM     17  C   UNL     1      31.594 -10.309 -20.879  0.00  0.00    +0.262 C 
BRANCH  17  21
ATOM     18  F   UNL     1      31.145  -8.644 -19.248  0.00  0.00    -0.163 F 
ATOM     19  F   UNL     1      33.015  -8.489 -20.355  0.00  0.00    -0.163 F 
ATOM     20  F   UNL     1      32.770 -10.037 -18.839  0.00  0.00    -0.163 F 
ATOM     21  C   UNL     1      32.129  -9.372 -19.832  0.00  0.00    +0.453 C 
ENDBRANCH  17  21
ENDBRANCH  15  17
BRANCH  15  22
ATOM     22  C   UNL     1      31.257  -9.539 -23.235  0.00  0.00    +0.054 C 
BRANCH  22  23
ATOM     23  C   UNL     1      31.750  -8.192 -23.704  0.00  0.00    -0.020 C 
ATOM     24  C   UNL     1      30.837  -7.216 -24.103  0.00  0.00    -0.004 C 
ATOM     25  C   UNL     1      33.118  -7.923 -23.736  0.00  0.00    -0.004 C 
ATOM     26  C   UNL     1      31.292  -5.971 -24.536  0.00  0.00    -0.000 C 
ATOM     27  C   UNL     1      33.573  -6.678 -24.169  0.00  0.00    -0.000 C 
ATOM     28  C   UNL     1      32.661  -5.702 -24.569  0.00  0.00    -0.000 C 
ENDBRANCH  22  23
ENDBRANCH  15  22
ENDBRANCH   2  15
TORSDOF 9
ENDMDL
MODEL 9
REMARK VINA RESULT:      -8.7     11.479     14.975
REMARK  Name = 3082654
REMARK  9 active torsions:
REMARK  status: ('A' for Active; 'I' for Inactive)
REMARK    1  A    between atoms: N_2  and  C_15
REMARK    2  A    between atoms: C_3  and  C_5
REMARK    3  A    between atoms: C_5  and  N_7
REMARK    4  A    between atoms: C_5  and  C_11
REMARK    5  A    between atoms: C_11  and  C_12
REMARK    6  A    between atoms: C_15  and  C_17
REMARK    7  A    between atoms: C_15  and  C_22
REMARK    8  A    between atoms: C_17  and  C_21
REMARK    9  A    between atoms: C_22  and  C_23
REMARK                            x       y       z     vdW  Elec       q    Type
REMARK                         _______ _______ _______ _____ _____    ______ ____
ROOT
ATOM      1  O   UNL     1      34.097 -10.947 -24.083  0.00  0.00    -0.273 OA
ATOM      2  N   UNL     1      32.533 -11.251 -22.394  0.00  0.00    -0.298 N 
ATOM      3  C   UNL     1      33.404 -11.683 -23.385  0.00  0.00    +0.241 C 
ATOM      4  H   UNL     1      32.024 -11.927 -21.892  0.00  0.00    +0.150 HD
ENDROOT
BRANCH   3   5
ATOM      5  C   UNL     1      33.368 -13.198 -23.559  0.00  0.00    +0.149 C 
BRANCH   5   7
ATOM      6  O   UNL     1      33.815 -15.850 -22.466  0.00  0.00    -0.275 OA
ATOM      7  N   UNL     1      32.813 -13.750 -22.351  0.00  0.00    -0.298 N 
ATOM      8  C   UNL     1      33.085 -15.036 -21.905  0.00  0.00    +0.223 C 
ATOM      9  C   UNL     1      32.396 -15.350 -20.603  0.00  0.00    +0.095 C 
ATOM     10  H   UNL     1      32.210 -13.188 -21.813  0.00  0.00    +0.150 HD
ENDBRANCH   5   7
BRANCH   5  11
ATOM     11  C   UNL     1      32.545 -13.571 -24.799  0.00  0.00    +0.029 C 
BRANCH  11  12
ATOM     12  C   UNL     1      33.366 -14.146 -25.972  0.00  0.00    +0.002 C 
ATOM     13  C   UNL     1      32.938 -15.566 -26.341  0.00  0.00    +0.000 C 
ATOM     14  C   UNL     1      33.231 -13.232 -27.193  0.00  0.00    +0.000 C 
ENDBRANCH  11  12
ENDBRANCH   5  11
ENDBRANCH   3   5
BRANCH   2  15
ATOM     15  C   UNL     1      32.338  -9.858 -22.063  0.00  0.00    +0.142 C 
BRANCH  15  17
ATOM     16  O   UNL     1      32.326  -8.912 -19.840  0.00  0.00    -0.286 OA
ATOM     17  C   UNL     1      31.957  -9.814 -20.592  0.00  0.00    +0.262 C 
BRANCH  17  21
ATOM     18  F   UNL     1      30.369 -10.556 -18.991  0.00  0.00    -0.163 F 
ATOM     19  F   UNL     1      31.781 -12.025 -19.762  0.00  0.00    -0.163 F 
ATOM     20  F   UNL     1      30.161 -11.299 -21.029  0.00  0.00    -0.163 F 
ATOM     21  C   UNL     1      31.068 -10.920 -20.095  0.00  0.00    +0.453 C 
ENDBRANCH  17  21
ENDBRANCH  15  17
BRANCH  15  22
ATOM     22  C   UNL     1      31.246  -9.199 -22.909  0.00  0.00    +0.054 C 
BRANCH  22  23
ATOM     23  C   UNL     1      31.715  -7.929 -23.577  0.00  0.00    -0.020 C 
ATOM     24  C   UNL     1      33.080  -7.688 -23.736  0.00  0.00    -0.004 C 
ATOM     25  C   UNL     1      30.783  -6.998 -24.036  0.00  0.00    -0.004 C 
ATOM     26  C   UNL     1      33.513  -6.514 -24.352  0.00  0.00    -0.000 C 
ATOM     27  C   UNL     1      31.217  -5.825 -24.653  0.00  0.00    -0.000 C 
ATOM     28  C   UNL     1      32.581  -5.583 -24.811  0.00  0.00    -0.000 C 
ENDBRANCH  22  23
ENDBRANCH  15  22
ENDBRANCH   2  15
TORSDOF 9
ENDMDL
