MODEL 1
REMARK VINA RESULT:     -11.7      0.000      0.000
REMARK  Name = 53338808
REMARK  2 active torsions:
REMARK  status: ('A' for Active; 'I' for Inactive)
REMARK    1  A    between atoms: C_3  and  C_15
REMARK    2  A    between atoms: C_5  and  C_23
REMARK                            x       y       z     vdW  Elec       q    Type
REMARK                         _______ _______ _______ _____ _____    ______ ____
ROOT
ATOM      1  N   UNL     1      31.791 -23.486 -15.581  0.00  0.00    -0.228 N 
ATOM      2  N   UNL     1      32.401 -22.795 -16.581  0.00  0.00    -0.165 NA
ATOM      3  C   UNL     1      33.937 -24.076 -15.476  0.00  0.00    +0.056 A 
ATOM      4  C   UNL     1      32.712 -24.279 -14.890  0.00  0.00    +0.086 A 
ATOM      5  C   UNL     1      33.682 -23.158 -16.507  0.00  0.00    +0.104 A 
ATOM      6  C   UNL     1      32.238 -25.071 -13.807  0.00  0.00    +0.019 C 
ATOM      7  C   UNL     1      30.435 -23.460 -15.234  0.00  0.00    +0.100 C 
ATOM      8  C   UNL     1      30.933 -25.039 -13.481  0.00  0.00    +0.003 C 
ATOM      9  C   UNL     1      29.991 -24.209 -14.212  0.00  0.00    +0.021 C 
ENDROOT
BRANCH   3  15
ATOM     10  N   UNL     1      35.525 -25.792 -15.792  0.00  0.00    -0.146 NA
ATOM     11  N   UNL     1      38.501 -26.501 -13.952  0.00  0.00    -0.257 N 
ATOM     12  N   UNL     1      36.633 -26.455 -15.495  0.00  0.00    -0.129 NA
ATOM     13  N   UNL     1      38.969 -25.819 -12.889  0.00  0.00    -0.157 NA
ATOM     14  N   UNL     1      38.104 -23.892 -11.755  0.00  0.00    -0.341 N 
ATOM     15  C   UNL     1      35.152 -24.711 -15.057  0.00  0.00    +0.106 C 
ATOM     16  C   UNL     1      35.854 -24.208 -13.970  0.00  0.00    +0.027 C 
ATOM     17  C   UNL     1      37.018 -24.907 -13.661  0.00  0.00    +0.071 A 
ATOM     18  C   UNL     1      37.339 -25.996 -14.450  0.00  0.00    +0.180 A 
ATOM     19  C   UNL     1      38.062 -24.851 -12.717  0.00  0.00    +0.148 A 
ATOM     20  H   UNL     1      38.955 -27.287 -14.331  0.00  0.00    +0.191 HD
ATOM     21  H   UNL     1      38.846 -23.877 -11.108  0.00  0.00    +0.144 HD
ATOM     22  H   UNL     1      37.393 -23.214 -11.703  0.00  0.00    +0.144 HD
ENDBRANCH   3  15
BRANCH   5  23
ATOM     23  C   UNL     1      34.638 -22.606 -17.435  0.00  0.00    +0.019 C 
ATOM     24  C   UNL     1      34.288 -22.432 -18.773  0.00  0.00    +0.002 C 
ATOM     25  C   UNL     1      35.911 -22.247 -16.994  0.00  0.00    +0.002 C 
ATOM     26  C   UNL     1      35.211 -21.898 -19.672  0.00  0.00    +0.000 C 
ATOM     27  C   UNL     1      36.835 -21.712 -17.893  0.00  0.00    +0.000 C 
ATOM     28  C   UNL     1      36.485 -21.538 -19.231  0.00  0.00    +0.000 C 
ENDBRANCH   5  23
TORSDOF 2
ENDMDL
MODEL 2
REMARK VINA RESULT:     -11.1      0.979      1.638
REMARK  Name = 53338808
REMARK  2 active torsions:
REMARK  status: ('A' for Active; 'I' for Inactive)
REMARK    1  A    between atoms: C_3  and  C_15
REMARK    2  A    between atoms: C_5  and  C_23
REMARK                            x       y       z     vdW  Elec       q    Type
REMARK                         _______ _______ _______ _____ _____    ______ ____
ROOT
ATOM      1  N   UNL     1      31.642 -23.744 -15.901  0.00  0.00    -0.228 N 
ATOM      2  N   UNL     1      32.294 -23.133 -16.928  0.00  0.00    -0.165 NA
ATOM      3  C   UNL     1      33.798 -23.804 -15.345  0.00  0.00    +0.056 A 
ATOM      4  C   UNL     1      32.544 -24.165 -14.919  0.00  0.00    +0.086 A 
ATOM      5  C   UNL     1      33.581 -23.177 -16.581  0.00  0.00    +0.104 A 
ATOM      6  C   UNL     1      32.026 -24.826 -13.771  0.00  0.00    +0.019 C 
ATOM      7  C   UNL     1      30.264 -23.960 -15.778  0.00  0.00    +0.100 C 
ATOM      8  C   UNL     1      30.700 -25.028 -13.661  0.00  0.00    +0.003 C 
ATOM      9  C   UNL     1      29.779 -24.585 -14.693  0.00  0.00    +0.021 C 
ENDROOT
BRANCH   3  15
ATOM     10  N   UNL     1      35.317 -23.135 -13.668  0.00  0.00    -0.146 NA
ATOM     11  N   UNL     1      38.324 -24.712 -12.563  0.00  0.00    -0.257 N 
ATOM     12  N   UNL     1      36.410 -23.271 -12.932  0.00  0.00    -0.129 NA
ATOM     13  N   UNL     1      38.849 -25.857 -13.037  0.00  0.00    -0.157 NA
ATOM     14  N   UNL     1      38.086 -27.342 -14.757  0.00  0.00    -0.341 N 
ATOM     15  C   UNL     1      35.006 -24.059 -14.615  0.00  0.00    +0.106 C 
ATOM     16  C   UNL     1      35.760 -25.189 -14.901  0.00  0.00    +0.027 C 
ATOM     17  C   UNL     1      36.908 -25.328 -14.125  0.00  0.00    +0.071 A 
ATOM     18  C   UNL     1      37.164 -24.353 -13.180  0.00  0.00    +0.180 A 
ATOM     19  C   UNL     1      37.984 -26.227 -13.987  0.00  0.00    +0.148 A 
ATOM     20  H   UNL     1      38.737 -24.186 -11.842  0.00  0.00    +0.191 HD
ATOM     21  H   UNL     1      38.850 -27.953 -14.639  0.00  0.00    +0.144 HD
ATOM     22  H   UNL     1      37.399 -27.539 -15.433  0.00  0.00    +0.144 HD
ENDBRANCH   3  15
BRANCH   5  23
ATOM     23  C   UNL     1      34.577 -22.608 -17.453  0.00  0.00    +0.019 C 
ATOM     24  C   UNL     1      34.286 -22.402 -18.801  0.00  0.00    +0.002 C 
ATOM     25  C   UNL     1      35.831 -22.263 -16.950  0.00  0.00    +0.002 C 
ATOM     26  C   UNL     1      35.250 -21.851 -19.647  0.00  0.00    +0.000 C 
ATOM     27  C   UNL     1      36.795 -21.712 -17.795  0.00  0.00    +0.000 C 
ATOM     28  C   UNL     1      36.503 -21.506 -19.143  0.00  0.00    +0.000 C 
ENDBRANCH   5  23
TORSDOF 2
ENDMDL
MODEL 3
REMARK VINA RESULT:     -10.8      1.181      4.634
REMARK  Name = 53338808
REMARK  2 active torsions:
REMARK  status: ('A' for Active; 'I' for Inactive)
REMARK    1  A    between atoms: C_3  and  C_15
REMARK    2  A    between atoms: C_5  and  C_23
REMARK                            x       y       z     vdW  Elec       q    Type
REMARK                         _______ _______ _______ _____ _____    ______ ____
ROOT
ATOM      1  N   UNL     1      33.372 -22.109 -18.239  0.00  0.00    -0.228 N 
ATOM      2  N   UNL     1      32.248 -22.475 -17.564  0.00  0.00    -0.165 NA
ATOM      3  C   UNL     1      34.093 -23.303 -16.502  0.00  0.00    +0.056 A 
ATOM      4  C   UNL     1      34.516 -22.605 -17.605  0.00  0.00    +0.086 A 
ATOM      5  C   UNL     1      32.695 -23.188 -16.529  0.00  0.00    +0.104 A 
ATOM      6  C   UNL     1      35.783 -22.312 -18.182  0.00  0.00    +0.019 C 
ATOM      7  C   UNL     1      33.450 -21.342 -19.407  0.00  0.00    +0.100 C 
ATOM      8  C   UNL     1      35.848 -21.575 -19.306  0.00  0.00    +0.003 C 
ATOM      9  C   UNL     1      34.648 -21.068 -19.948  0.00  0.00    +0.021 C 
ENDROOT
BRANCH   3  15
ATOM     10  N   UNL     1      35.301 -25.244 -15.917  0.00  0.00    -0.146 NA
ATOM     11  N   UNL     1      37.382 -25.857 -13.081  0.00  0.00    -0.257 N 
ATOM     12  N   UNL     1      36.105 -25.954 -15.139  0.00  0.00    -0.129 NA
ATOM     13  N   UNL     1      37.651 -24.996 -12.082  0.00  0.00    -0.157 NA
ATOM     14  N   UNL     1      36.920 -22.743 -11.712  0.00  0.00    -0.341 N 
ATOM     15  C   UNL     1      34.967 -23.970 -15.580  0.00  0.00    +0.106 C 
ATOM     16  C   UNL     1      35.409 -23.306 -14.444  0.00  0.00    +0.027 C 
ATOM     17  C   UNL     1      36.253 -24.055 -13.629  0.00  0.00    +0.071 A 
ATOM     18  C   UNL     1      36.553 -25.343 -14.031  0.00  0.00    +0.180 A 
ATOM     19  C   UNL     1      36.961 -23.901 -12.421  0.00  0.00    +0.148 A 
ATOM     20  H   UNL     1      37.750 -26.769 -13.121  0.00  0.00    +0.191 HD
ATOM     21  H   UNL     1      37.425 -22.664 -10.869  0.00  0.00    +0.144 HD
ATOM     22  H   UNL     1      36.386 -21.984 -12.038  0.00  0.00    +0.144 HD
ENDBRANCH   3  15
BRANCH   5  23
ATOM     23  C   UNL     1      31.759 -23.746 -15.586  0.00  0.00    +0.019 C 
ATOM     24  C   UNL     1      31.742 -23.289 -14.268  0.00  0.00    +0.002 C 
ATOM     25  C   UNL     1      30.869 -24.741 -15.991  0.00  0.00    +0.002 C 
ATOM     26  C   UNL     1      30.835 -23.828 -13.355  0.00  0.00    +0.000 C 
ATOM     27  C   UNL     1      29.962 -25.279 -15.078  0.00  0.00    +0.000 C 
ATOM     28  C   UNL     1      29.946 -24.823 -13.760  0.00  0.00    +0.000 C 
ENDBRANCH   5  23
TORSDOF 2
ENDMDL
MODEL 4
REMARK VINA RESULT:     -10.5      2.330      6.329
REMARK  Name = 53338808
REMARK  2 active torsions:
REMARK  status: ('A' for Active; 'I' for Inactive)
REMARK    1  A    between atoms: C_3  and  C_15
REMARK    2  A    between atoms: C_5  and  C_23
REMARK                            x       y       z     vdW  Elec       q    Type
REMARK                         _______ _______ _______ _____ _____    ______ ____
ROOT
ATOM      1  N   UNL     1      35.708 -22.337 -17.617  0.00  0.00    -0.228 N 
ATOM      2  N   UNL     1      36.481 -22.775 -16.586  0.00  0.00    -0.165 NA
ATOM      3  C   UNL     1      34.297 -23.324 -16.204  0.00  0.00    +0.056 A 
ATOM      4  C   UNL     1      34.365 -22.662 -17.405  0.00  0.00    +0.086 A 
ATOM      5  C   UNL     1      35.624 -23.362 -15.750  0.00  0.00    +0.104 A 
ATOM      6  C   UNL     1      33.416 -22.275 -18.392  0.00  0.00    +0.019 C 
ATOM      7  C   UNL     1      36.128 -21.651 -18.763  0.00  0.00    +0.100 C 
ATOM      8  C   UNL     1      33.830 -21.616 -19.490  0.00  0.00    +0.003 C 
ATOM      9  C   UNL     1      35.231 -21.288 -19.692  0.00  0.00    +0.021 C 
ENDROOT
BRANCH   3  15
ATOM     10  N   UNL     1      33.246 -24.550 -14.484  0.00  0.00    -0.146 NA
ATOM     11  N   UNL     1      29.780 -25.240 -13.975  0.00  0.00    -0.257 N 
ATOM     12  N   UNL     1      32.195 -25.063 -13.861  0.00  0.00    -0.129 NA
ATOM     13  N   UNL     1      28.760 -24.841 -14.757  0.00  0.00    -0.157 NA
ATOM     14  N   UNL     1      28.739 -23.537 -16.768  0.00  0.00    -0.341 N 
ATOM     15  C   UNL     1      33.086 -23.828 -15.624  0.00  0.00    +0.106 C 
ATOM     16  C   UNL     1      31.866 -23.562 -16.232  0.00  0.00    +0.027 C 
ATOM     17  C   UNL     1      30.764 -24.103 -15.575  0.00  0.00    +0.071 A 
ATOM     18  C   UNL     1      30.998 -24.825 -14.420  0.00  0.00    +0.180 A 
ATOM     19  C   UNL     1      29.365 -24.149 -15.729  0.00  0.00    +0.148 A 
ATOM     20  H   UNL     1      29.658 -25.780 -13.161  0.00  0.00    +0.191 HD
ATOM     21  H   UNL     1      27.759 -23.587 -16.851  0.00  0.00    +0.144 HD
ATOM     22  H   UNL     1      29.265 -23.045 -17.439  0.00  0.00    +0.144 HD
ENDBRANCH   3  15
BRANCH   5  23
ATOM     23  C   UNL     1      36.107 -23.950 -14.526  0.00  0.00    +0.019 C 
ATOM     24  C   UNL     1      36.593 -25.257 -14.525  0.00  0.00    +0.002 C 
ATOM     25  C   UNL     1      36.088 -23.212 -13.343  0.00  0.00    +0.002 C 
ATOM     26  C   UNL     1      37.061 -25.826 -13.341  0.00  0.00    +0.000 C 
ATOM     27  C   UNL     1      36.557 -23.781 -12.158  0.00  0.00    +0.000 C 
ATOM     28  C   UNL     1      37.043 -25.088 -12.158  0.00  0.00    +0.000 C 
ENDBRANCH   5  23
TORSDOF 2
ENDMDL
MODEL 5
REMARK VINA RESULT:     -10.3      2.446      4.867
REMARK  Name = 53338808
REMARK  2 active torsions:
REMARK  status: ('A' for Active; 'I' for Inactive)
REMARK    1  A    between atoms: C_3  and  C_15
REMARK    2  A    between atoms: C_5  and  C_23
REMARK                            x       y       z     vdW  Elec       q    Type
REMARK                         _______ _______ _______ _____ _____    ______ ____
ROOT
ATOM      1  N   UNL     1      31.890 -24.402 -14.124  0.00  0.00    -0.228 N 
ATOM      2  N   UNL     1      33.087 -24.721 -13.559  0.00  0.00    -0.165 NA
ATOM      3  C   UNL     1      33.427 -23.784 -15.614  0.00  0.00    +0.056 A 
ATOM      4  C   UNL     1      32.074 -23.826 -15.384  0.00  0.00    +0.086 A 
ATOM      5  C   UNL     1      33.995 -24.346 -14.461  0.00  0.00    +0.104 A 
ATOM      6  C   UNL     1      30.919 -23.431 -16.117  0.00  0.00    +0.019 C 
ATOM      7  C   UNL     1      30.615 -24.592 -13.579  0.00  0.00    +0.100 C 
ATOM      8  C   UNL     1      29.698 -23.619 -15.585  0.00  0.00    +0.003 C 
ATOM      9  C   UNL     1      29.529 -24.218 -14.272  0.00  0.00    +0.021 C 
ENDROOT
BRANCH   3  15
ATOM     10  N   UNL     1      33.467 -23.672 -17.970  0.00  0.00    -0.146 NA
ATOM     11  N   UNL     1      35.651 -21.842 -20.122  0.00  0.00    -0.257 N 
ATOM     12  N   UNL     1      33.943 -23.249 -19.132  0.00  0.00    -0.129 NA
ATOM     13  N   UNL     1      36.665 -21.042 -19.743  0.00  0.00    -0.157 NA
ATOM     14  N   UNL     1      37.478 -20.463 -17.564  0.00  0.00    -0.341 N 
ATOM     15  C   UNL     1      34.031 -23.260 -16.805  0.00  0.00    +0.106 C 
ATOM     16  C   UNL     1      35.113 -22.396 -16.706  0.00  0.00    +0.027 C 
ATOM     17  C   UNL     1      35.610 -21.953 -17.929  0.00  0.00    +0.071 A 
ATOM     18  C   UNL     1      34.989 -22.410 -19.076  0.00  0.00    +0.180 A 
ATOM     19  C   UNL     1      36.636 -21.114 -18.408  0.00  0.00    +0.148 A 
ATOM     20  H   UNL     1      35.411 -22.001 -21.063  0.00  0.00    +0.191 HD
ATOM     21  H   UNL     1      38.186 -19.882 -17.927  0.00  0.00    +0.144 HD
ATOM     22  H   UNL     1      37.382 -20.572 -16.590  0.00  0.00    +0.144 HD
ENDBRANCH   3  15
BRANCH   5  23
ATOM     23  C   UNL     1      35.397 -24.540 -14.189  0.00  0.00    +0.019 C 
ATOM     24  C   UNL     1      36.103 -25.541 -14.854  0.00  0.00    +0.002 C 
ATOM     25  C   UNL     1      36.047 -23.726 -13.261  0.00  0.00    +0.002 C 
ATOM     26  C   UNL     1      37.460 -25.729 -14.592  0.00  0.00    +0.000 C 
ATOM     27  C   UNL     1      37.404 -23.914 -12.999  0.00  0.00    +0.000 C 
ATOM     28  C   UNL     1      38.110 -24.916 -13.665  0.00  0.00    +0.000 C 
ENDBRANCH   5  23
TORSDOF 2
ENDMDL
MODEL 6
REMARK VINA RESULT:     -10.2      2.245      5.938
REMARK  Name = 53338808
REMARK  2 active torsions:
REMARK  status: ('A' for Active; 'I' for Inactive)
REMARK    1  A    between atoms: C_3  and  C_15
REMARK    2  A    between atoms: C_5  and  C_23
REMARK                            x       y       z     vdW  Elec       q    Type
REMARK                         _______ _______ _______ _____ _____    ______ ____
ROOT
ATOM      1  N   UNL     1      35.145 -24.318 -12.745  0.00  0.00    -0.228 N 
ATOM      2  N   UNL     1      33.785 -24.366 -12.737  0.00  0.00    -0.165 NA
ATOM      3  C   UNL     1      34.525 -23.747 -14.808  0.00  0.00    +0.056 A 
ATOM      4  C   UNL     1      35.621 -23.942 -14.005  0.00  0.00    +0.086 A 
ATOM      5  C   UNL     1      33.429 -24.023 -13.976  0.00  0.00    +0.104 A 
ATOM      6  C   UNL     1      37.029 -23.843 -14.188  0.00  0.00    +0.019 C 
ATOM      7  C   UNL     1      36.012 -24.596 -11.682  0.00  0.00    +0.100 C 
ATOM      8  C   UNL     1      37.855 -24.111 -13.160  0.00  0.00    +0.003 C 
ATOM      9  C   UNL     1      37.339 -24.502 -11.859  0.00  0.00    +0.021 C 
ENDROOT
BRANCH   3  15
ATOM     10  N   UNL     1      33.698 -23.967 -17.006  0.00  0.00    -0.146 NA
ATOM     11  N   UNL     1      34.711 -22.294 -19.993  0.00  0.00    -0.257 N 
ATOM     12  N   UNL     1      33.666 -23.675 -18.298  0.00  0.00    -0.129 NA
ATOM     13  N   UNL     1      35.685 -21.371 -20.105  0.00  0.00    -0.157 NA
ATOM     14  N   UNL     1      37.151 -20.428 -18.459  0.00  0.00    -0.341 N 
ATOM     15  C   UNL     1      34.589 -23.351 -16.185  0.00  0.00    +0.106 C 
ATOM     16  C   UNL     1      35.516 -22.399 -16.587  0.00  0.00    +0.027 C 
ATOM     17  C   UNL     1      35.479 -22.097 -17.945  0.00  0.00    +0.071 A 
ATOM     18  C   UNL     1      34.548 -22.758 -18.724  0.00  0.00    +0.180 A 
ATOM     19  C   UNL     1      36.149 -21.255 -18.856  0.00  0.00    +0.148 A 
ATOM     20  H   UNL     1      34.170 -22.602 -20.755  0.00  0.00    +0.191 HD
ATOM     21  H   UNL     1      37.602 -19.850 -19.118  0.00  0.00    +0.144 HD
ATOM     22  H   UNL     1      37.427 -20.405 -17.515  0.00  0.00    +0.144 HD
ENDBRANCH   3  15
BRANCH   5  23
ATOM     23  C   UNL     1      32.033 -23.966 -14.330  0.00  0.00    +0.019 C 
ATOM     24  C   UNL     1      31.274 -25.136 -14.357  0.00  0.00    +0.002 C 
ATOM     25  C   UNL     1      31.442 -22.744 -14.646  0.00  0.00    +0.002 C 
ATOM     26  C   UNL     1      29.923 -25.082 -14.699  0.00  0.00    +0.000 C 
ATOM     27  C   UNL     1      30.091 -22.690 -14.988  0.00  0.00    +0.000 C 
ATOM     28  C   UNL     1      29.332 -23.859 -15.014  0.00  0.00    +0.000 C 
ENDBRANCH   5  23
TORSDOF 2
ENDMDL
MODEL 7
REMARK VINA RESULT:      -9.6      2.547      6.320
REMARK  Name = 53338808
REMARK  2 active torsions:
REMARK  status: ('A' for Active; 'I' for Inactive)
REMARK    1  A    between atoms: C_3  and  C_15
REMARK    2  A    between atoms: C_5  and  C_23
REMARK                            x       y       z     vdW  Elec       q    Type
REMARK                         _______ _______ _______ _____ _____    ______ ____
ROOT
ATOM      1  N   UNL     1      35.907 -21.927 -18.325  0.00  0.00    -0.228 N 
ATOM      2  N   UNL     1      36.490 -22.508 -17.241  0.00  0.00    -0.165 NA
ATOM      3  C   UNL     1      34.219 -22.719 -17.105  0.00  0.00    +0.056 A 
ATOM      4  C   UNL     1      34.515 -22.044 -18.263  0.00  0.00    +0.086 A 
ATOM      5  C   UNL     1      35.469 -22.977 -16.522  0.00  0.00    +0.104 A 
ATOM      6  C   UNL     1      33.746 -21.488 -19.324  0.00  0.00    +0.019 C 
ATOM      7  C   UNL     1      36.546 -21.286 -19.392  0.00  0.00    +0.100 C 
ATOM      8  C   UNL     1      34.370 -20.872 -20.345  0.00  0.00    +0.003 C 
ATOM      9  C   UNL     1      35.818 -20.763 -20.391  0.00  0.00    +0.021 C 
ENDROOT
BRANCH   3  15
ATOM     10  N   UNL     1      31.891 -22.549 -17.449  0.00  0.00    -0.146 NA
ATOM     11  N   UNL     1      29.204 -23.910 -15.532  0.00  0.00    -0.257 N 
ATOM     12  N   UNL     1      30.624 -22.788 -17.144  0.00  0.00    -0.129 NA
ATOM     13  N   UNL     1      29.312 -24.656 -14.416  0.00  0.00    -0.157 NA
ATOM     14  N   UNL     1      31.243 -25.412 -13.214  0.00  0.00    -0.341 N 
ATOM     15  C   UNL     1      32.890 -23.043 -16.672  0.00  0.00    +0.106 C 
ATOM     16  C   UNL     1      32.705 -23.813 -15.532  0.00  0.00    +0.027 C 
ATOM     17  C   UNL     1      31.372 -24.062 -15.215  0.00  0.00    +0.071 A 
ATOM     18  C   UNL     1      30.406 -23.531 -16.048  0.00  0.00    +0.180 A 
ATOM     19  C   UNL     1      30.634 -24.744 -14.228  0.00  0.00    +0.148 A 
ATOM     20  H   UNL     1      28.341 -23.664 -15.935  0.00  0.00    +0.191 HD
ATOM     21  H   UNL     1      30.701 -25.881 -12.537  0.00  0.00    +0.144 HD
ATOM     22  H   UNL     1      32.225 -25.428 -13.154  0.00  0.00    +0.144 HD
ENDBRANCH   3  15
BRANCH   5  23
ATOM     23  C   UNL     1      35.723 -23.665 -15.281  0.00  0.00    +0.019 C 
ATOM     24  C   UNL     1      36.048 -25.021 -15.291  0.00  0.00    +0.002 C 
ATOM     25  C   UNL     1      35.646 -22.975 -14.072  0.00  0.00    +0.002 C 
ATOM     26  C   UNL     1      36.296 -25.688 -14.091  0.00  0.00    +0.000 C 
ATOM     27  C   UNL     1      35.894 -23.642 -12.871  0.00  0.00    +0.000 C 
ATOM     28  C   UNL     1      36.218 -24.998 -12.881  0.00  0.00    +0.000 C 
ENDBRANCH   5  23
TORSDOF 2
ENDMDL
MODEL 8
REMARK VINA RESULT:      -9.3      2.041      5.624
REMARK  Name = 53338808
REMARK  2 active torsions:
REMARK  status: ('A' for Active; 'I' for Inactive)
REMARK    1  A    between atoms: C_3  and  C_15
REMARK    2  A    between atoms: C_5  and  C_23
REMARK                            x       y       z     vdW  Elec       q    Type
REMARK                         _______ _______ _______ _____ _____    ______ ____
ROOT
ATOM      1  N   UNL     1      36.528 -23.276 -13.699  0.00  0.00    -0.228 N 
ATOM      2  N   UNL     1      36.576 -22.891 -15.003  0.00  0.00    -0.165 NA
ATOM      3  C   UNL     1      34.476 -23.630 -14.491  0.00  0.00    +0.056 A 
ATOM      4  C   UNL     1      35.250 -23.732 -13.362  0.00  0.00    +0.086 A 
ATOM      5  C   UNL     1      35.343 -23.108 -15.463  0.00  0.00    +0.104 A 
ATOM      6  C   UNL     1      35.025 -24.175 -12.028  0.00  0.00    +0.019 C 
ATOM      7  C   UNL     1      37.570 -23.245 -12.764  0.00  0.00    +0.100 C 
ATOM      8  C   UNL     1      36.033 -24.143 -11.138  0.00  0.00    +0.003 C 
ATOM      9  C   UNL     1      37.353 -23.664 -11.507  0.00  0.00    +0.021 C 
ENDROOT
BRANCH   3  15
ATOM     10  N   UNL     1      32.743 -25.081 -13.815  0.00  0.00    -0.146 NA
ATOM     11  N   UNL     1      29.286 -25.065 -14.711  0.00  0.00    -0.257 N 
ATOM     12  N   UNL     1      31.489 -25.510 -13.803  0.00  0.00    -0.129 NA
ATOM     13  N   UNL     1      28.677 -24.196 -15.540  0.00  0.00    -0.157 NA
ATOM     14  N   UNL     1      29.539 -22.325 -16.765  0.00  0.00    -0.341 N 
ATOM     15  C   UNL     1      33.092 -24.000 -14.562  0.00  0.00    +0.106 C 
ATOM     16  C   UNL     1      32.221 -23.265 -15.354  0.00  0.00    +0.027 C 
ATOM     17  C   UNL     1      30.905 -23.720 -15.340  0.00  0.00    +0.071 A 
ATOM     18  C   UNL     1      30.618 -24.822 -14.558  0.00  0.00    +0.180 A 
ATOM     19  C   UNL     1      29.667 -23.381 -15.919  0.00  0.00    +0.148 A 
ATOM     20  H   UNL     1      28.816 -25.802 -14.260  0.00  0.00    +0.191 HD
ATOM     21  H   UNL     1      28.661 -22.111 -17.156  0.00  0.00    +0.144 HD
ATOM     22  H   UNL     1      30.324 -21.774 -16.988  0.00  0.00    +0.144 HD
ENDBRANCH   3  15
BRANCH   5  23
ATOM     23  C   UNL     1      35.028 -22.807 -16.837  0.00  0.00    +0.019 C 
ATOM     24  C   UNL     1      35.894 -22.017 -17.593  0.00  0.00    +0.002 C 
ATOM     25  C   UNL     1      33.859 -23.305 -17.410  0.00  0.00    +0.002 C 
ATOM     26  C   UNL     1      35.590 -21.726 -18.923  0.00  0.00    +0.000 C 
ATOM     27  C   UNL     1      33.555 -23.014 -18.740  0.00  0.00    +0.000 C 
ATOM     28  C   UNL     1      34.421 -22.224 -19.496  0.00  0.00    +0.000 C 
ENDBRANCH   5  23
TORSDOF 2
ENDMDL
MODEL 9
REMARK VINA RESULT:      -9.0     10.875     13.849
REMARK  Name = 53338808
REMARK  2 active torsions:
REMARK  status: ('A' for Active; 'I' for Inactive)
REMARK    1  A    between atoms: C_3  and  C_15
REMARK    2  A    between atoms: C_5  and  C_23
REMARK                            x       y       z     vdW  Elec       q    Type
REMARK                         _______ _______ _______ _____ _____    ______ ____
ROOT
ATOM      1  N   UNL     1      32.363 -10.646 -22.193  0.00  0.00    -0.228 N 
ATOM      2  N   UNL     1      32.973 -10.218 -23.331  0.00  0.00    -0.165 NA
ATOM      3  C   UNL     1      33.231 -12.478 -23.117  0.00  0.00    +0.056 A 
ATOM      4  C   UNL     1      32.508 -12.028 -22.040  0.00  0.00    +0.086 A 
ATOM      5  C   UNL     1      33.487 -11.324 -23.873  0.00  0.00    +0.104 A 
ATOM      6  C   UNL     1      31.926 -12.642 -20.896  0.00  0.00    +0.019 C 
ATOM      7  C   UNL     1      31.668  -9.870 -21.258  0.00  0.00    +0.100 C 
ATOM      8  C   UNL     1      31.260 -11.887 -20.002  0.00  0.00    +0.003 C 
ATOM      9  C   UNL     1      31.120 -10.453 -20.180  0.00  0.00    +0.021 C 
ENDROOT
BRANCH   3  15
ATOM     10  N   UNL     1      33.394 -14.307 -24.598  0.00  0.00    -0.146 NA
ATOM     11  N   UNL     1      34.585 -17.619 -23.996  0.00  0.00    -0.257 N 
ATOM     12  N   UNL     1      33.697 -15.558 -24.912  0.00  0.00    -0.129 NA
ATOM     13  N   UNL     1      35.051 -18.104 -22.830  0.00  0.00    -0.157 NA
ATOM     14  N   UNL     1      35.312 -17.062 -20.687  0.00  0.00    -0.341 N 
ATOM     15  C   UNL     1      33.594 -13.848 -23.334  0.00  0.00    +0.106 C 
ATOM     16  C   UNL     1      34.111 -14.599 -22.287  0.00  0.00    +0.027 C 
ATOM     17  C   UNL     1      34.428 -15.913 -22.622  0.00  0.00    +0.071 A 
ATOM     18  C   UNL     1      34.201 -16.315 -23.925  0.00  0.00    +0.180 A 
ATOM     19  C   UNL     1      34.953 -17.062 -21.998  0.00  0.00    +0.148 A 
ATOM     20  H   UNL     1      34.529 -18.155 -24.820  0.00  0.00    +0.191 HD
ATOM     21  H   UNL     1      35.676 -17.880 -20.277  0.00  0.00    +0.144 HD
ATOM     22  H   UNL     1      35.207 -16.246 -20.148  0.00  0.00    +0.144 HD
ENDBRANCH   3  15
BRANCH   5  23
ATOM     23  C   UNL     1      34.217 -11.241 -25.113  0.00  0.00    +0.019 C 
ATOM     24  C   UNL     1      35.265 -10.330 -25.244  0.00  0.00    +0.002 C 
ATOM     25  C   UNL     1      33.877 -12.072 -26.180  0.00  0.00    +0.002 C 
ATOM     26  C   UNL     1      35.973 -10.250 -26.443  0.00  0.00    +0.000 C 
ATOM     27  C   UNL     1      34.585 -11.992 -27.379  0.00  0.00    +0.000 C 
ATOM     28  C   UNL     1      35.633 -11.081 -27.510  0.00  0.00    +0.000 C 
ENDBRANCH   5  23
TORSDOF 2
ENDMDL
