MODEL 1
REMARK VINA RESULT:     -11.7      0.000      0.000
REMARK  Name = 446805
REMARK  6 active torsions:
REMARK  status: ('A' for Active; 'I' for Inactive)
REMARK    1  A    between atoms: C_4  and  C_22
REMARK    2  A    between atoms: C_7  and  N_11
REMARK    3  A    between atoms: N_11  and  S_13
REMARK    4  A    between atoms: S_13  and  C_16
REMARK    5  A    between atoms: C_22  and  C_23
REMARK    6  A    between atoms: C_28  and  C_31
REMARK                            x       y       z     vdW  Elec       q    Type
REMARK                         _______ _______ _______ _____ _____    ______ ____
ROOT
ATOM      1  N   UNL     1      34.041 -23.006 -16.924  0.00  0.00    -0.262 N 
ATOM      2  N   UNL     1      32.284 -22.452 -18.168  0.00  0.00    -0.394 NA
ATOM      3  C   UNL     1      34.554 -22.338 -18.006  0.00  0.00    +0.079 C 
ATOM      4  C   UNL     1      32.682 -23.048 -17.067  0.00  0.00    +0.168 C 
ATOM      5  C   UNL     1      33.439 -22.002 -18.767  0.00  0.00    +0.129 C 
ATOM      6  C   UNL     1      33.615 -21.295 -19.969  0.00  0.00    +0.103 C 
ATOM      7  C   UNL     1      34.917 -20.953 -20.356  0.00  0.00    +0.050 C 
ATOM      8  C   UNL     1      35.859 -22.006 -18.372  0.00  0.00    +0.018 C 
ATOM      9  C   UNL     1      34.804 -23.565 -15.832  0.00  0.00    +0.119 C 
ATOM     10  C   UNL     1      36.018 -21.303 -19.571  0.00  0.00    +0.013 C 
ENDROOT
BRANCH   7  11
ATOM     11  N   UNL     1      35.120 -20.235 -21.575  0.00  0.00    -0.219 N 
ATOM     12  H   UNL     1      34.833 -20.600 -22.444  0.00  0.00    +0.173 HD
BRANCH  11  13
ATOM     13  S   UNL     1      35.897 -18.686 -21.449  0.00  0.00    +0.073 S 
ATOM     14  O   UNL     1      37.329 -18.855 -21.594  0.00  0.00    -0.150 OA
ATOM     15  O   UNL     1      35.351 -17.971 -20.310  0.00  0.00    -0.150 OA
BRANCH  13  16
ATOM     16  C   UNL     1      35.303 -17.867 -22.900  0.00  0.00    +0.125 C 
ATOM     17  C   UNL     1      35.194 -16.487 -22.897  0.00  0.00    +0.020 C 
ATOM     18  C   UNL     1      34.961 -18.621 -24.007  0.00  0.00    +0.020 C 
ATOM     19  C   UNL     1      34.727 -15.842 -24.042  0.00  0.00    +0.001 C 
ATOM     20  C   UNL     1      34.494 -17.975 -25.152  0.00  0.00    +0.001 C 
ATOM     21  C   UNL     1      34.376 -16.586 -25.170  0.00  0.00    +0.000 C 
ENDBRANCH  13  16
ENDBRANCH  11  13
ENDBRANCH   7  11
BRANCH   4  22
ATOM     22  C   UNL     1      31.808 -23.701 -16.071  0.00  0.00    +0.101 C 
BRANCH  22  23
ATOM     23  C   UNL     1      30.361 -23.226 -16.114  0.00  0.00    -0.014 C 
ATOM     24  C   UNL     1      29.920 -22.343 -15.151  0.00  0.00    -0.004 C 
ATOM     25  C   UNL     1      29.536 -23.695 -17.116  0.00  0.00    -0.004 C 
ATOM     26  C   UNL     1      28.595 -21.907 -15.192  0.00  0.00    +0.002 C 
ATOM     27  C   UNL     1      28.212 -23.261 -17.156  0.00  0.00    +0.002 C 
ATOM     28  C   UNL     1      27.741 -22.367 -16.194  0.00  0.00    +0.031 C 
BRANCH  28  31
ATOM     29  N   UNL     1      25.844 -21.262 -17.354  0.00  0.00    -0.343 N 
ATOM     30  N   UNL     1      25.569 -22.116 -15.196  0.00  0.00    -0.285 NA
ATOM     31  C   UNL     1      26.360 -21.914 -16.236  0.00  0.00    +0.117 C 
ATOM     32  H   UNL     1      24.905 -20.964 -17.361  0.00  0.00    +0.144 HD
ATOM     33  H   UNL     1      26.417 -21.100 -18.138  0.00  0.00    +0.144 HD
ATOM     34  H   UNL     1      24.634 -21.811 -15.222  0.00  0.00    +0.188 HD
ENDBRANCH  28  31
ENDBRANCH  22  23
ENDBRANCH   4  22
TORSDOF 6
ENDMDL
MODEL 2
REMARK VINA RESULT:     -11.7      5.215      8.547
REMARK  Name = 446805
REMARK  6 active torsions:
REMARK  status: ('A' for Active; 'I' for Inactive)
REMARK    1  A    between atoms: C_4  and  C_22
REMARK    2  A    between atoms: C_7  and  N_11
REMARK    3  A    between atoms: N_11  and  S_13
REMARK    4  A    between atoms: S_13  and  C_16
REMARK    5  A    between atoms: C_22  and  C_23
REMARK    6  A    between atoms: C_28  and  C_31
REMARK                            x       y       z     vdW  Elec       q    Type
REMARK                         _______ _______ _______ _____ _____    ______ ____
ROOT
ATOM      1  N   UNL     1      34.715 -16.911 -23.029  0.00  0.00    -0.262 N 
ATOM      2  N   UNL     1      34.878 -16.459 -20.859  0.00  0.00    -0.394 NA
ATOM      3  C   UNL     1      34.024 -15.741 -22.847  0.00  0.00    +0.079 C 
ATOM      4  C   UNL     1      35.206 -17.299 -21.815  0.00  0.00    +0.168 C 
ATOM      5  C   UNL     1      34.141 -15.479 -21.485  0.00  0.00    +0.129 C 
ATOM      6  C   UNL     1      33.533 -14.329 -20.953  0.00  0.00    +0.103 C 
ATOM      7  C   UNL     1      32.829 -13.484 -21.820  0.00  0.00    +0.050 C 
ATOM      8  C   UNL     1      33.328 -14.914 -23.729  0.00  0.00    +0.018 C 
ATOM      9  C   UNL     1      34.890 -17.606 -24.285  0.00  0.00    +0.119 C 
ATOM     10  C   UNL     1      32.730 -13.773 -23.184  0.00  0.00    +0.013 C 
ENDROOT
BRANCH   7  11
ATOM     11  N   UNL     1      32.203 -12.310 -21.302  0.00  0.00    -0.219 N 
ATOM     12  H   UNL     1      32.004 -12.211 -20.342  0.00  0.00    +0.173 HD
BRANCH  11  13
ATOM     13  S   UNL     1      31.812 -11.062 -22.446  0.00  0.00    +0.073 S 
ATOM     14  O   UNL     1      30.396 -11.120 -22.753  0.00  0.00    -0.150 OA
ATOM     15  O   UNL     1      32.797 -11.067 -23.511  0.00  0.00    -0.150 OA
BRANCH  13  16
ATOM     16  C   UNL     1      32.095  -9.599 -21.493  0.00  0.00    +0.125 C 
ATOM     17  C   UNL     1      31.856  -9.626 -20.130  0.00  0.00    +0.020 C 
ATOM     18  C   UNL     1      32.551  -8.458 -22.129  0.00  0.00    +0.020 C 
ATOM     19  C   UNL     1      32.080  -8.472 -19.379  0.00  0.00    +0.001 C 
ATOM     20  C   UNL     1      32.775  -7.304 -21.378  0.00  0.00    +0.001 C 
ATOM     21  C   UNL     1      32.539  -7.311 -20.003  0.00  0.00    +0.000 C 
ENDBRANCH  13  16
ENDBRANCH  11  13
ENDBRANCH   7  11
BRANCH   4  22
ATOM     22  C   UNL     1      36.007 -18.530 -21.648  0.00  0.00    +0.101 C 
BRANCH  22  23
ATOM     23  C   UNL     1      35.298 -19.625 -20.861  0.00  0.00    -0.014 C 
ATOM     24  C   UNL     1      33.921 -19.693 -20.905  0.00  0.00    -0.004 C 
ATOM     25  C   UNL     1      36.055 -20.515 -20.127  0.00  0.00    -0.004 C 
ATOM     26  C   UNL     1      33.271 -20.696 -20.184  0.00  0.00    +0.002 C 
ATOM     27  C   UNL     1      35.407 -21.517 -19.406  0.00  0.00    +0.002 C 
ATOM     28  C   UNL     1      34.015 -21.607 -19.435  0.00  0.00    +0.031 C 
BRANCH  28  31
ATOM     29  N   UNL     1      32.209 -22.376 -17.913  0.00  0.00    -0.343 N 
ATOM     30  N   UNL     1      33.796 -23.891 -18.719  0.00  0.00    -0.285 NA
ATOM     31  C   UNL     1      33.338 -22.652 -18.682  0.00  0.00    +0.117 C 
ATOM     32  H   UNL     1      31.767 -23.099 -17.411  0.00  0.00    +0.144 HD
ATOM     33  H   UNL     1      31.854 -21.459 -17.870  0.00  0.00    +0.144 HD
ATOM     34  H   UNL     1      33.340 -24.600 -18.210  0.00  0.00    +0.188 HD
ENDBRANCH  28  31
ENDBRANCH  22  23
ENDBRANCH   4  22
TORSDOF 6
ENDMDL
MODEL 3
REMARK VINA RESULT:     -11.7      5.828     11.432
REMARK  Name = 446805
REMARK  6 active torsions:
REMARK  status: ('A' for Active; 'I' for Inactive)
REMARK    1  A    between atoms: C_4  and  C_22
REMARK    2  A    between atoms: C_7  and  N_11
REMARK    3  A    between atoms: N_11  and  S_13
REMARK    4  A    between atoms: S_13  and  C_16
REMARK    5  A    between atoms: C_22  and  C_23
REMARK    6  A    between atoms: C_28  and  C_31
REMARK                            x       y       z     vdW  Elec       q    Type
REMARK                         _______ _______ _______ _____ _____    ______ ____
ROOT
ATOM      1  N   UNL     1      33.524 -13.411 -25.247  0.00  0.00    -0.262 N 
ATOM      2  N   UNL     1      34.062 -12.635 -23.235  0.00  0.00    -0.394 NA
ATOM      3  C   UNL     1      33.810 -14.519 -24.492  0.00  0.00    +0.079 C 
ATOM      4  C   UNL     1      33.689 -12.312 -24.453  0.00  0.00    +0.168 C 
ATOM      5  C   UNL     1      34.142 -14.009 -23.240  0.00  0.00    +0.129 C 
ATOM      6  C   UNL     1      34.493 -14.897 -22.209  0.00  0.00    +0.103 C 
ATOM      7  C   UNL     1      34.496 -16.270 -22.482  0.00  0.00    +0.050 C 
ATOM      8  C   UNL     1      33.804 -15.883 -24.786  0.00  0.00    +0.018 C 
ATOM      9  C   UNL     1      33.122 -13.412 -26.636  0.00  0.00    +0.119 C 
ATOM     10  C   UNL     1      34.157 -16.753 -23.749  0.00  0.00    +0.013 C 
ENDROOT
BRANCH   7  11
ATOM     11  N   UNL     1      34.852 -17.191 -21.449  0.00  0.00    -0.219 N 
ATOM     12  H   UNL     1      34.667 -16.999 -20.501  0.00  0.00    +0.173 HD
BRANCH  11  13
ATOM     13  S   UNL     1      35.622 -18.665 -21.948  0.00  0.00    +0.073 S 
ATOM     14  O   UNL     1      37.032 -18.606 -21.615  0.00  0.00    -0.150 OA
ATOM     15  O   UNL     1      35.198 -18.993 -23.296  0.00  0.00    -0.150 OA
BRANCH  13  16
ATOM     16  C   UNL     1      34.866 -19.848 -20.872  0.00  0.00    +0.125 C 
ATOM     17  C   UNL     1      33.487 -19.870 -20.757  0.00  0.00    +0.020 C 
ATOM     18  C   UNL     1      35.668 -20.727 -20.167  0.00  0.00    +0.020 C 
ATOM     19  C   UNL     1      32.891 -20.803 -19.909  0.00  0.00    +0.001 C 
ATOM     20  C   UNL     1      35.072 -21.661 -19.318  0.00  0.00    +0.001 C 
ATOM     21  C   UNL     1      33.683 -21.699 -19.189  0.00  0.00    +0.000 C 
ENDBRANCH  13  16
ENDBRANCH  11  13
ENDBRANCH   7  11
BRANCH   4  22
ATOM     22  C   UNL     1      33.462 -10.940 -24.954  0.00  0.00    +0.101 C 
BRANCH  22  23
ATOM     23  C   UNL     1      33.231  -9.912 -23.853  0.00  0.00    -0.014 C 
ATOM     24  C   UNL     1      34.104  -8.850 -23.739  0.00  0.00    -0.004 C 
ATOM     25  C   UNL     1      32.156 -10.076 -23.004  0.00  0.00    -0.004 C 
ATOM     26  C   UNL     1      33.892  -7.908 -22.731  0.00  0.00    +0.002 C 
ATOM     27  C   UNL     1      31.945  -9.136 -21.996  0.00  0.00    +0.002 C 
ATOM     28  C   UNL     1      32.813  -8.052 -21.860  0.00  0.00    +0.031 C 
BRANCH  28  31
ATOM     29  N   UNL     1      31.926  -5.874 -21.062  0.00  0.00    -0.343 N 
ATOM     30  N   UNL     1      33.031  -7.309 -19.585  0.00  0.00    -0.285 NA
ATOM     31  C   UNL     1      32.592  -7.072 -20.808  0.00  0.00    +0.117 C 
ATOM     32  H   UNL     1      31.788  -5.224 -20.335  0.00  0.00    +0.144 HD
ATOM     33  H   UNL     1      31.593  -5.677 -21.967  0.00  0.00    +0.144 HD
ATOM     34  H   UNL     1      32.883  -6.647 -18.871  0.00  0.00    +0.188 HD
ENDBRANCH  28  31
ENDBRANCH  22  23
ENDBRANCH   4  22
TORSDOF 6
ENDMDL
MODEL 4
REMARK VINA RESULT:     -11.6      3.800      9.135
REMARK  Name = 446805
REMARK  6 active torsions:
REMARK  status: ('A' for Active; 'I' for Inactive)
REMARK    1  A    between atoms: C_4  and  C_22
REMARK    2  A    between atoms: C_7  and  N_11
REMARK    3  A    between atoms: N_11  and  S_13
REMARK    4  A    between atoms: S_13  and  C_16
REMARK    5  A    between atoms: C_22  and  C_23
REMARK    6  A    between atoms: C_28  and  C_31
REMARK                            x       y       z     vdW  Elec       q    Type
REMARK                         _______ _______ _______ _____ _____    ______ ____
ROOT
ATOM      1  N   UNL     1      35.734 -18.637 -21.726  0.00  0.00    -0.262 N 
ATOM      2  N   UNL     1      33.573 -18.173 -21.492  0.00  0.00    -0.394 NA
ATOM      3  C   UNL     1      35.219 -19.663 -20.977  0.00  0.00    +0.079 C 
ATOM      4  C   UNL     1      34.713 -17.773 -22.009  0.00  0.00    +0.168 C 
ATOM      5  C   UNL     1      33.869 -19.352 -20.846  0.00  0.00    +0.129 C 
ATOM      6  C   UNL     1      33.033 -20.217 -20.119  0.00  0.00    +0.103 C 
ATOM      7  C   UNL     1      33.595 -21.367 -19.551  0.00  0.00    +0.050 C 
ATOM      8  C   UNL     1      35.800 -20.804 -20.422  0.00  0.00    +0.018 C 
ATOM      9  C   UNL     1      37.112 -18.496 -22.140  0.00  0.00    +0.119 C 
ATOM     10  C   UNL     1      34.954 -21.654 -19.702  0.00  0.00    +0.013 C 
ENDROOT
BRANCH   7  11
ATOM     11  N   UNL     1      32.765 -22.261 -18.808  0.00  0.00    -0.219 N 
ATOM     12  H   UNL     1      31.787 -22.280 -18.930  0.00  0.00    +0.173 HD
BRANCH  11  13
ATOM     13  S   UNL     1      33.563 -23.312 -17.679  0.00  0.00    +0.073 S 
ATOM     14  O   UNL     1      34.794 -22.691 -17.233  0.00  0.00    -0.150 OA
ATOM     15  O   UNL     1      33.570 -24.663 -18.209  0.00  0.00    -0.150 OA
BRANCH  13  16
ATOM     16  C   UNL     1      32.433 -23.303 -16.318  0.00  0.00    +0.125 C 
ATOM     17  C   UNL     1      31.099 -23.016 -16.551  0.00  0.00    +0.020 C 
ATOM     18  C   UNL     1      32.904 -23.583 -15.048  0.00  0.00    +0.020 C 
ATOM     19  C   UNL     1      30.208 -23.009 -15.478  0.00  0.00    +0.001 C 
ATOM     20  C   UNL     1      32.013 -23.576 -13.975  0.00  0.00    +0.001 C 
ATOM     21  C   UNL     1      30.665 -23.289 -14.190  0.00  0.00    +0.000 C 
ENDBRANCH  13  16
ENDBRANCH  11  13
ENDBRANCH   7  11
BRANCH   4  22
ATOM     22  C   UNL     1      34.919 -16.546 -22.806  0.00  0.00    +0.101 C 
BRANCH  22  23
ATOM     23  C   UNL     1      34.035 -15.380 -22.383  0.00  0.00    -0.014 C 
ATOM     24  C   UNL     1      33.423 -14.620 -23.358  0.00  0.00    -0.004 C 
ATOM     25  C   UNL     1      33.873 -15.121 -21.037  0.00  0.00    -0.004 C 
ATOM     26  C   UNL     1      32.613 -13.552 -22.970  0.00  0.00    +0.002 C 
ATOM     27  C   UNL     1      33.064 -14.053 -20.650  0.00  0.00    +0.002 C 
ATOM     28  C   UNL     1      32.434 -13.269 -21.617  0.00  0.00    +0.031 C 
BRANCH  28  31
ATOM     29  N   UNL     1      31.634 -11.646 -19.916  0.00  0.00    -0.343 N 
ATOM     30  N   UNL     1      30.758 -11.610 -22.082  0.00  0.00    -0.285 NA
ATOM     31  C   UNL     1      31.590 -12.155 -21.212  0.00  0.00    +0.117 C 
ATOM     32  H   UNL     1      31.053 -10.891 -19.664  0.00  0.00    +0.144 HD
ATOM     33  H   UNL     1      32.245 -12.040 -19.252  0.00  0.00    +0.144 HD
ATOM     34  H   UNL     1      30.186 -10.857 -21.811  0.00  0.00    +0.188 HD
ENDBRANCH  28  31
ENDBRANCH  22  23
ENDBRANCH   4  22
TORSDOF 6
ENDMDL
MODEL 5
REMARK VINA RESULT:     -11.6      3.802      9.094
REMARK  Name = 446805
REMARK  6 active torsions:
REMARK  status: ('A' for Active; 'I' for Inactive)
REMARK    1  A    between atoms: C_4  and  C_22
REMARK    2  A    between atoms: C_7  and  N_11
REMARK    3  A    between atoms: N_11  and  S_13
REMARK    4  A    between atoms: S_13  and  C_16
REMARK    5  A    between atoms: C_22  and  C_23
REMARK    6  A    between atoms: C_28  and  C_31
REMARK                            x       y       z     vdW  Elec       q    Type
REMARK                         _______ _______ _______ _____ _____    ______ ____
ROOT
ATOM      1  N   UNL     1      35.724 -18.619 -21.740  0.00  0.00    -0.262 N 
ATOM      2  N   UNL     1      33.556 -18.180 -21.525  0.00  0.00    -0.394 NA
ATOM      3  C   UNL     1      35.215 -19.646 -20.987  0.00  0.00    +0.079 C 
ATOM      4  C   UNL     1      34.695 -17.770 -22.036  0.00  0.00    +0.168 C 
ATOM      5  C   UNL     1      33.861 -19.350 -20.868  0.00  0.00    +0.129 C 
ATOM      6  C   UNL     1      33.030 -20.219 -20.141  0.00  0.00    +0.103 C 
ATOM      7  C   UNL     1      33.601 -21.359 -19.561  0.00  0.00    +0.050 C 
ATOM      8  C   UNL     1      35.805 -20.776 -20.419  0.00  0.00    +0.018 C 
ATOM      9  C   UNL     1      37.103 -18.465 -22.144  0.00  0.00    +0.119 C 
ATOM     10  C   UNL     1      34.964 -21.631 -19.699  0.00  0.00    +0.013 C 
ENDROOT
BRANCH   7  11
ATOM     11  N   UNL     1      32.775 -22.257 -18.817  0.00  0.00    -0.219 N 
ATOM     12  H   UNL     1      31.798 -22.283 -18.941  0.00  0.00    +0.173 HD
BRANCH  11  13
ATOM     13  S   UNL     1      33.579 -23.302 -17.686  0.00  0.00    +0.073 S 
ATOM     14  O   UNL     1      34.821 -22.685 -17.263  0.00  0.00    -0.150 OA
ATOM     15  O   UNL     1      33.568 -24.659 -18.200  0.00  0.00    -0.150 OA
BRANCH  13  16
ATOM     16  C   UNL     1      32.467 -23.266 -16.311  0.00  0.00    +0.125 C 
ATOM     17  C   UNL     1      32.970 -23.440 -15.033  0.00  0.00    +0.020 C 
ATOM     18  C   UNL     1      31.118 -23.064 -16.540  0.00  0.00    +0.020 C 
ATOM     19  C   UNL     1      32.092 -23.410 -13.949  0.00  0.00    +0.001 C 
ATOM     20  C   UNL     1      30.241 -23.035 -15.455  0.00  0.00    +0.001 C 
ATOM     21  C   UNL     1      30.728 -23.208 -14.159  0.00  0.00    +0.000 C 
ENDBRANCH  13  16
ENDBRANCH  11  13
ENDBRANCH   7  11
BRANCH   4  22
ATOM     22  C   UNL     1      34.893 -16.546 -22.841  0.00  0.00    +0.101 C 
BRANCH  22  23
ATOM     23  C   UNL     1      34.013 -15.378 -22.414  0.00  0.00    -0.014 C 
ATOM     24  C   UNL     1      33.886 -15.095 -21.070  0.00  0.00    -0.004 C 
ATOM     25  C   UNL     1      33.369 -14.640 -23.386  0.00  0.00    -0.004 C 
ATOM     26  C   UNL     1      33.080 -14.026 -20.679  0.00  0.00    +0.002 C 
ATOM     27  C   UNL     1      32.562 -13.572 -22.996  0.00  0.00    +0.002 C 
ATOM     28  C   UNL     1      32.418 -13.264 -21.642  0.00  0.00    +0.031 C 
BRANCH  28  31
ATOM     29  N   UNL     1      31.610 -11.654 -19.934  0.00  0.00    -0.343 N 
ATOM     30  N   UNL     1      30.757 -11.591 -22.109  0.00  0.00    -0.285 NA
ATOM     31  C   UNL     1      31.576 -12.150 -21.236  0.00  0.00    +0.117 C 
ATOM     32  H   UNL     1      31.031 -10.899 -19.680  0.00  0.00    +0.144 HD
ATOM     33  H   UNL     1      32.211 -12.059 -19.267  0.00  0.00    +0.144 HD
ATOM     34  H   UNL     1      30.187 -10.837 -21.836  0.00  0.00    +0.188 HD
ENDBRANCH  28  31
ENDBRANCH  22  23
ENDBRANCH   4  22
TORSDOF 6
ENDMDL
MODEL 6
REMARK VINA RESULT:     -11.3      5.056      8.515
REMARK  Name = 446805
REMARK  6 active torsions:
REMARK  status: ('A' for Active; 'I' for Inactive)
REMARK    1  A    between atoms: C_4  and  C_22
REMARK    2  A    between atoms: C_7  and  N_11
REMARK    3  A    between atoms: N_11  and  S_13
REMARK    4  A    between atoms: S_13  and  C_16
REMARK    5  A    between atoms: C_22  and  C_23
REMARK    6  A    between atoms: C_28  and  C_31
REMARK                            x       y       z     vdW  Elec       q    Type
REMARK                         _______ _______ _______ _____ _____    ______ ____
ROOT
ATOM      1  N   UNL     1      34.471 -16.533 -23.302  0.00  0.00    -0.262 N 
ATOM      2  N   UNL     1      34.255 -16.828 -21.110  0.00  0.00    -0.394 NA
ATOM      3  C   UNL     1      33.917 -15.371 -22.829  0.00  0.00    +0.079 C 
ATOM      4  C   UNL     1      34.654 -17.371 -22.239  0.00  0.00    +0.168 C 
ATOM      5  C   UNL     1      33.794 -15.580 -21.458  0.00  0.00    +0.129 C 
ATOM      6  C   UNL     1      33.250 -14.562 -20.656  0.00  0.00    +0.103 C 
ATOM      7  C   UNL     1      32.851 -13.369 -21.270  0.00  0.00    +0.050 C 
ATOM      8  C   UNL     1      33.528 -14.190 -23.462  0.00  0.00    +0.018 C 
ATOM      9  C   UNL     1      34.798 -16.816 -24.681  0.00  0.00    +0.119 C 
ATOM     10  C   UNL     1      32.989 -13.187 -22.649  0.00  0.00    +0.013 C 
ENDROOT
BRANCH   7  11
ATOM     11  N   UNL     1      32.295 -12.321 -20.474  0.00  0.00    -0.219 N 
ATOM     12  H   UNL     1      32.586 -12.168 -19.545  0.00  0.00    +0.173 HD
BRANCH  11  13
ATOM     13  S   UNL     1      31.083 -11.328 -21.225  0.00  0.00    +0.073 S 
ATOM     14  O   UNL     1      30.020 -11.069 -20.274  0.00  0.00    -0.150 OA
ATOM     15  O   UNL     1      30.781 -11.859 -22.541  0.00  0.00    -0.150 OA
BRANCH  13  16
ATOM     16  C   UNL     1      31.962  -9.813 -21.472  0.00  0.00    +0.125 C 
ATOM     17  C   UNL     1      32.468  -9.526 -22.728  0.00  0.00    +0.020 C 
ATOM     18  C   UNL     1      32.125  -8.947 -20.407  0.00  0.00    +0.020 C 
ATOM     19  C   UNL     1      33.160  -8.330 -22.923  0.00  0.00    +0.001 C 
ATOM     20  C   UNL     1      32.818  -7.751 -20.603  0.00  0.00    +0.001 C 
ATOM     21  C   UNL     1      33.335  -7.443 -21.861  0.00  0.00    +0.000 C 
ENDBRANCH  13  16
ENDBRANCH  11  13
ENDBRANCH   7  11
BRANCH   4  22
ATOM     22  C   UNL     1      35.235 -18.721 -22.393  0.00  0.00    +0.101 C 
BRANCH  22  23
ATOM     23  C   UNL     1      34.798 -19.707 -21.317  0.00  0.00    -0.014 C 
ATOM     24  C   UNL     1      33.451 -19.873 -21.071  0.00  0.00    -0.004 C 
ATOM     25  C   UNL     1      35.765 -20.404 -20.621  0.00  0.00    -0.004 C 
ATOM     26  C   UNL     1      33.052 -20.776 -20.085  0.00  0.00    +0.002 C 
ATOM     27  C   UNL     1      35.366 -21.306 -19.635  0.00  0.00    +0.002 C 
ATOM     28  C   UNL     1      34.009 -21.492 -19.368  0.00  0.00    +0.031 C 
BRANCH  28  31
ATOM     29  N   UNL     1      32.248 -22.620 -18.030  0.00  0.00    -0.343 N 
ATOM     30  N   UNL     1      34.501 -23.128 -17.677  0.00  0.00    -0.285 NA
ATOM     31  C   UNL     1      33.593 -22.433 -18.340  0.00  0.00    +0.117 C 
ATOM     32  H   UNL     1      31.989 -23.263 -17.330  0.00  0.00    +0.144 HD
ATOM     33  H   UNL     1      31.556 -22.111 -18.510  0.00  0.00    +0.144 HD
ATOM     34  H   UNL     1      34.223 -23.765 -16.980  0.00  0.00    +0.188 HD
ENDBRANCH  28  31
ENDBRANCH  22  23
ENDBRANCH   4  22
TORSDOF 6
ENDMDL
MODEL 7
REMARK VINA RESULT:     -11.3      2.716      6.358
REMARK  Name = 446805
REMARK  6 active torsions:
REMARK  status: ('A' for Active; 'I' for Inactive)
REMARK    1  A    between atoms: C_4  and  C_22
REMARK    2  A    between atoms: C_7  and  N_11
REMARK    3  A    between atoms: N_11  and  S_13
REMARK    4  A    between atoms: S_13  and  C_16
REMARK    5  A    between atoms: C_22  and  C_23
REMARK    6  A    between atoms: C_28  and  C_31
REMARK                            x       y       z     vdW  Elec       q    Type
REMARK                         _______ _______ _______ _____ _____    ______ ____
ROOT
ATOM      1  N   UNL     1      33.140 -22.569 -17.441  0.00  0.00    -0.262 N 
ATOM      2  N   UNL     1      35.339 -22.677 -17.749  0.00  0.00    -0.394 NA
ATOM      3  C   UNL     1      33.383 -21.867 -18.593  0.00  0.00    +0.079 C 
ATOM      4  C   UNL     1      34.338 -23.033 -16.974  0.00  0.00    +0.168 C 
ATOM      5  C   UNL     1      34.762 -21.949 -18.765  0.00  0.00    +0.129 C 
ATOM      6  C   UNL     1      35.354 -21.323 -19.875  0.00  0.00    +0.103 C 
ATOM      7  C   UNL     1      34.527 -20.635 -20.772  0.00  0.00    +0.050 C 
ATOM      8  C   UNL     1      32.541 -21.189 -19.475  0.00  0.00    +0.018 C 
ATOM      9  C   UNL     1      31.846 -22.778 -16.831  0.00  0.00    +0.119 C 
ATOM     10  C   UNL     1      33.146 -20.571 -20.574  0.00  0.00    +0.013 C 
ENDROOT
BRANCH   7  11
ATOM     11  N   UNL     1      35.107 -19.990 -21.907  0.00  0.00    -0.219 N 
ATOM     12  H   UNL     1      35.085 -20.401 -22.802  0.00  0.00    +0.173 HD
BRANCH  11  13
ATOM     13  S   UNL     1      35.850 -18.444 -21.632  0.00  0.00    +0.073 S 
ATOM     14  O   UNL     1      37.280 -18.554 -21.851  0.00  0.00    -0.150 OA
ATOM     15  O   UNL     1      35.336 -17.880 -20.398  0.00  0.00    -0.150 OA
BRANCH  13  16
ATOM     16  C   UNL     1      35.178 -17.482 -22.955  0.00  0.00    +0.125 C 
ATOM     17  C   UNL     1      34.940 -18.088 -24.176  0.00  0.00    +0.020 C 
ATOM     18  C   UNL     1      34.903 -16.143 -22.742  0.00  0.00    +0.020 C 
ATOM     19  C   UNL     1      34.409 -17.328 -25.219  0.00  0.00    +0.001 C 
ATOM     20  C   UNL     1      34.372 -15.384 -23.785  0.00  0.00    +0.001 C 
ATOM     21  C   UNL     1      34.125 -15.976 -25.023  0.00  0.00    +0.000 C 
ENDBRANCH  13  16
ENDBRANCH  11  13
ENDBRANCH   7  11
BRANCH   4  22
ATOM     22  C   UNL     1      34.443 -23.836 -15.738  0.00  0.00    +0.101 C 
BRANCH  22  23
ATOM     23  C   UNL     1      35.842 -24.378 -15.472  0.00  0.00    -0.014 C 
ATOM     24  C   UNL     1      36.897 -23.493 -15.398  0.00  0.00    -0.004 C 
ATOM     25  C   UNL     1      36.009 -25.739 -15.313  0.00  0.00    -0.004 C 
ATOM     26  C   UNL     1      38.178 -23.990 -15.154  0.00  0.00    +0.002 C 
ATOM     27  C   UNL     1      37.289 -26.236 -15.069  0.00  0.00    +0.002 C 
ATOM     28  C   UNL     1      38.373 -25.361 -14.990  0.00  0.00    +0.031 C 
BRANCH  28  31
ATOM     29  N   UNL     1      40.119 -26.227 -13.450  0.00  0.00    -0.343 N 
ATOM     30  N   UNL     1      40.559 -26.025 -15.737  0.00  0.00    -0.285 NA
ATOM     31  C   UNL     1      39.708 -25.879 -14.736  0.00  0.00    +0.117 C 
ATOM     32  H   UNL     1      41.028 -26.576 -13.302  0.00  0.00    +0.144 HD
ATOM     33  H   UNL     1      39.501 -26.124 -12.691  0.00  0.00    +0.144 HD
ATOM     34  H   UNL     1      41.463 -26.375 -15.568  0.00  0.00    +0.188 HD
ENDBRANCH  28  31
ENDBRANCH  22  23
ENDBRANCH   4  22
TORSDOF 6
ENDMDL
MODEL 8
REMARK VINA RESULT:     -11.1      4.087      8.632
REMARK  Name = 446805
REMARK  6 active torsions:
REMARK  status: ('A' for Active; 'I' for Inactive)
REMARK    1  A    between atoms: C_4  and  C_22
REMARK    2  A    between atoms: C_7  and  N_11
REMARK    3  A    between atoms: N_11  and  S_13
REMARK    4  A    between atoms: S_13  and  C_16
REMARK    5  A    between atoms: C_22  and  C_23
REMARK    6  A    between atoms: C_28  and  C_31
REMARK                            x       y       z     vdW  Elec       q    Type
REMARK                         _______ _______ _______ _____ _____    ______ ____
ROOT
ATOM      1  N   UNL     1      35.933 -22.025 -17.775  0.00  0.00    -0.262 N 
ATOM      2  N   UNL     1      34.093 -22.806 -18.747  0.00  0.00    -0.394 NA
ATOM      3  C   UNL     1      35.203 -22.600 -16.767  0.00  0.00    +0.079 C 
ATOM      4  C   UNL     1      35.229 -22.173 -18.937  0.00  0.00    +0.168 C 
ATOM      5  C   UNL     1      34.060 -23.081 -17.399  0.00  0.00    +0.129 C 
ATOM      6  C   UNL     1      33.081 -23.741 -16.636  0.00  0.00    +0.103 C 
ATOM      7  C   UNL     1      33.295 -23.890 -15.260  0.00  0.00    +0.050 C 
ATOM      8  C   UNL     1      35.438 -22.738 -15.399  0.00  0.00    +0.018 C 
ATOM      9  C   UNL     1      37.217 -21.376 -17.630  0.00  0.00    +0.119 C 
ATOM     10  C   UNL     1      34.454 -23.397 -14.654  0.00  0.00    +0.013 C 
ENDROOT
BRANCH   7  11
ATOM     11  N   UNL     1      32.313 -24.556 -14.465  0.00  0.00    -0.219 N 
ATOM     12  H   UNL     1      32.329 -25.533 -14.336  0.00  0.00    +0.173 HD
BRANCH  11  13
ATOM     13  S   UNL     1      31.092 -23.560 -13.735  0.00  0.00    +0.073 S 
ATOM     14  O   UNL     1      31.605 -22.214 -13.572  0.00  0.00    -0.150 OA
ATOM     15  O   UNL     1      30.511 -24.267 -12.609  0.00  0.00    -0.150 OA
BRANCH  13  16
ATOM     16  C   UNL     1      29.859 -23.515 -15.002  0.00  0.00    +0.125 C 
ATOM     17  C   UNL     1      29.178 -22.333 -15.237  0.00  0.00    +0.020 C 
ATOM     18  C   UNL     1      29.602 -24.660 -15.734  0.00  0.00    +0.020 C 
ATOM     19  C   UNL     1      28.206 -22.298 -16.238  0.00  0.00    +0.001 C 
ATOM     20  C   UNL     1      28.630 -24.624 -16.734  0.00  0.00    +0.001 C 
ATOM     21  C   UNL     1      27.932 -23.443 -16.986  0.00  0.00    +0.000 C 
ENDBRANCH  13  16
ENDBRANCH  11  13
ENDBRANCH   7  11
BRANCH   4  22
ATOM     22  C   UNL     1      35.730 -21.663 -20.230  0.00  0.00    +0.101 C 
BRANCH  22  23
ATOM     23  C   UNL     1      35.231 -20.266 -20.578  0.00  0.00    -0.014 C 
ATOM     24  C   UNL     1      33.872 -20.033 -20.609  0.00  0.00    -0.004 C 
ATOM     25  C   UNL     1      36.155 -19.278 -20.850  0.00  0.00    -0.004 C 
ATOM     26  C   UNL     1      33.415 -18.754 -20.928  0.00  0.00    +0.002 C 
ATOM     27  C   UNL     1      35.698 -17.999 -21.169  0.00  0.00    +0.002 C 
ATOM     28  C   UNL     1      34.328 -17.737 -21.207  0.00  0.00    +0.031 C 
BRANCH  28  31
ATOM     29  N   UNL     1      32.713 -15.870 -20.940  0.00  0.00    -0.343 N 
ATOM     30  N   UNL     1      34.503 -15.676 -22.430  0.00  0.00    -0.285 NA
ATOM     31  C   UNL     1      33.852 -16.404 -21.540  0.00  0.00    +0.117 C 
ATOM     32  H   UNL     1      32.409 -14.965 -21.181  0.00  0.00    +0.144 HD
ATOM     33  H   UNL     1      32.213 -16.398 -20.277  0.00  0.00    +0.144 HD
ATOM     34  H   UNL     1      34.183 -14.773 -22.657  0.00  0.00    +0.188 HD
ENDBRANCH  28  31
ENDBRANCH  22  23
ENDBRANCH   4  22
TORSDOF 6
ENDMDL
MODEL 9
REMARK VINA RESULT:     -10.8      4.463      7.950
REMARK  Name = 446805
REMARK  6 active torsions:
REMARK  status: ('A' for Active; 'I' for Inactive)
REMARK    1  A    between atoms: C_4  and  C_22
REMARK    2  A    between atoms: C_7  and  N_11
REMARK    3  A    between atoms: N_11  and  S_13
REMARK    4  A    between atoms: S_13  and  C_16
REMARK    5  A    between atoms: C_22  and  C_23
REMARK    6  A    between atoms: C_28  and  C_31
REMARK                            x       y       z     vdW  Elec       q    Type
REMARK                         _______ _______ _______ _____ _____    ______ ____
ROOT
ATOM      1  N   UNL     1      34.849 -16.424 -21.665  0.00  0.00    -0.262 N 
ATOM      2  N   UNL     1      35.110 -17.286 -23.697  0.00  0.00    -0.394 NA
ATOM      3  C   UNL     1      34.106 -15.628 -22.499  0.00  0.00    +0.079 C 
ATOM      4  C   UNL     1      35.429 -17.399 -22.427  0.00  0.00    +0.168 C 
ATOM      5  C   UNL     1      34.284 -16.187 -23.761  0.00  0.00    +0.129 C 
ATOM      6  C   UNL     1      33.645 -15.601 -24.867  0.00  0.00    +0.103 C 
ATOM      7  C   UNL     1      32.848 -14.470 -24.655  0.00  0.00    +0.050 C 
ATOM      8  C   UNL     1      33.316 -14.502 -22.264  0.00  0.00    +0.018 C 
ATOM      9  C   UNL     1      34.992 -16.257 -20.237  0.00  0.00    +0.119 C 
ATOM     10  C   UNL     1      32.687 -13.932 -23.376  0.00  0.00    +0.013 C 
ENDROOT
BRANCH   7  11
ATOM     11  N   UNL     1      32.190 -13.857 -25.765  0.00  0.00    -0.219 N 
ATOM     12  H   UNL     1      31.208 -13.849 -25.843  0.00  0.00    +0.173 HD
BRANCH  11  13
ATOM     13  S   UNL     1      33.205 -13.124 -26.968  0.00  0.00    +0.073 S 
ATOM     14  O   UNL     1      32.375 -12.530 -27.998  0.00  0.00    -0.150 OA
ATOM     15  O   UNL     1      34.268 -14.046 -27.321  0.00  0.00    -0.150 OA
BRANCH  13  16
ATOM     16  C   UNL     1      33.952 -11.807 -26.055  0.00  0.00    +0.125 C 
ATOM     17  C   UNL     1      33.371 -11.396 -24.867  0.00  0.00    +0.020 C 
ATOM     18  C   UNL     1      35.101 -11.213 -26.544  0.00  0.00    +0.020 C 
ATOM     19  C   UNL     1      33.961 -10.358 -24.146  0.00  0.00    +0.001 C 
ATOM     20  C   UNL     1      35.691 -10.175 -25.823  0.00  0.00    +0.001 C 
ATOM     21  C   UNL     1      35.121  -9.747 -24.624  0.00  0.00    +0.000 C 
ENDBRANCH  13  16
ENDBRANCH  11  13
ENDBRANCH   7  11
BRANCH   4  22
ATOM     22  C   UNL     1      36.305 -18.436 -21.843  0.00  0.00    +0.101 C 
BRANCH  22  23
ATOM     23  C   UNL     1      35.555 -19.510 -21.065  0.00  0.00    -0.014 C 
ATOM     24  C   UNL     1      36.270 -20.365 -20.252  0.00  0.00    -0.004 C 
ATOM     25  C   UNL     1      34.184 -19.594 -21.199  0.00  0.00    -0.004 C 
ATOM     26  C   UNL     1      35.583 -21.349 -19.540  0.00  0.00    +0.002 C 
ATOM     27  C   UNL     1      33.498 -20.577 -20.487  0.00  0.00    +0.002 C 
ATOM     28  C   UNL     1      34.197 -21.455 -19.657  0.00  0.00    +0.031 C 
BRANCH  28  31
ATOM     29  N   UNL     1      32.344 -22.175 -18.170  0.00  0.00    -0.343 N 
ATOM     30  N   UNL     1      33.909 -23.730 -18.939  0.00  0.00    -0.285 NA
ATOM     31  C   UNL     1      33.481 -22.480 -18.915  0.00  0.00    +0.117 C 
ATOM     32  H   UNL     1      31.875 -22.885 -17.675  0.00  0.00    +0.144 HD
ATOM     33  H   UNL     1      32.010 -21.250 -18.137  0.00  0.00    +0.144 HD
ATOM     34  H   UNL     1      33.427 -24.426 -18.438  0.00  0.00    +0.188 HD
ENDBRANCH  28  31
ENDBRANCH  22  23
ENDBRANCH   4  22
TORSDOF 6
ENDMDL
