MODEL 1
REMARK VINA RESULT:     -10.4      0.000      0.000
REMARK  Name = 16043304
REMARK  7 active torsions:
REMARK  status: ('A' for Active; 'I' for Inactive)
REMARK    1  A    between atoms: N_2  and  C_19
REMARK    2  A    between atoms: C_3  and  C_6
REMARK    3  A    between atoms: C_8  and  C_13
REMARK    4  A    between atoms: C_19  and  C_20
REMARK    5  A    between atoms: C_19  and  C_29
REMARK    6  A    between atoms: C_20  and  C_23
REMARK    7  A    between atoms: C_29  and  N_30
REMARK                            x       y       z     vdW  Elec       q    Type
REMARK                         _______ _______ _______ _____ _____    ______ ____
ROOT
ATOM      1  O   UNL     1      34.124 -23.516 -19.570  0.00  0.00    -0.270 OA
ATOM      2  N   UNL     1      34.553 -22.346 -17.641  0.00  0.00    -0.304 N 
ATOM      3  C   UNL     1      34.576 -22.509 -19.022  0.00  0.00    +0.252 C 
ATOM      4  H   UNL     1      34.927 -21.524 -17.251  0.00  0.00    +0.150 HD
ENDROOT
BRANCH   3   6
ATOM      5  S   UNL     1      34.112 -20.528 -20.812  0.00  0.00    -0.080 S 
ATOM      6  C   UNL     1      35.144 -21.389 -19.784  0.00  0.00    +0.083 C 
ATOM      7  C   UNL     1      36.421 -20.948 -19.768  0.00  0.00    +0.012 C 
ATOM      8  C   UNL     1      35.402 -19.505 -21.278  0.00  0.00    +0.060 C 
ATOM      9  C   UNL     1      36.580 -19.837 -20.646  0.00  0.00    +0.010 C 
BRANCH   8  13
ATOM     10  N   UNL     1      34.916 -17.243 -21.684  0.00  0.00    -0.337 NA
ATOM     11  N   UNL     1      34.654 -16.364 -23.913  0.00  0.00    -0.170 NA
ATOM     12  N   UNL     1      34.432 -14.974 -22.035  0.00  0.00    -0.266 N 
ATOM     13  C   UNL     1      35.148 -18.451 -22.232  0.00  0.00    +0.152 C 
ATOM     14  C   UNL     1      35.149 -18.697 -23.588  0.00  0.00    +0.055 C 
ATOM     15  C   UNL     1      34.679 -16.257 -22.570  0.00  0.00    +0.145 C 
ATOM     16  C   UNL     1      34.894 -17.603 -24.389  0.00  0.00    +0.114 C 
ATOM     17  C   UNL     1      34.420 -14.676 -20.607  0.00  0.00    +0.120 C 
ATOM     18  H   UNL     1      34.255 -14.236 -22.664  0.00  0.00    +0.159 HD
ENDBRANCH   8  13
ENDBRANCH   3   6
BRANCH   2  19
ATOM     19  C   UNL     1      33.996 -23.351 -16.758  0.00  0.00    +0.055 C 
BRANCH  19  20
ATOM     20  C   UNL     1      34.558 -23.199 -15.332  0.00  0.00    +0.045 C 
BRANCH  20  23
ATOM     21 CL   UNL     1      37.140 -21.681 -16.056  0.00  0.00    -0.083 Cl
ATOM     22 CL   UNL     1      39.729 -26.143 -14.523  0.00  0.00    -0.082 Cl
ATOM     23  C   UNL     1      35.876 -23.914 -15.139  0.00  0.00    -0.010 C 
ATOM     24  C   UNL     1      37.077 -23.294 -15.444  0.00  0.00    +0.055 C 
ATOM     25  C   UNL     1      35.841 -25.210 -14.647  0.00  0.00    -0.003 C 
ATOM     26  C   UNL     1      38.273 -23.986 -15.254  0.00  0.00    +0.022 C 
ATOM     27  C   UNL     1      37.037 -25.902 -14.457  0.00  0.00    +0.011 C 
ATOM     28  C   UNL     1      38.253 -25.289 -14.759  0.00  0.00    +0.058 C 
ENDBRANCH  20  23
ENDBRANCH  19  20
BRANCH  19  29
ATOM     29  C   UNL     1      32.464 -23.245 -16.796  0.00  0.00    -0.066 C 
BRANCH  29  30
ATOM     30  N   UNL     1      31.883 -23.237 -15.458  0.00  0.00    +0.382 N 
ATOM     31  H   UNL     1      31.504 -22.311 -15.257  0.00  0.00    -0.089 HD
ATOM     32  H   UNL     1      32.603 -23.465 -14.772  0.00  0.00    -0.089 HD
ATOM     33  H   UNL     1      31.134 -23.928 -15.408  0.00  0.00    -0.089 HD
ENDBRANCH  29  30
ENDBRANCH  19  29
ENDBRANCH   2  19
TORSDOF 7
ENDMDL
MODEL 2
REMARK VINA RESULT:     -10.3      4.100      9.845
REMARK  Name = 16043304
REMARK  7 active torsions:
REMARK  status: ('A' for Active; 'I' for Inactive)
REMARK    1  A    between atoms: N_2  and  C_19
REMARK    2  A    between atoms: C_3  and  C_6
REMARK    3  A    between atoms: C_8  and  C_13
REMARK    4  A    between atoms: C_19  and  C_20
REMARK    5  A    between atoms: C_19  and  C_29
REMARK    6  A    between atoms: C_20  and  C_23
REMARK    7  A    between atoms: C_29  and  N_30
REMARK                            x       y       z     vdW  Elec       q    Type
REMARK                         _______ _______ _______ _____ _____    ______ ____
ROOT
ATOM      1  O   UNL     1      32.820 -20.172 -21.285  0.00  0.00    -0.270 OA
ATOM      2  N   UNL     1      34.966 -19.412 -21.580  0.00  0.00    -0.304 N 
ATOM      3  C   UNL     1      33.998 -20.164 -20.924  0.00  0.00    +0.252 C 
ATOM      4  H   UNL     1      35.894 -19.438 -21.252  0.00  0.00    +0.150 HD
ENDROOT
BRANCH   3   6
ATOM      5  S   UNL     1      33.323 -21.681 -18.781  0.00  0.00    -0.080 S 
ATOM      6  C   UNL     1      34.478 -20.972 -19.795  0.00  0.00    +0.083 C 
ATOM      7  C   UNL     1      35.760 -21.227 -19.454  0.00  0.00    +0.012 C 
ATOM      8  C   UNL     1      34.563 -22.373 -17.825  0.00  0.00    +0.060 C 
ATOM      9  C   UNL     1      35.817 -22.052 -18.294  0.00  0.00    +0.010 C 
BRANCH   8  13
ATOM     10  N   UNL     1      35.212 -23.882 -16.147  0.00  0.00    -0.337 NA
ATOM     11  N   UNL     1      33.654 -24.749 -14.524  0.00  0.00    -0.170 NA
ATOM     12  N   UNL     1      35.912 -25.388 -14.489  0.00  0.00    -0.266 N 
ATOM     13  C   UNL     1      34.197 -23.180 -16.685  0.00  0.00    +0.152 C 
ATOM     14  C   UNL     1      32.902 -23.207 -16.212  0.00  0.00    +0.055 C 
ATOM     15  C   UNL     1      34.875 -24.636 -15.083  0.00  0.00    +0.145 C 
ATOM     16  C   UNL     1      32.688 -24.017 -15.117  0.00  0.00    +0.114 C 
ATOM     17  C   UNL     1      37.292 -25.387 -14.962  0.00  0.00    +0.120 C 
ATOM     18  H   UNL     1      35.690 -25.948 -13.709  0.00  0.00    +0.159 HD
ENDBRANCH   8  13
ENDBRANCH   3   6
BRANCH   2  19
ATOM     19  C   UNL     1      34.651 -18.589 -22.730  0.00  0.00    +0.055 C 
BRANCH  19  20
ATOM     20  C   UNL     1      35.401 -17.245 -22.663  0.00  0.00    +0.045 C 
BRANCH  20  23
ATOM     21 CL   UNL     1      33.974 -15.678 -24.900  0.00  0.00    -0.083 Cl
ATOM     22 CL   UNL     1      31.888 -12.691 -20.939  0.00  0.00    -0.082 Cl
ATOM     23  C   UNL     1      34.510 -16.093 -22.261  0.00  0.00    -0.010 C 
ATOM     24  C   UNL     1      33.837 -15.343 -23.212  0.00  0.00    +0.055 C 
ATOM     25  C   UNL     1      34.388 -15.813 -20.908  0.00  0.00    -0.003 C 
ATOM     26  C   UNL     1      33.023 -14.286 -22.802  0.00  0.00    +0.022 C 
ATOM     27  C   UNL     1      33.575 -14.756 -20.498  0.00  0.00    +0.011 C 
ATOM     28  C   UNL     1      32.892 -13.993 -21.445  0.00  0.00    +0.058 C 
ENDBRANCH  20  23
ENDBRANCH  19  20
BRANCH  19  29
ATOM     29  C   UNL     1      34.982 -19.379 -24.005  0.00  0.00    -0.066 C 
BRANCH  29  30
ATOM     30  N   UNL     1      34.134 -18.989 -25.126  0.00  0.00    +0.382 N 
ATOM     31  H   UNL     1      33.158 -18.986 -24.828  0.00  0.00    -0.089 HD
ATOM     32  H   UNL     1      34.253 -19.654 -25.891  0.00  0.00    -0.089 HD
ATOM     33  H   UNL     1      34.396 -18.056 -25.443  0.00  0.00    -0.089 HD
ENDBRANCH  29  30
ENDBRANCH  19  29
ENDBRANCH   2  19
TORSDOF 7
ENDMDL
MODEL 3
REMARK VINA RESULT:     -10.2      7.883     11.976
REMARK  Name = 16043304
REMARK  7 active torsions:
REMARK  status: ('A' for Active; 'I' for Inactive)
REMARK    1  A    between atoms: N_2  and  C_19
REMARK    2  A    between atoms: C_3  and  C_6
REMARK    3  A    between atoms: C_8  and  C_13
REMARK    4  A    between atoms: C_19  and  C_20
REMARK    5  A    between atoms: C_19  and  C_29
REMARK    6  A    between atoms: C_20  and  C_23
REMARK    7  A    between atoms: C_29  and  N_30
REMARK                            x       y       z     vdW  Elec       q    Type
REMARK                         _______ _______ _______ _____ _____    ______ ____
ROOT
ATOM      1  O   UNL     1      34.132 -12.100 -25.115  0.00  0.00    -0.270 OA
ATOM      2  N   UNL     1      33.209 -12.271 -23.020  0.00  0.00    -0.304 N 
ATOM      3  C   UNL     1      33.713 -11.549 -24.096  0.00  0.00    +0.252 C 
ATOM      4  H   UNL     1      32.887 -11.785 -22.227  0.00  0.00    +0.150 HD
ENDROOT
BRANCH   3   6
ATOM      5  S   UNL     1      32.214  -9.367 -23.513  0.00  0.00    -0.080 S 
ATOM      6  C   UNL     1      33.681 -10.088 -23.951  0.00  0.00    +0.083 C 
ATOM      7  C   UNL     1      34.703  -9.222 -24.130  0.00  0.00    +0.012 C 
ATOM      8  C   UNL     1      32.943  -7.819 -23.554  0.00  0.00    +0.060 C 
ATOM      9  C   UNL     1      34.275  -7.884 -23.897  0.00  0.00    +0.010 C 
BRANCH   8  13
ATOM     10  N   UNL     1      32.107  -5.724 -24.208  0.00  0.00    -0.337 NA
ATOM     11  N   UNL     1      30.659  -4.418 -22.792  0.00  0.00    -0.170 NA
ATOM     12  N   UNL     1      31.299  -3.636 -24.910  0.00  0.00    -0.266 N 
ATOM     13  C   UNL     1      32.139  -6.661 -23.241  0.00  0.00    +0.152 C 
ATOM     14  C   UNL     1      31.471  -6.555 -22.041  0.00  0.00    +0.055 C 
ATOM     15  C   UNL     1      31.358  -4.642 -23.921  0.00  0.00    +0.145 C 
ATOM     16  C   UNL     1      30.738  -5.399 -21.870  0.00  0.00    +0.114 C 
ATOM     17  C   UNL     1      31.993  -3.712 -26.191  0.00  0.00    +0.120 C 
ATOM     18  H   UNL     1      30.757  -2.834 -24.724  0.00  0.00    +0.159 HD
ENDBRANCH   8  13
ENDBRANCH   3   6
BRANCH   2  19
ATOM     19  C   UNL     1      33.146 -13.719 -23.028  0.00  0.00    +0.055 C 
BRANCH  19  20
ATOM     20  C   UNL     1      34.552 -14.329 -22.878  0.00  0.00    +0.045 C 
BRANCH  20  23
ATOM     21 CL   UNL     1      34.983 -16.513 -20.747  0.00  0.00    -0.083 Cl
ATOM     22 CL   UNL     1      34.818 -19.995 -24.848  0.00  0.00    -0.082 Cl
ATOM     23  C   UNL     1      34.623 -15.765 -23.343  0.00  0.00    -0.010 C 
ATOM     24  C   UNL     1      34.816 -16.800 -22.441  0.00  0.00    +0.055 C 
ATOM     25  C   UNL     1      34.489 -16.012 -24.701  0.00  0.00    -0.003 C 
ATOM     26  C   UNL     1      34.877 -18.114 -22.908  0.00  0.00    +0.022 C 
ATOM     27  C   UNL     1      34.551 -17.325 -25.168  0.00  0.00    +0.011 C 
ATOM     28  C   UNL     1      34.744 -18.376 -24.271  0.00  0.00    +0.058 C 
ENDBRANCH  20  23
ENDBRANCH  19  20
BRANCH  19  29
ATOM     29  C   UNL     1      32.190 -14.176 -21.916  0.00  0.00    -0.066 C 
BRANCH  29  30
ATOM     30  N   UNL     1      32.670 -13.797 -20.591  0.00  0.00    +0.382 N 
ATOM     31  H   UNL     1      33.606 -14.176 -20.449  0.00  0.00    -0.089 HD
ATOM     32  H   UNL     1      32.040 -14.172 -19.881  0.00  0.00    -0.089 HD
ATOM     33  H   UNL     1      32.699 -12.780 -20.518  0.00  0.00    -0.089 HD
ENDBRANCH  29  30
ENDBRANCH  19  29
ENDBRANCH   2  19
TORSDOF 7
ENDMDL
MODEL 4
REMARK VINA RESULT:     -10.0      8.736     14.787
REMARK  Name = 16043304
REMARK  7 active torsions:
REMARK  status: ('A' for Active; 'I' for Inactive)
REMARK    1  A    between atoms: N_2  and  C_19
REMARK    2  A    between atoms: C_3  and  C_6
REMARK    3  A    between atoms: C_8  and  C_13
REMARK    4  A    between atoms: C_19  and  C_20
REMARK    5  A    between atoms: C_19  and  C_29
REMARK    6  A    between atoms: C_20  and  C_23
REMARK    7  A    between atoms: C_29  and  N_30
REMARK                            x       y       z     vdW  Elec       q    Type
REMARK                         _______ _______ _______ _____ _____    ______ ____
ROOT
ATOM      1  O   UNL     1      33.317  -9.767 -24.141  0.00  0.00    -0.270 OA
ATOM      2  N   UNL     1      32.381  -9.625 -22.049  0.00  0.00    -0.304 N 
ATOM      3  C   UNL     1      32.876 -10.333 -23.140  0.00  0.00    +0.252 C 
ATOM      4  H   UNL     1      32.038 -10.123 -21.273  0.00  0.00    +0.150 HD
ENDROOT
BRANCH   3   6
ATOM      5  S   UNL     1      33.819 -12.694 -24.078  0.00  0.00    -0.080 S 
ATOM      6  C   UNL     1      32.870 -11.796 -23.003  0.00  0.00    +0.083 C 
ATOM      7  C   UNL     1      32.182 -12.534 -22.105  0.00  0.00    +0.012 C 
ATOM      8  C   UNL     1      33.311 -14.150 -23.334  0.00  0.00    +0.060 C 
ATOM      9  C   UNL     1      32.438 -13.922 -22.294  0.00  0.00    +0.010 C 
BRANCH   8  13
ATOM     10  N   UNL     1      34.369 -16.202 -22.904  0.00  0.00    -0.337 NA
ATOM     11  N   UNL     1      34.816 -17.809 -24.645  0.00  0.00    -0.170 NA
ATOM     12  N   UNL     1      35.429 -18.239 -22.421  0.00  0.00    -0.266 N 
ATOM     13  C   UNL     1      33.817 -15.405 -23.839  0.00  0.00    +0.152 C 
ATOM     14  C   UNL     1      33.727 -15.729 -25.175  0.00  0.00    +0.055 C 
ATOM     15  C   UNL     1      34.843 -17.374 -23.371  0.00  0.00    +0.145 C 
ATOM     16  C   UNL     1      34.248 -16.957 -25.524  0.00  0.00    +0.114 C 
ATOM     17  C   UNL     1      35.545 -17.931 -21.001  0.00  0.00    +0.120 C 
ATOM     18  H   UNL     1      35.783 -19.103 -22.738  0.00  0.00    +0.159 HD
ENDBRANCH   8  13
ENDBRANCH   3   6
BRANCH   2  19
ATOM     19  C   UNL     1      32.351  -8.177 -22.023  0.00  0.00    +0.055 C 
BRANCH  19  20
ATOM     20  C   UNL     1      31.126  -7.641 -22.788  0.00  0.00    +0.045 C 
BRANCH  20  23
ATOM     21 CL   UNL     1      30.074  -5.111 -21.377  0.00  0.00    -0.083 Cl
ATOM     22 CL   UNL     1      32.206  -2.396 -25.506  0.00  0.00    -0.082 Cl
ATOM     23  C   UNL     1      31.382  -6.305 -23.448  0.00  0.00    -0.010 C 
ATOM     24  C   UNL     1      30.938  -5.126 -22.871  0.00  0.00    +0.055 C 
ATOM     25  C   UNL     1      32.076  -6.301 -24.648  0.00  0.00    -0.003 C 
ATOM     26  C   UNL     1      31.193  -3.912 -23.510  0.00  0.00    +0.022 C 
ATOM     27  C   UNL     1      32.331  -5.087 -25.288  0.00  0.00    +0.011 C 
ATOM     28  C   UNL     1      31.890  -3.893 -24.718  0.00  0.00    +0.058 C 
ENDBRANCH  20  23
ENDBRANCH  19  20
BRANCH  19  29
ATOM     29  C   UNL     1      32.374  -7.711 -20.559  0.00  0.00    -0.066 C 
BRANCH  29  30
ATOM     30  N   UNL     1      32.690  -8.801 -19.643  0.00  0.00    +0.382 N 
ATOM     31  H   UNL     1      31.831  -9.281 -19.377  0.00  0.00    -0.089 HD
ATOM     32  H   UNL     1      33.140  -8.424 -18.808  0.00  0.00    -0.089 HD
ATOM     33  H   UNL     1      33.321  -9.459 -20.101  0.00  0.00    -0.089 HD
ENDBRANCH  29  30
ENDBRANCH  19  29
ENDBRANCH   2  19
TORSDOF 7
ENDMDL
MODEL 5
REMARK VINA RESULT:      -9.8      4.477     10.192
REMARK  Name = 16043304
REMARK  7 active torsions:
REMARK  status: ('A' for Active; 'I' for Inactive)
REMARK    1  A    between atoms: N_2  and  C_19
REMARK    2  A    between atoms: C_3  and  C_6
REMARK    3  A    between atoms: C_8  and  C_13
REMARK    4  A    between atoms: C_19  and  C_20
REMARK    5  A    between atoms: C_19  and  C_29
REMARK    6  A    between atoms: C_20  and  C_23
REMARK    7  A    between atoms: C_29  and  N_30
REMARK                            x       y       z     vdW  Elec       q    Type
REMARK                         _______ _______ _______ _____ _____    ______ ____
ROOT
ATOM      1  O   UNL     1      34.525 -19.258 -23.557  0.00  0.00    -0.270 OA
ATOM      2  N   UNL     1      34.680 -17.471 -22.123  0.00  0.00    -0.304 N 
ATOM      3  C   UNL     1      34.761 -18.826 -22.428  0.00  0.00    +0.252 C 
ATOM      4  H   UNL     1      34.878 -17.175 -21.205  0.00  0.00    +0.150 HD
ENDROOT
BRANCH   3   6
ATOM      5  S   UNL     1      33.973 -20.487 -20.436  0.00  0.00    -0.080 S 
ATOM      6  C   UNL     1      35.180 -19.701 -21.324  0.00  0.00    +0.083 C 
ATOM      7  C   UNL     1      36.441 -19.963 -20.917  0.00  0.00    +0.012 C 
ATOM      8  C   UNL     1      35.159 -21.227 -19.448  0.00  0.00    +0.060 C 
ATOM      9  C   UNL     1      36.436 -20.862 -19.812  0.00  0.00    +0.010 C 
BRANCH   8  13
ATOM     10  N   UNL     1      35.691 -22.415 -17.493  0.00  0.00    -0.337 NA
ATOM     11  N   UNL     1      34.072 -23.771 -16.332  0.00  0.00    -0.170 NA
ATOM     12  N   UNL     1      36.273 -23.582 -15.543  0.00  0.00    -0.266 N 
ATOM     13  C   UNL     1      34.732 -22.111 -18.389  0.00  0.00    +0.152 C 
ATOM     14  C   UNL     1      33.441 -22.588 -18.330  0.00  0.00    +0.055 C 
ATOM     15  C   UNL     1      35.297 -23.239 -16.503  0.00  0.00    +0.145 C 
ATOM     16  C   UNL     1      33.164 -23.422 -17.267  0.00  0.00    +0.114 C 
ATOM     17  C   UNL     1      37.650 -23.100 -15.573  0.00  0.00    +0.120 C 
ATOM     18  H   UNL     1      36.010 -24.184 -14.809  0.00  0.00    +0.159 HD
ENDBRANCH   8  13
ENDBRANCH   3   6
BRANCH   2  19
ATOM     19  C   UNL     1      34.311 -16.482 -23.115  0.00  0.00    +0.055 C 
BRANCH  19  20
ATOM     20  C   UNL     1      34.848 -15.091 -22.727  0.00  0.00    +0.045 C 
BRANCH  20  23
ATOM     21 CL   UNL     1      33.785 -13.092 -24.818  0.00  0.00    -0.083 Cl
ATOM     22 CL   UNL     1      30.514 -11.351 -20.915  0.00  0.00    -0.082 Cl
ATOM     23  C   UNL     1      33.756 -14.136 -22.301  0.00  0.00    -0.010 C 
ATOM     24  C   UNL     1      33.231 -13.210 -23.187  0.00  0.00    +0.055 C 
ATOM     25  C   UNL     1      33.300 -14.219 -20.995  0.00  0.00    -0.003 C 
ATOM     26  C   UNL     1      32.224 -12.344 -22.757  0.00  0.00    +0.022 C 
ATOM     27  C   UNL     1      32.294 -13.354 -20.564  0.00  0.00    +0.011 C 
ATOM     28  C   UNL     1      31.755 -12.417 -21.446  0.00  0.00    +0.058 C 
ENDBRANCH  20  23
ENDBRANCH  19  20
BRANCH  19  29
ATOM     29  C   UNL     1      34.826 -16.944 -24.487  0.00  0.00    -0.066 C 
BRANCH  29  30
ATOM     30  N   UNL     1      33.792 -16.870 -25.513  0.00  0.00    +0.382 N 
ATOM     31  H   UNL     1      33.278 -17.750 -25.541  0.00  0.00    -0.089 HD
ATOM     32  H   UNL     1      34.225 -16.701 -26.421  0.00  0.00    -0.089 HD
ATOM     33  H   UNL     1      33.150 -16.108 -25.295  0.00  0.00    -0.089 HD
ENDBRANCH  29  30
ENDBRANCH  19  29
ENDBRANCH   2  19
TORSDOF 7
ENDMDL
MODEL 6
REMARK VINA RESULT:      -9.8      0.735      1.689
REMARK  Name = 16043304
REMARK  7 active torsions:
REMARK  status: ('A' for Active; 'I' for Inactive)
REMARK    1  A    between atoms: N_2  and  C_19
REMARK    2  A    between atoms: C_3  and  C_6
REMARK    3  A    between atoms: C_8  and  C_13
REMARK    4  A    between atoms: C_19  and  C_20
REMARK    5  A    between atoms: C_19  and  C_29
REMARK    6  A    between atoms: C_20  and  C_23
REMARK    7  A    between atoms: C_29  and  N_30
REMARK                            x       y       z     vdW  Elec       q    Type
REMARK                         _______ _______ _______ _____ _____    ______ ____
ROOT
ATOM      1  O   UNL     1      34.163 -23.464 -19.622  0.00  0.00    -0.270 OA
ATOM      2  N   UNL     1      34.492 -22.400 -17.613  0.00  0.00    -0.304 N 
ATOM      3  C   UNL     1      34.561 -22.478 -19.000  0.00  0.00    +0.252 C 
ATOM      4  H   UNL     1      34.825 -21.591 -17.163  0.00  0.00    +0.150 HD
ENDROOT
BRANCH   3   6
ATOM      5  S   UNL     1      34.017 -20.139 -20.258  0.00  0.00    -0.080 S 
ATOM      6  C   UNL     1      35.109 -21.293 -19.676  0.00  0.00    +0.083 C 
ATOM      7  C   UNL     1      36.409 -21.002 -19.897  0.00  0.00    +0.012 C 
ATOM      8  C   UNL     1      35.312 -19.185 -20.843  0.00  0.00    +0.060 C 
ATOM      9  C   UNL     1      36.536 -19.761 -20.584  0.00  0.00    +0.010 C 
BRANCH   8  13
ATOM     10  N   UNL     1      34.805 -18.054 -22.838  0.00  0.00    -0.337 NA
ATOM     11  N   UNL     1      34.443 -15.672 -22.909  0.00  0.00    -0.170 NA
ATOM     12  N   UNL     1      34.299 -16.971 -24.857  0.00  0.00    -0.266 N 
ATOM     13  C   UNL     1      35.016 -17.941 -21.513  0.00  0.00    +0.152 C 
ATOM     14  C   UNL     1      34.961 -16.750 -20.820  0.00  0.00    +0.055 C 
ATOM     15  C   UNL     1      34.527 -16.895 -23.466  0.00  0.00    +0.145 C 
ATOM     16  C   UNL     1      34.667 -15.636 -21.578  0.00  0.00    +0.114 C 
ATOM     17  C   UNL     1      34.351 -18.211 -25.624  0.00  0.00    +0.120 C 
ATOM     18  H   UNL     1      34.094 -16.136 -25.339  0.00  0.00    +0.159 HD
ENDBRANCH   8  13
ENDBRANCH   3   6
BRANCH   2  19
ATOM     19  C   UNL     1      33.948 -23.477 -16.811  0.00  0.00    +0.055 C 
BRANCH  19  20
ATOM     20  C   UNL     1      34.482 -23.408 -15.367  0.00  0.00    +0.045 C 
BRANCH  20  23
ATOM     21 CL   UNL     1      36.984 -21.706 -15.948  0.00  0.00    -0.083 Cl
ATOM     22 CL   UNL     1      39.797 -26.121 -14.701  0.00  0.00    -0.082 Cl
ATOM     23  C   UNL     1      35.834 -24.063 -15.208  0.00  0.00    -0.010 C 
ATOM     24  C   UNL     1      37.003 -23.359 -15.453  0.00  0.00    +0.055 C 
ATOM     25  C   UNL     1      35.866 -25.391 -14.810  0.00  0.00    -0.003 C 
ATOM     26  C   UNL     1      38.233 -23.998 -15.296  0.00  0.00    +0.022 C 
ATOM     27  C   UNL     1      37.096 -26.030 -14.653  0.00  0.00    +0.011 C 
ATOM     28  C   UNL     1      38.280 -25.333 -14.895  0.00  0.00    +0.058 C 
ENDBRANCH  20  23
ENDBRANCH  19  20
BRANCH  19  29
ATOM     29  C   UNL     1      32.414 -23.407 -16.869  0.00  0.00    -0.066 C 
BRANCH  29  30
ATOM     30  N   UNL     1      31.804 -23.666 -15.569  0.00  0.00    +0.382 N 
ATOM     31  H   UNL     1      31.756 -22.797 -15.038  0.00  0.00    -0.089 HD
ATOM     32  H   UNL     1      32.368 -24.346 -15.058  0.00  0.00    -0.089 HD
ATOM     33  H   UNL     1      30.863 -24.037 -15.703  0.00  0.00    -0.089 HD
ENDBRANCH  29  30
ENDBRANCH  19  29
ENDBRANCH   2  19
TORSDOF 7
ENDMDL
MODEL 7
REMARK VINA RESULT:      -9.7      6.337     12.086
REMARK  Name = 16043304
REMARK  7 active torsions:
REMARK  status: ('A' for Active; 'I' for Inactive)
REMARK    1  A    between atoms: N_2  and  C_19
REMARK    2  A    between atoms: C_3  and  C_6
REMARK    3  A    between atoms: C_8  and  C_13
REMARK    4  A    between atoms: C_19  and  C_20
REMARK    5  A    between atoms: C_19  and  C_29
REMARK    6  A    between atoms: C_20  and  C_23
REMARK    7  A    between atoms: C_29  and  N_30
REMARK                            x       y       z     vdW  Elec       q    Type
REMARK                         _______ _______ _______ _____ _____    ______ ____
ROOT
ATOM      1  O   UNL     1      33.081 -14.053 -25.702  0.00  0.00    -0.270 OA
ATOM      2  N   UNL     1      33.353 -13.512 -23.487  0.00  0.00    -0.304 N 
ATOM      3  C   UNL     1      33.431 -14.383 -24.567  0.00  0.00    +0.252 C 
ATOM      4  H   UNL     1      33.644 -13.823 -22.599  0.00  0.00    +0.150 HD
ENDROOT
BRANCH   3   6
ATOM      5  S   UNL     1      34.442 -16.043 -22.678  0.00  0.00    -0.080 S 
ATOM      6  C   UNL     1      33.990 -15.710 -24.274  0.00  0.00    +0.083 C 
ATOM      7  C   UNL     1      34.194 -16.725 -25.142  0.00  0.00    +0.012 C 
ATOM      8  C   UNL     1      34.942 -17.617 -23.130  0.00  0.00    +0.060 C 
ATOM      9  C   UNL     1      34.755 -17.852 -24.474  0.00  0.00    +0.010 C 
BRANCH   8  13
ATOM     10  N   UNL     1      34.561 -19.260 -21.496  0.00  0.00    -0.337 NA
ATOM     11  N   UNL     1      36.348 -20.207 -20.185  0.00  0.00    -0.170 NA
ATOM     12  N   UNL     1      34.127 -20.901 -19.876  0.00  0.00    -0.266 N 
ATOM     13  C   UNL     1      35.479 -18.496 -22.119  0.00  0.00    +0.152 C 
ATOM     14  C   UNL     1      36.828 -18.525 -21.837  0.00  0.00    +0.055 C 
ATOM     15  C   UNL     1      35.058 -20.082 -20.552  0.00  0.00    +0.145 C 
ATOM     16  C   UNL     1      37.209 -19.411 -20.851  0.00  0.00    +0.114 C 
ATOM     17  C   UNL     1      32.694 -20.896 -20.144  0.00  0.00    +0.120 C 
ATOM     18  H   UNL     1      34.467 -21.511 -19.181  0.00  0.00    +0.159 HD
ENDBRANCH   8  13
ENDBRANCH   3   6
BRANCH   2  19
ATOM     19  C   UNL     1      32.853 -12.159 -23.626  0.00  0.00    +0.055 C 
BRANCH  19  20
ATOM     20  C   UNL     1      31.943 -11.786 -22.440  0.00  0.00    +0.045 C 
BRANCH  20  23
ATOM     21 CL   UNL     1      31.945 -10.916 -19.484  0.00  0.00    -0.083 Cl
ATOM     22 CL   UNL     1      31.945  -5.877 -21.375  0.00  0.00    -0.082 Cl
ATOM     23  C   UNL     1      31.944 -10.305 -22.140  0.00  0.00    -0.010 C 
ATOM     24  C   UNL     1      31.944  -9.840 -20.834  0.00  0.00    +0.055 C 
ATOM     25  C   UNL     1      31.944  -9.429 -23.214  0.00  0.00    -0.003 C 
ATOM     26  C   UNL     1      31.944  -8.465 -20.596  0.00  0.00    +0.022 C 
ATOM     27  C   UNL     1      31.943  -8.054 -22.977  0.00  0.00    +0.011 C 
ATOM     28  C   UNL     1      31.945  -7.572 -21.668  0.00  0.00    +0.058 C 
ENDBRANCH  20  23
ENDBRANCH  19  20
BRANCH  19  29
ATOM     29  C   UNL     1      34.049 -11.204 -23.765  0.00  0.00    -0.066 C 
BRANCH  29  30
ATOM     30  N   UNL     1      34.570 -11.176 -25.127  0.00  0.00    +0.382 N 
ATOM     31  H   UNL     1      35.360 -10.533 -25.175  0.00  0.00    -0.089 HD
ATOM     32  H   UNL     1      33.839 -10.863 -25.766  0.00  0.00    -0.089 HD
ATOM     33  H   UNL     1      34.877 -12.112 -25.394  0.00  0.00    -0.089 HD
ENDBRANCH  29  30
ENDBRANCH  19  29
ENDBRANCH   2  19
TORSDOF 7
ENDMDL
MODEL 8
REMARK VINA RESULT:      -9.7      7.475     13.156
REMARK  Name = 16043304
REMARK  7 active torsions:
REMARK  status: ('A' for Active; 'I' for Inactive)
REMARK    1  A    between atoms: N_2  and  C_19
REMARK    2  A    between atoms: C_3  and  C_6
REMARK    3  A    between atoms: C_8  and  C_13
REMARK    4  A    between atoms: C_19  and  C_20
REMARK    5  A    between atoms: C_19  and  C_29
REMARK    6  A    between atoms: C_20  and  C_23
REMARK    7  A    between atoms: C_29  and  N_30
REMARK                            x       y       z     vdW  Elec       q    Type
REMARK                         _______ _______ _______ _____ _____    ______ ____
ROOT
ATOM      1  O   UNL     1      31.713 -11.939 -22.908  0.00  0.00    -0.270 OA
ATOM      2  N   UNL     1      33.866 -12.023 -23.701  0.00  0.00    -0.304 N 
ATOM      3  C   UNL     1      32.801 -12.515 -22.955  0.00  0.00    +0.252 C 
ATOM      4  H   UNL     1      34.716 -12.520 -23.705  0.00  0.00    +0.150 HD
ENDROOT
BRANCH   3   6
ATOM      5  S   UNL     1      34.141 -14.871 -22.951  0.00  0.00    -0.080 S 
ATOM      6  C   UNL     1      33.047 -13.784 -22.256  0.00  0.00    +0.083 C 
ATOM      7  C   UNL     1      32.494 -14.203 -21.097  0.00  0.00    +0.012 C 
ATOM      8  C   UNL     1      33.890 -15.972 -21.664  0.00  0.00    +0.060 C 
ATOM      9  C   UNL     1      32.987 -15.492 -20.742  0.00  0.00    +0.010 C 
BRANCH   8  13
ATOM     10  N   UNL     1      33.958 -18.244 -21.074  0.00  0.00    -0.337 NA
ATOM     11  N   UNL     1      35.841 -19.654 -21.600  0.00  0.00    -0.170 NA
ATOM     12  N   UNL     1      33.975 -20.510 -20.463  0.00  0.00    -0.266 N 
ATOM     13  C   UNL     1      34.608 -17.225 -21.668  0.00  0.00    +0.152 C 
ATOM     14  C   UNL     1      35.856 -17.334 -22.241  0.00  0.00    +0.055 C 
ATOM     15  C   UNL     1      34.623 -19.415 -21.076  0.00  0.00    +0.145 C 
ATOM     16  C   UNL     1      36.431 -18.587 -22.178  0.00  0.00    +0.114 C 
ATOM     17  C   UNL     1      32.656 -20.432 -19.845  0.00  0.00    +0.120 C 
ATOM     18  H   UNL     1      34.442 -21.377 -20.451  0.00  0.00    +0.159 HD
ENDBRANCH   8  13
ENDBRANCH   3   6
BRANCH   2  19
ATOM     19  C   UNL     1      33.765 -10.799 -24.469  0.00  0.00    +0.055 C 
BRANCH  19  20
ATOM     20  C   UNL     1      34.484  -9.641 -23.752  0.00  0.00    +0.045 C 
BRANCH  20  23
ATOM     21 CL   UNL     1      34.638  -6.857 -25.065  0.00  0.00    -0.083 Cl
ATOM     22 CL   UNL     1      30.662  -5.485 -21.707  0.00  0.00    -0.082 Cl
ATOM     23  C   UNL     1      33.535  -8.574 -23.258  0.00  0.00    -0.010 C 
ATOM     24  C   UNL     1      33.547  -7.299 -23.802  0.00  0.00    +0.055 C 
ATOM     25  C   UNL     1      32.652  -8.913 -22.245  0.00  0.00    -0.003 C 
ATOM     26  C   UNL     1      32.656  -6.340 -23.320  0.00  0.00    +0.022 C 
ATOM     27  C   UNL     1      31.761  -7.954 -21.762  0.00  0.00    +0.011 C 
ATOM     28  C   UNL     1      31.762  -6.668 -22.301  0.00  0.00    +0.058 C 
ENDBRANCH  20  23
ENDBRANCH  19  20
BRANCH  19  29
ATOM     29  C   UNL     1      34.328 -11.053 -25.876  0.00  0.00    -0.066 C 
BRANCH  29  30
ATOM     30  N   UNL     1      35.597 -10.365 -26.090  0.00  0.00    +0.382 N 
ATOM     31  H   UNL     1      36.086 -10.270 -25.201  0.00  0.00    -0.089 HD
ATOM     32  H   UNL     1      35.420  -9.440 -26.482  0.00  0.00    -0.089 HD
ATOM     33  H   UNL     1      36.171 -10.905 -26.738  0.00  0.00    -0.089 HD
ENDBRANCH  29  30
ENDBRANCH  19  29
ENDBRANCH   2  19
TORSDOF 7
ENDMDL
MODEL 9
REMARK VINA RESULT:      -9.7      3.746      9.651
REMARK  Name = 16043304
REMARK  7 active torsions:
REMARK  status: ('A' for Active; 'I' for Inactive)
REMARK    1  A    between atoms: N_2  and  C_19
REMARK    2  A    between atoms: C_3  and  C_6
REMARK    3  A    between atoms: C_8  and  C_13
REMARK    4  A    between atoms: C_19  and  C_20
REMARK    5  A    between atoms: C_19  and  C_29
REMARK    6  A    between atoms: C_20  and  C_23
REMARK    7  A    between atoms: C_29  and  N_30
REMARK                            x       y       z     vdW  Elec       q    Type
REMARK                         _______ _______ _______ _____ _____    ______ ____
ROOT
ATOM      1  O   UNL     1      33.032 -22.460 -19.788  0.00  0.00    -0.270 OA
ATOM      2  N   UNL     1      34.912 -21.328 -19.112  0.00  0.00    -0.304 N 
ATOM      3  C   UNL     1      33.847 -22.196 -18.902  0.00  0.00    +0.252 C 
ATOM      4  H   UNL     1      35.535 -21.148 -18.371  0.00  0.00    +0.150 HD
ENDROOT
BRANCH   3   6
ATOM      5  S   UNL     1      35.218 -22.973 -16.696  0.00  0.00    -0.080 S 
ATOM      6  C   UNL     1      33.776 -22.804 -17.566  0.00  0.00    +0.083 C 
ATOM      7  C   UNL     1      32.676 -23.257 -16.927  0.00  0.00    +0.012 C 
ATOM      8  C   UNL     1      34.368 -23.686 -15.393  0.00  0.00    +0.060 C 
ATOM      9  C   UNL     1      33.017 -23.778 -15.646  0.00  0.00    +0.010 C 
BRANCH   8  13
ATOM     10  N   UNL     1      36.388 -24.431 -14.455  0.00  0.00    -0.337 NA
ATOM     11  N   UNL     1      36.619 -24.894 -12.101  0.00  0.00    -0.170 NA
ATOM     12  N   UNL     1      38.429 -25.173 -13.568  0.00  0.00    -0.266 N 
ATOM     13  C   UNL     1      35.104 -24.098 -14.221  0.00  0.00    +0.152 C 
ATOM     14  C   UNL     1      34.510 -24.135 -12.978  0.00  0.00    +0.055 C 
ATOM     15  C   UNL     1      37.078 -24.815 -13.364  0.00  0.00    +0.145 C 
ATOM     16  C   UNL     1      35.325 -24.544 -11.943  0.00  0.00    +0.114 C 
ATOM     17  C   UNL     1      39.091 -25.149 -14.867  0.00  0.00    +0.120 C 
ATOM     18  H   UNL     1      38.956 -25.458 -12.785  0.00  0.00    +0.159 HD
ENDBRANCH   8  13
ENDBRANCH   3   6
BRANCH   2  19
ATOM     19  C   UNL     1      35.132 -20.676 -20.387  0.00  0.00    +0.055 C 
BRANCH  19  20
ATOM     20  C   UNL     1      34.197 -19.462 -20.550  0.00  0.00    +0.045 C 
BRANCH  20  23
ATOM     21 CL   UNL     1      34.673 -16.421 -20.396  0.00  0.00    -0.083 Cl
ATOM     22 CL   UNL     1      35.077 -16.608 -25.759  0.00  0.00    -0.082 Cl
ATOM     23  C   UNL     1      34.422 -18.716 -21.845  0.00  0.00    -0.010 C 
ATOM     24  C   UNL     1      34.641 -17.347 -21.852  0.00  0.00    +0.055 C 
ATOM     25  C   UNL     1      34.401 -19.446 -23.023  0.00  0.00    -0.003 C 
ATOM     26  C   UNL     1      34.844 -16.692 -23.067  0.00  0.00    +0.022 C 
ATOM     27  C   UNL     1      34.603 -18.792 -24.238  0.00  0.00    +0.011 C 
ATOM     28  C   UNL     1      34.826 -17.415 -24.260  0.00  0.00    +0.058 C 
ENDBRANCH  20  23
ENDBRANCH  19  20
BRANCH  19  29
ATOM     29  C   UNL     1      36.615 -20.288 -20.492  0.00  0.00    -0.066 C 
BRANCH  29  30
ATOM     30  N   UNL     1      37.196 -19.986 -19.189  0.00  0.00    +0.382 N 
ATOM     31  H   UNL     1      36.604 -19.315 -18.701  0.00  0.00    -0.089 HD
ATOM     32  H   UNL     1      38.127 -19.590 -19.315  0.00  0.00    -0.089 HD
ATOM     33  H   UNL     1      37.263 -20.843 -18.640  0.00  0.00    -0.089 HD
ENDBRANCH  29  30
ENDBRANCH  19  29
ENDBRANCH   2  19
TORSDOF 7
ENDMDL
