MODEL 1
REMARK VINA RESULT:      -8.9      0.000      0.000
REMARK  Name = 10220503
REMARK  4 active torsions:
REMARK  status: ('A' for Active; 'I' for Inactive)
REMARK    1  A    between atoms: C_1  and  C_5
REMARK    2  A    between atoms: C_2  and  C_13
REMARK    3  A    between atoms: C_13  and  N_15
REMARK    4  A    between atoms: C_16  and  C_18
REMARK                            x       y       z     vdW  Elec       q    Type
REMARK                         _______ _______ _______ _____ _____    ______ ____
ROOT
ATOM      1  C   UNL     1      35.266 -17.687 -21.509  0.00  0.00    +0.024 C 
ATOM      2  C   UNL     1      34.459 -16.732 -22.334  0.00  0.00    +0.024 C 
ATOM      3  C   UNL     1      34.894 -16.349 -20.949  0.00  0.00    +0.006 C 
ENDROOT
BRANCH   1   5
ATOM      4  O   UNL     1      35.603 -21.977 -19.367  0.00  0.00    -0.475 OA
ATOM      5  C   UNL     1      34.612 -18.910 -20.968  0.00  0.00    -0.023 C 
ATOM      6  C   UNL     1      35.351 -19.938 -20.412  0.00  0.00    +0.012 C 
ATOM      7  C   UNL     1      33.221 -19.043 -21.005  0.00  0.00    -0.004 C 
ATOM      8  C   UNL     1      36.809 -20.038 -20.187  0.00  0.00    +0.076 C 
ATOM      9  C   UNL     1      34.727 -21.064 -19.896  0.00  0.00    +0.134 C 
ATOM     10  C   UNL     1      36.896 -21.524 -19.834  0.00  0.00    +0.210 C 
ATOM     11  C   UNL     1      32.596 -20.184 -20.477  0.00  0.00    +0.003 C 
ATOM     12  C   UNL     1      33.354 -21.211 -19.909  0.00  0.00    +0.037 C 
ENDBRANCH   1   5
BRANCH   2  13
ATOM     13  C   UNL     1      35.094 -16.069 -23.500  0.00  0.00    +0.090 C 
BRANCH  13  15
ATOM     14  O   UNL     1      33.891 -16.441 -26.106  0.00  0.00    -0.275 OA
ATOM     15  N   UNL     1      34.174 -15.187 -24.168  0.00  0.00    -0.304 N 
ATOM     16  C   UNL     1      33.643 -15.448 -25.426  0.00  0.00    +0.222 C 
ATOM     17  H   UNL     1      33.905 -14.358 -23.711  0.00  0.00    +0.149 HD
BRANCH  16  18
ATOM     18  C   UNL     1      32.700 -14.348 -25.879  0.00  0.00    +0.085 C 
ATOM     19  C   UNL     1      33.262 -13.534 -27.030  0.00  0.00    +0.010 C 
ENDBRANCH  16  18
ENDBRANCH  13  15
ENDBRANCH   2  13
TORSDOF 4
ENDMDL
MODEL 2
REMARK VINA RESULT:      -8.9      2.696      7.580
REMARK  Name = 10220503
REMARK  4 active torsions:
REMARK  status: ('A' for Active; 'I' for Inactive)
REMARK    1  A    between atoms: C_1  and  C_5
REMARK    2  A    between atoms: C_2  and  C_13
REMARK    3  A    between atoms: C_13  and  N_15
REMARK    4  A    between atoms: C_16  and  C_18
REMARK                            x       y       z     vdW  Elec       q    Type
REMARK                         _______ _______ _______ _____ _____    ______ ____
ROOT
ATOM      1  C   UNL     1      34.647 -19.559 -21.635  0.00  0.00    +0.024 C 
ATOM      2  C   UNL     1      34.950 -20.011 -20.239  0.00  0.00    +0.024 C 
ATOM      3  C   UNL     1      33.558 -20.141 -20.786  0.00  0.00    +0.006 C 
ENDROOT
BRANCH   1   5
ATOM      4  O   UNL     1      34.430 -15.986 -24.843  0.00  0.00    -0.475 OA
ATOM      5  C   UNL     1      34.633 -18.102 -21.938  0.00  0.00    -0.023 C 
ATOM      6  C   UNL     1      34.555 -17.636 -23.239  0.00  0.00    +0.012 C 
ATOM      7  C   UNL     1      34.692 -17.163 -20.905  0.00  0.00    -0.004 C 
ATOM      8  C   UNL     1      34.421 -18.388 -24.504  0.00  0.00    +0.076 C 
ATOM      9  C   UNL     1      34.526 -16.275 -23.506  0.00  0.00    +0.134 C 
ATOM     10  C   UNL     1      34.701 -17.252 -25.490  0.00  0.00    +0.210 C 
ATOM     11  C   UNL     1      34.658 -15.788 -21.183  0.00  0.00    +0.003 C 
ATOM     12  C   UNL     1      34.569 -15.331 -22.500  0.00  0.00    +0.037 C 
ENDBRANCH   1   5
BRANCH   2  13
ATOM     13  C   UNL     1      35.764 -21.236 -20.037  0.00  0.00    +0.090 C 
BRANCH  13  15
ATOM     14  O   UNL     1      35.323 -22.751 -17.611  0.00  0.00    -0.275 OA
ATOM     15  N   UNL     1      36.523 -21.166 -18.816  0.00  0.00    -0.304 N 
ATOM     16  C   UNL     1      36.238 -21.936 -17.695  0.00  0.00    +0.222 C 
ATOM     17  H   UNL     1      37.283 -20.542 -18.773  0.00  0.00    +0.149 HD
BRANCH  16  18
ATOM     18  C   UNL     1      37.204 -21.655 -16.558  0.00  0.00    +0.085 C 
ATOM     19  C   UNL     1      37.554 -22.901 -15.766  0.00  0.00    +0.010 C 
ENDBRANCH  16  18
ENDBRANCH  13  15
ENDBRANCH   2  13
TORSDOF 4
ENDMDL
MODEL 3
REMARK VINA RESULT:      -8.8      1.935      3.214
REMARK  Name = 10220503
REMARK  4 active torsions:
REMARK  status: ('A' for Active; 'I' for Inactive)
REMARK    1  A    between atoms: C_1  and  C_5
REMARK    2  A    between atoms: C_2  and  C_13
REMARK    3  A    between atoms: C_13  and  N_15
REMARK    4  A    between atoms: C_16  and  C_18
REMARK                            x       y       z     vdW  Elec       q    Type
REMARK                         _______ _______ _______ _____ _____    ______ ____
ROOT
ATOM      1  C   UNL     1      34.525 -18.236 -22.361  0.00  0.00    +0.024 C 
ATOM      2  C   UNL     1      35.405 -17.401 -23.241  0.00  0.00    +0.024 C 
ATOM      3  C   UNL     1      34.627 -18.545 -23.824  0.00  0.00    +0.006 C 
ENDROOT
BRANCH   1   5
ATOM      4  O   UNL     1      34.102 -21.762 -19.123  0.00  0.00    -0.475 OA
ATOM      5  C   UNL     1      35.151 -19.159 -21.376  0.00  0.00    -0.023 C 
ATOM      6  C   UNL     1      34.393 -20.059 -20.649  0.00  0.00    +0.012 C 
ATOM      7  C   UNL     1      36.532 -19.140 -21.168  0.00  0.00    -0.004 C 
ATOM      8  C   UNL     1      32.943 -20.337 -20.708  0.00  0.00    +0.076 C 
ATOM      9  C   UNL     1      34.992 -20.925 -19.746  0.00  0.00    +0.134 C 
ATOM     10  C   UNL     1      32.811 -21.194 -19.448  0.00  0.00    +0.210 C 
ATOM     11  C   UNL     1      37.132 -20.023 -20.255  0.00  0.00    +0.003 C 
ATOM     12  C   UNL     1      36.357 -20.934 -19.534  0.00  0.00    +0.037 C 
ENDBRANCH   1   5
BRANCH   2  13
ATOM     13  C   UNL     1      34.995 -16.011 -23.563  0.00  0.00    +0.090 C 
BRANCH  13  15
ATOM     14  O   UNL     1      32.788 -14.152 -23.787  0.00  0.00    -0.275 OA
ATOM     15  N   UNL     1      34.237 -15.425 -22.489  0.00  0.00    -0.304 N 
ATOM     16  C   UNL     1      33.187 -14.537 -22.691  0.00  0.00    +0.222 C 
ATOM     17  H   UNL     1      34.474 -15.666 -21.564  0.00  0.00    +0.149 HD
BRANCH  16  18
ATOM     18  C   UNL     1      32.572 -14.085 -21.379  0.00  0.00    +0.085 C 
ATOM     19  C   UNL     1      32.661 -15.144 -20.296  0.00  0.00    +0.010 C 
ENDBRANCH  16  18
ENDBRANCH  13  15
ENDBRANCH   2  13
TORSDOF 4
ENDMDL
MODEL 4
REMARK VINA RESULT:      -8.8      4.026      6.166
REMARK  Name = 10220503
REMARK  4 active torsions:
REMARK  status: ('A' for Active; 'I' for Inactive)
REMARK    1  A    between atoms: C_1  and  C_5
REMARK    2  A    between atoms: C_2  and  C_13
REMARK    3  A    between atoms: C_13  and  N_15
REMARK    4  A    between atoms: C_16  and  C_18
REMARK                            x       y       z     vdW  Elec       q    Type
REMARK                         _______ _______ _______ _____ _____    ______ ____
ROOT
ATOM      1  C   UNL     1      34.212 -14.732 -21.843  0.00  0.00    +0.024 C 
ATOM      2  C   UNL     1      33.047 -14.899 -20.916  0.00  0.00    +0.024 C 
ATOM      3  C   UNL     1      34.428 -15.278 -20.464  0.00  0.00    +0.006 C 
ENDROOT
BRANCH   1   5
ATOM      4  O   UNL     1      33.522 -15.608 -26.518  0.00  0.00    -0.475 OA
ATOM      5  C   UNL     1      34.343 -15.641 -23.014  0.00  0.00    -0.023 C 
ATOM      6  C   UNL     1      33.877 -15.278 -24.265  0.00  0.00    +0.012 C 
ATOM      7  C   UNL     1      34.951 -16.892 -22.875  0.00  0.00    -0.004 C 
ATOM      8  C   UNL     1      33.258 -14.012 -24.711  0.00  0.00    +0.076 C 
ATOM      9  C   UNL     1      34.021 -16.128 -25.351  0.00  0.00    +0.134 C 
ATOM     10  C   UNL     1      32.753 -14.461 -26.083  0.00  0.00    +0.210 C 
ATOM     11  C   UNL     1      35.096 -17.745 -23.980  0.00  0.00    +0.003 C 
ATOM     12  C   UNL     1      34.630 -17.362 -25.240  0.00  0.00    +0.037 C 
ENDBRANCH   1   5
BRANCH   2  13
ATOM     13  C   UNL     1      32.404 -13.692 -20.339  0.00  0.00    +0.090 C 
BRANCH  13  15
ATOM     14  O   UNL     1      30.974 -11.195 -20.026  0.00  0.00    -0.275 OA
ATOM     15  N   UNL     1      32.169 -12.691 -21.346  0.00  0.00    -0.304 N 
ATOM     16  C   UNL     1      31.468 -11.515 -21.104  0.00  0.00    +0.222 C 
ATOM     17  H   UNL     1      32.522 -12.846 -22.252  0.00  0.00    +0.149 HD
BRANCH  16  18
ATOM     18  C   UNL     1      31.377 -10.648 -22.347  0.00  0.00    +0.085 C 
ATOM     19  C   UNL     1      32.681 -10.600 -23.123  0.00  0.00    +0.010 C 
ENDBRANCH  16  18
ENDBRANCH  13  15
ENDBRANCH   2  13
TORSDOF 4
ENDMDL
MODEL 5
REMARK VINA RESULT:      -8.7      2.689      6.389
REMARK  Name = 10220503
REMARK  4 active torsions:
REMARK  status: ('A' for Active; 'I' for Inactive)
REMARK    1  A    between atoms: C_1  and  C_5
REMARK    2  A    between atoms: C_2  and  C_13
REMARK    3  A    between atoms: C_13  and  N_15
REMARK    4  A    between atoms: C_16  and  C_18
REMARK                            x       y       z     vdW  Elec       q    Type
REMARK                         _______ _______ _______ _____ _____    ______ ____
ROOT
ATOM      1  C   UNL     1      35.018 -16.183 -23.898  0.00  0.00    +0.024 C 
ATOM      2  C   UNL     1      34.503 -17.589 -23.969  0.00  0.00    +0.024 C 
ATOM      3  C   UNL     1      34.844 -16.847 -25.230  0.00  0.00    +0.006 C 
ENDROOT
BRANCH   1   5
ATOM      4  O   UNL     1      32.400 -13.973 -20.527  0.00  0.00    -0.475 OA
ATOM      5  C   UNL     1      34.088 -15.090 -23.503  0.00  0.00    -0.023 C 
ATOM      6  C   UNL     1      33.613 -14.980 -22.208  0.00  0.00    +0.012 C 
ATOM      7  C   UNL     1      33.676 -14.138 -24.439  0.00  0.00    -0.004 C 
ATOM      8  C   UNL     1      33.926 -15.795 -21.015  0.00  0.00    +0.076 C 
ATOM      9  C   UNL     1      32.761 -13.946 -21.850  0.00  0.00    +0.134 C 
ATOM     10  C   UNL     1      32.831 -15.281 -20.079  0.00  0.00    +0.210 C 
ATOM     11  C   UNL     1      32.816 -13.093 -24.068  0.00  0.00    +0.003 C 
ATOM     12  C   UNL     1      32.352 -12.987 -22.754  0.00  0.00    +0.037 C 
ENDBRANCH   1   5
BRANCH   2  13
ATOM     13  C   UNL     1      35.380 -18.702 -23.528  0.00  0.00    +0.090 C 
BRANCH  13  15
ATOM     14  O   UNL     1      36.004 -18.697 -20.701  0.00  0.00    -0.275 OA
ATOM     15  N   UNL     1      34.752 -19.485 -22.496  0.00  0.00    -0.304 N 
ATOM     16  C   UNL     1      35.119 -19.417 -21.156  0.00  0.00    +0.222 C 
ATOM     17  H   UNL     1      34.027 -20.100 -22.751  0.00  0.00    +0.149 HD
BRANCH  16  18
ATOM     18  C   UNL     1      34.286 -20.351 -20.297  0.00  0.00    +0.085 C 
ATOM     19  C   UNL     1      32.795 -20.131 -20.470  0.00  0.00    +0.010 C 
ENDBRANCH  16  18
ENDBRANCH  13  15
ENDBRANCH   2  13
TORSDOF 4
ENDMDL
MODEL 6
REMARK VINA RESULT:      -8.7      2.300      7.018
REMARK  Name = 10220503
REMARK  4 active torsions:
REMARK  status: ('A' for Active; 'I' for Inactive)
REMARK    1  A    between atoms: C_1  and  C_5
REMARK    2  A    between atoms: C_2  and  C_13
REMARK    3  A    between atoms: C_13  and  N_15
REMARK    4  A    between atoms: C_16  and  C_18
REMARK                            x       y       z     vdW  Elec       q    Type
REMARK                         _______ _______ _______ _____ _____    ______ ____
ROOT
ATOM      1  C   UNL     1      35.434 -17.706 -23.368  0.00  0.00    +0.024 C 
ATOM      2  C   UNL     1      34.847 -18.599 -22.318  0.00  0.00    +0.024 C 
ATOM      3  C   UNL     1      35.068 -19.118 -23.710  0.00  0.00    +0.006 C 
ENDROOT
BRANCH   1   5
ATOM      4  O   UNL     1      33.085 -13.567 -22.692  0.00  0.00    -0.475 OA
ATOM      5  C   UNL     1      34.614 -16.589 -23.911  0.00  0.00    -0.023 C 
ATOM      6  C   UNL     1      34.174 -15.557 -23.102  0.00  0.00    +0.012 C 
ATOM      7  C   UNL     1      34.273 -16.556 -25.266  0.00  0.00    -0.004 C 
ATOM      8  C   UNL     1      34.432 -15.306 -21.668  0.00  0.00    +0.076 C 
ATOM      9  C   UNL     1      33.424 -14.514 -23.625  0.00  0.00    +0.134 C 
ATOM     10  C   UNL     1      33.405 -14.198 -21.429  0.00  0.00    +0.210 C 
ATOM     11  C   UNL     1      33.517 -15.494 -25.788  0.00  0.00    +0.003 C 
ATOM     12  C   UNL     1      33.087 -14.453 -24.963  0.00  0.00    +0.037 C 
ENDBRANCH   1   5
BRANCH   2  13
ATOM     13  C   UNL     1      35.715 -19.089 -21.219  0.00  0.00    +0.090 C 
BRANCH  13  15
ATOM     14  O   UNL     1      36.880 -21.398 -19.918  0.00  0.00    -0.275 OA
ATOM     15  N   UNL     1      35.037 -20.069 -20.412  0.00  0.00    -0.304 N 
ATOM     16  C   UNL     1      35.681 -21.152 -19.823  0.00  0.00    +0.222 C 
ATOM     17  H   UNL     1      34.068 -19.968 -20.269  0.00  0.00    +0.149 HD
BRANCH  16  18
ATOM     18  C   UNL     1      34.718 -22.015 -19.029  0.00  0.00    +0.085 C 
ATOM     19  C   UNL     1      33.266 -21.641 -19.264  0.00  0.00    +0.010 C 
ENDBRANCH  16  18
ENDBRANCH  13  15
ENDBRANCH   2  13
TORSDOF 4
ENDMDL
MODEL 7
REMARK VINA RESULT:      -8.5      4.403      8.189
REMARK  Name = 10220503
REMARK  4 active torsions:
REMARK  status: ('A' for Active; 'I' for Inactive)
REMARK    1  A    between atoms: C_1  and  C_5
REMARK    2  A    between atoms: C_2  and  C_13
REMARK    3  A    between atoms: C_13  and  N_15
REMARK    4  A    between atoms: C_16  and  C_18
REMARK                            x       y       z     vdW  Elec       q    Type
REMARK                         _______ _______ _______ _____ _____    ______ ____
ROOT
ATOM      1  C   UNL     1      34.454 -22.400 -18.700  0.00  0.00    +0.024 C 
ATOM      2  C   UNL     1      33.337 -22.907 -17.839  0.00  0.00    +0.024 C 
ATOM      3  C   UNL     1      33.800 -23.710 -19.020  0.00  0.00    +0.006 C 
ENDROOT
BRANCH   1   5
ATOM      4  O   UNL     1      36.164 -18.869 -21.477  0.00  0.00    -0.475 OA
ATOM      5  C   UNL     1      34.211 -21.230 -19.587  0.00  0.00    -0.023 C 
ATOM      6  C   UNL     1      35.259 -20.523 -20.151  0.00  0.00    +0.012 C 
ATOM      7  C   UNL     1      32.908 -20.820 -19.878  0.00  0.00    -0.004 C 
ATOM      8  C   UNL     1      36.714 -20.767 -20.069  0.00  0.00    +0.076 C 
ATOM      9  C   UNL     1      35.018 -19.445 -20.990  0.00  0.00    +0.134 C 
ATOM     10  C   UNL     1      37.213 -19.449 -20.664  0.00  0.00    +0.210 C 
ATOM     11  C   UNL     1      32.673 -19.730 -20.731  0.00  0.00    +0.003 C 
ATOM     12  C   UNL     1      33.738 -19.031 -21.302  0.00  0.00    +0.037 C 
ENDBRANCH   1   5
BRANCH   2  13
ATOM     13  C   UNL     1      33.642 -23.393 -16.471  0.00  0.00    +0.090 C 
BRANCH  13  15
ATOM     14  O   UNL     1      35.799 -25.054 -15.488  0.00  0.00    -0.275 OA
ATOM     15  N   UNL     1      34.947 -22.962 -16.040  0.00  0.00    -0.304 N 
ATOM     16  C   UNL     1      35.926 -23.836 -15.581  0.00  0.00    +0.222 C 
ATOM     17  H   UNL     1      35.157 -22.001 -16.074  0.00  0.00    +0.149 HD
BRANCH  16  18
ATOM     18  C   UNL     1      37.199 -23.103 -15.200  0.00  0.00    +0.085 C 
ATOM     19  C   UNL     1      37.553 -21.997 -16.176  0.00  0.00    +0.010 C 
ENDBRANCH  16  18
ENDBRANCH  13  15
ENDBRANCH   2  13
TORSDOF 4
ENDMDL
MODEL 8
REMARK VINA RESULT:      -8.5      3.089      5.019
REMARK  Name = 10220503
REMARK  4 active torsions:
REMARK  status: ('A' for Active; 'I' for Inactive)
REMARK    1  A    between atoms: C_1  and  C_5
REMARK    2  A    between atoms: C_2  and  C_13
REMARK    3  A    between atoms: C_13  and  N_15
REMARK    4  A    between atoms: C_16  and  C_18
REMARK                            x       y       z     vdW  Elec       q    Type
REMARK                         _______ _______ _______ _____ _____    ______ ____
ROOT
ATOM      1  C   UNL     1      33.913 -14.787 -21.540  0.00  0.00    +0.024 C 
ATOM      2  C   UNL     1      32.465 -14.437 -21.701  0.00  0.00    +0.024 C 
ATOM      3  C   UNL     1      32.987 -14.885 -20.367  0.00  0.00    +0.006 C 
ENDROOT
BRANCH   1   5
ATOM      4  O   UNL     1      34.716 -17.443 -25.465  0.00  0.00    -0.475 OA
ATOM      5  C   UNL     1      34.430 -16.035 -22.165  0.00  0.00    -0.023 C 
ATOM      6  C   UNL     1      34.354 -16.244 -23.531  0.00  0.00    +0.012 C 
ATOM      7  C   UNL     1      35.016 -17.030 -21.378  0.00  0.00    -0.004 C 
ATOM      8  C   UNL     1      33.850 -15.351 -24.595  0.00  0.00    +0.076 C 
ATOM      9  C   UNL     1      34.855 -17.404 -24.101  0.00  0.00    +0.134 C 
ATOM     10  C   UNL     1      33.807 -16.353 -25.750  0.00  0.00    +0.210 C 
ATOM     11  C   UNL     1      35.524 -18.201 -21.964  0.00  0.00    +0.003 C 
ATOM     12  C   UNL     1      35.450 -18.395 -23.345  0.00  0.00    +0.037 C 
ENDBRANCH   1   5
BRANCH   2  13
ATOM     13  C   UNL     1      32.082 -13.015 -21.886  0.00  0.00    +0.090 C 
BRANCH  13  15
ATOM     14  O   UNL     1      32.052 -10.223 -22.650  0.00  0.00    -0.275 OA
ATOM     15  N   UNL     1      32.909 -12.373 -22.874  0.00  0.00    -0.304 N 
ATOM     16  C   UNL     1      32.825 -11.019 -23.177  0.00  0.00    +0.222 C 
ATOM     17  H   UNL     1      33.567 -12.921 -23.360  0.00  0.00    +0.149 HD
BRANCH  16  18
ATOM     18  C   UNL     1      33.818 -10.621 -24.254  0.00  0.00    +0.085 C 
ATOM     19  C   UNL     1      33.900 -11.637 -25.378  0.00  0.00    +0.010 C 
ENDBRANCH  16  18
ENDBRANCH  13  15
ENDBRANCH   2  13
TORSDOF 4
ENDMDL
MODEL 9
REMARK VINA RESULT:      -8.5      3.367      4.789
REMARK  Name = 10220503
REMARK  4 active torsions:
REMARK  status: ('A' for Active; 'I' for Inactive)
REMARK    1  A    between atoms: C_1  and  C_5
REMARK    2  A    between atoms: C_2  and  C_13
REMARK    3  A    between atoms: C_13  and  N_15
REMARK    4  A    between atoms: C_16  and  C_18
REMARK                            x       y       z     vdW  Elec       q    Type
REMARK                         _______ _______ _______ _____ _____    ______ ____
ROOT
ATOM      1  C   UNL     1      33.746 -14.257 -22.495  0.00  0.00    +0.024 C 
ATOM      2  C   UNL     1      32.497 -13.529 -22.887  0.00  0.00    +0.024 C 
ATOM      3  C   UNL     1      32.556 -14.274 -21.585  0.00  0.00    +0.006 C 
ENDROOT
BRANCH   1   5
ATOM      4  O   UNL     1      35.430 -18.759 -22.445  0.00  0.00    -0.475 OA
ATOM      5  C   UNL     1      34.121 -15.499 -23.226  0.00  0.00    -0.023 C 
ATOM      6  C   UNL     1      34.629 -16.601 -22.562  0.00  0.00    +0.012 C 
ATOM      7  C   UNL     1      33.960 -15.580 -24.612  0.00  0.00    -0.004 C 
ATOM      8  C   UNL     1      34.844 -16.816 -21.116  0.00  0.00    +0.076 C 
ATOM      9  C   UNL     1      34.958 -17.757 -23.254  0.00  0.00    +0.134 C 
ATOM     10  C   UNL     1      35.682 -18.094 -21.184  0.00  0.00    +0.210 C 
ATOM     11  C   UNL     1      34.293 -16.755 -25.304  0.00  0.00    +0.003 C 
ATOM     12  C   UNL     1      34.795 -17.865 -24.621  0.00  0.00    +0.037 C 
ENDBRANCH   1   5
BRANCH   2  13
ATOM     13  C   UNL     1      32.490 -12.045 -22.870  0.00  0.00    +0.090 C 
BRANCH  13  15
ATOM     14  O   UNL     1      33.212  -9.259 -23.176  0.00  0.00    -0.275 OA
ATOM     15  N   UNL     1      33.571 -11.506 -23.653  0.00  0.00    -0.304 N 
ATOM     16  C   UNL     1      33.846 -10.146 -23.742  0.00  0.00    +0.222 C 
ATOM     17  H   UNL     1      34.146 -12.132 -24.150  0.00  0.00    +0.149 HD
BRANCH  16  18
ATOM     18  C   UNL     1      35.043  -9.871 -24.634  0.00  0.00    +0.085 C 
ATOM     19  C   UNL     1      35.066 -10.751 -25.869  0.00  0.00    +0.010 C 
ENDBRANCH  16  18
ENDBRANCH  13  15
ENDBRANCH   2  13
TORSDOF 4
ENDMDL
