MODEL 1
REMARK VINA RESULT:     -11.0      0.000      0.000
REMARK  Name = 50905713
REMARK  3 active torsions:
REMARK  status: ('A' for Active; 'I' for Inactive)
REMARK    1  A    between atoms: N_3  and  C_13
REMARK    2  A    between atoms: C_4  and  C_19
REMARK    3  A    between atoms: C_19  and  N_21
REMARK                            x       y       z     vdW  Elec       q    Type
REMARK                         _______ _______ _______ _____ _____    ______ ____
ROOT
ATOM      1 CL   UNL     1      32.712 -20.933 -20.627  0.00  0.00    -0.082 Cl
ATOM      2  O   UNL     1      31.761 -22.134 -18.445  0.00  0.00    -0.269 OA
ATOM      3  N   UNL     1      32.843 -23.079 -16.577  0.00  0.00    -0.236 N 
ATOM      4  C   UNL     1      34.070 -23.317 -15.929  0.00  0.00    +0.054 C 
ATOM      5  C   UNL     1      35.233 -22.899 -16.459  0.00  0.00    +0.013 C 
ATOM      6  C   UNL     1      35.268 -22.186 -17.726  0.00  0.00    +0.006 C 
ATOM      7  C   UNL     1      34.078 -21.956 -18.417  0.00  0.00    +0.065 C 
ATOM      8  C   UNL     1      32.792 -22.409 -17.830  0.00  0.00    +0.257 C 
ATOM      9  C   UNL     1      36.481 -21.746 -18.271  0.00  0.00    +0.000 C 
ATOM     10  C   UNL     1      34.098 -21.288 -19.648  0.00  0.00    +0.062 C 
ATOM     11  C   UNL     1      36.499 -21.080 -19.496  0.00  0.00    +0.001 C 
ATOM     12  C   UNL     1      35.310 -20.852 -20.184  0.00  0.00    +0.012 C 
ENDROOT
BRANCH   3  13
ATOM     13  C   UNL     1      31.577 -23.477 -16.012  0.00  0.00    +0.058 C 
ATOM     14  C   UNL     1      30.791 -22.543 -15.337  0.00  0.00    +0.015 C 
ATOM     15  C   UNL     1      31.139 -24.795 -16.141  0.00  0.00    +0.015 C 
ATOM     16  C   UNL     1      29.566 -22.927 -14.790  0.00  0.00    +0.001 C 
ATOM     17  C   UNL     1      29.914 -25.179 -15.594  0.00  0.00    +0.001 C 
ATOM     18  C   UNL     1      29.128 -24.246 -14.919  0.00  0.00    +0.000 C 
ENDBRANCH   3  13
BRANCH   4  19
ATOM     19  C   UNL     1      34.126 -24.153 -14.675  0.00  0.00    +0.107 C 
ATOM     20  C   UNL     1      33.241 -23.579 -13.583  0.00  0.00    +0.027 C 
BRANCH  19  21
ATOM     21  N   UNL     1      35.495 -24.194 -14.228  0.00  0.00    -0.317 N 
ATOM     22  N   UNL     1      38.418 -24.350 -13.314  0.00  0.00    -0.270 NA
ATOM     23  N   UNL     1      35.982 -26.273 -15.285  0.00  0.00    -0.232 NA
ATOM     24  N   UNL     1      39.788 -26.030 -13.832  0.00  0.00    -0.307 N 
ATOM     25  N   UNL     1      38.185 -27.310 -15.136  0.00  0.00    -0.232 NA
ATOM     26  C   UNL     1      36.376 -25.223 -14.530  0.00  0.00    +0.124 C 
ATOM     27  C   UNL     1      37.679 -25.210 -14.074  0.00  0.00    +0.164 C 
ATOM     28  C   UNL     1      38.551 -26.244 -14.384  0.00  0.00    +0.125 C 
ATOM     29  C   UNL     1      39.674 -24.884 -13.195  0.00  0.00    +0.163 C 
ATOM     30  C   UNL     1      36.898 -27.239 -15.537  0.00  0.00    +0.252 C 
ATOM     31  H   UNL     1      35.825 -23.448 -13.675  0.00  0.00    +0.148 HD
ATOM     32  H   UNL     1      38.106 -23.502 -12.922  0.00  0.00    +0.126 HD
ATOM     33  H   UNL     1      40.584 -26.606 -13.896  0.00  0.00    +0.149 HD
ENDBRANCH  19  21
ENDBRANCH   4  19
TORSDOF 3
ENDMDL
MODEL 2
REMARK VINA RESULT:      -9.6     10.074     13.770
REMARK  Name = 50905713
REMARK  3 active torsions:
REMARK  status: ('A' for Active; 'I' for Inactive)
REMARK    1  A    between atoms: N_3  and  C_13
REMARK    2  A    between atoms: C_4  and  C_19
REMARK    3  A    between atoms: C_19  and  N_21
REMARK                            x       y       z     vdW  Elec       q    Type
REMARK                         _______ _______ _______ _____ _____    ______ ____
ROOT
ATOM      1 CL   UNL     1      32.540  -7.687 -21.328  0.00  0.00    -0.082 Cl
ATOM      2  O   UNL     1      33.535  -9.087 -23.367  0.00  0.00    -0.269 OA
ATOM      3  N   UNL     1      33.550 -11.399 -23.824  0.00  0.00    -0.236 N 
ATOM      4  C   UNL     1      33.132 -12.678 -23.410  0.00  0.00    +0.054 C 
ATOM      5  C   UNL     1      32.402 -12.849 -22.294  0.00  0.00    +0.013 C 
ATOM      6  C   UNL     1      32.019 -11.716 -21.467  0.00  0.00    +0.006 C 
ATOM      7  C   UNL     1      32.438 -10.434 -21.823  0.00  0.00    +0.065 C 
ATOM      8  C   UNL     1      33.236 -10.242 -23.060  0.00  0.00    +0.257 C 
ATOM      9  C   UNL     1      31.253 -11.897 -20.309  0.00  0.00    +0.000 C 
ATOM     10  C   UNL     1      32.093  -9.335 -21.026  0.00  0.00    +0.062 C 
ATOM     11  C   UNL     1      30.909 -10.802 -19.516  0.00  0.00    +0.001 C 
ATOM     12  C   UNL     1      31.329  -9.523 -19.874  0.00  0.00    +0.012 C 
ENDROOT
BRANCH   3  13
ATOM     13  C   UNL     1      34.295 -11.181 -25.039  0.00  0.00    +0.058 C 
ATOM     14  C   UNL     1      33.991 -11.915 -26.185  0.00  0.00    +0.015 C 
ATOM     15  C   UNL     1      35.321 -10.236 -25.068  0.00  0.00    +0.015 C 
ATOM     16  C   UNL     1      34.712 -11.704 -27.361  0.00  0.00    +0.001 C 
ATOM     17  C   UNL     1      36.042 -10.026 -26.243  0.00  0.00    +0.001 C 
ATOM     18  C   UNL     1      35.738 -10.759 -27.389  0.00  0.00    +0.000 C 
ENDBRANCH   3  13
BRANCH   4  19
ATOM     19  C   UNL     1      33.591 -13.911 -24.149  0.00  0.00    +0.107 C 
ATOM     20  C   UNL     1      32.468 -14.520 -24.968  0.00  0.00    +0.027 C 
BRANCH  19  21
ATOM     21  N   UNL     1      34.063 -14.862 -23.176  0.00  0.00    -0.317 N 
ATOM     22  N   UNL     1      35.073 -16.941 -21.160  0.00  0.00    -0.270 NA
ATOM     23  N   UNL     1      34.329 -16.633 -24.747  0.00  0.00    -0.232 NA
ATOM     24  N   UNL     1      35.623 -19.031 -21.708  0.00  0.00    -0.307 N 
ATOM     25  N   UNL     1      35.134 -18.838 -24.081  0.00  0.00    -0.232 NA
ATOM     26  C   UNL     1      34.414 -16.170 -23.480  0.00  0.00    +0.124 C 
ATOM     27  C   UNL     1      34.860 -17.040 -22.505  0.00  0.00    +0.164 C 
ATOM     28  C   UNL     1      35.209 -18.345 -22.822  0.00  0.00    +0.125 C 
ATOM     29  C   UNL     1      35.529 -18.159 -20.727  0.00  0.00    +0.163 C 
ATOM     30  C   UNL     1      34.689 -17.921 -24.967  0.00  0.00    +0.252 C 
ATOM     31  H   UNL     1      34.141 -14.568 -22.239  0.00  0.00    +0.148 HD
ATOM     32  H   UNL     1      34.925 -16.143 -20.603  0.00  0.00    +0.126 HD
ATOM     33  H   UNL     1      35.922 -19.967 -21.654  0.00  0.00    +0.149 HD
ENDBRANCH  19  21
ENDBRANCH   4  19
TORSDOF 3
ENDMDL
MODEL 3
REMARK VINA RESULT:      -9.1     13.570     16.928
REMARK  Name = 50905713
REMARK  3 active torsions:
REMARK  status: ('A' for Active; 'I' for Inactive)
REMARK    1  A    between atoms: N_3  and  C_13
REMARK    2  A    between atoms: C_4  and  C_19
REMARK    3  A    between atoms: C_19  and  N_21
REMARK                            x       y       z     vdW  Elec       q    Type
REMARK                         _______ _______ _______ _____ _____    ______ ____
ROOT
ATOM      1 CL   UNL     1      30.453  -4.252 -24.080  0.00  0.00    -0.082 Cl
ATOM      2  O   UNL     1      31.016  -6.567 -22.885  0.00  0.00    -0.269 OA
ATOM      3  N   UNL     1      32.691  -8.175 -23.290  0.00  0.00    -0.236 N 
ATOM      4  C   UNL     1      33.826  -8.520 -24.049  0.00  0.00    +0.054 C 
ATOM      5  C   UNL     1      34.304  -7.703 -25.004  0.00  0.00    +0.013 C 
ATOM      6  C   UNL     1      33.664  -6.429 -25.291  0.00  0.00    +0.006 C 
ATOM      7  C   UNL     1      32.520  -6.061 -24.584  0.00  0.00    +0.065 C 
ATOM      8  C   UNL     1      31.995  -6.958 -23.523  0.00  0.00    +0.257 C 
ATOM      9  C   UNL     1      34.170  -5.577 -26.281  0.00  0.00    +0.000 C 
ATOM     10  C   UNL     1      31.881  -4.846 -24.863  0.00  0.00    +0.062 C 
ATOM     11  C   UNL     1      33.534  -4.366 -26.557  0.00  0.00    +0.001 C 
ATOM     12  C   UNL     1      32.391  -4.002 -25.850  0.00  0.00    +0.012 C 
ENDROOT
BRANCH   3  13
ATOM     13  C   UNL     1      32.182  -9.011 -22.232  0.00  0.00    +0.058 C 
ATOM     14  C   UNL     1      32.472  -8.706 -20.902  0.00  0.00    +0.015 C 
ATOM     15  C   UNL     1      31.399 -10.124 -22.537  0.00  0.00    +0.015 C 
ATOM     16  C   UNL     1      31.979  -9.515 -19.877  0.00  0.00    +0.001 C 
ATOM     17  C   UNL     1      30.906 -10.933 -21.512  0.00  0.00    +0.001 C 
ATOM     18  C   UNL     1      31.196 -10.628 -20.183  0.00  0.00    +0.000 C 
ENDBRANCH   3  13
BRANCH   4  19
ATOM     19  C   UNL     1      34.470  -9.875 -23.892  0.00  0.00    +0.107 C 
ATOM     20  C   UNL     1      35.976  -9.799 -24.064  0.00  0.00    +0.027 C 
BRANCH  19  21
ATOM     21  N   UNL     1      33.905 -10.754 -24.883  0.00  0.00    -0.317 N 
ATOM     22  N   UNL     1      32.711 -12.685 -26.946  0.00  0.00    -0.270 NA
ATOM     23  N   UNL     1      34.089 -12.711 -23.537  0.00  0.00    -0.232 NA
ATOM     24  N   UNL     1      32.451 -14.870 -26.589  0.00  0.00    -0.307 N 
ATOM     25  N   UNL     1      33.361 -14.899 -24.335  0.00  0.00    -0.232 NA
ATOM     26  C   UNL     1      33.728 -12.118 -24.697  0.00  0.00    +0.124 C 
ATOM     27  C   UNL     1      33.181 -12.913 -25.684  0.00  0.00    +0.164 C 
ATOM     28  C   UNL     1      33.009 -14.276 -25.486  0.00  0.00    +0.125 C 
ATOM     29  C   UNL     1      32.285 -13.887 -27.448  0.00  0.00    +0.163 C 
ATOM     30  C   UNL     1      33.886 -14.046 -23.429  0.00  0.00    +0.252 C 
ATOM     31  H   UNL     1      33.628 -10.364 -25.745  0.00  0.00    +0.148 HD
ATOM     32  H   UNL     1      32.683 -11.817 -27.410  0.00  0.00    +0.126 HD
ATOM     33  H   UNL     1      32.226 -15.820 -26.712  0.00  0.00    +0.149 HD
ENDBRANCH  19  21
ENDBRANCH   4  19
TORSDOF 3
ENDMDL
MODEL 4
REMARK VINA RESULT:      -8.2     14.569     18.665
REMARK  Name = 50905713
REMARK  3 active torsions:
REMARK  status: ('A' for Active; 'I' for Inactive)
REMARK    1  A    between atoms: N_3  and  C_13
REMARK    2  A    between atoms: C_4  and  C_19
REMARK    3  A    between atoms: C_19  and  N_21
REMARK                            x       y       z     vdW  Elec       q    Type
REMARK                         _______ _______ _______ _____ _____    ______ ____
ROOT
ATOM      1 CL   UNL     1      31.947 -13.612 -20.617  0.00  0.00    -0.082 Cl
ATOM      2  O   UNL     1      33.054 -12.443 -22.741  0.00  0.00    -0.269 OA
ATOM      3  N   UNL     1      33.313 -10.174 -23.327  0.00  0.00    -0.236 N 
ATOM      4  C   UNL     1      33.126  -8.835 -22.937  0.00  0.00    +0.054 C 
ATOM      5  C   UNL     1      32.572  -8.521 -21.753  0.00  0.00    +0.013 C 
ATOM      6  C   UNL     1      32.141  -9.558 -20.828  0.00  0.00    +0.006 C 
ATOM      7  C   UNL     1      32.279 -10.898 -21.188  0.00  0.00    +0.065 C 
ATOM      8  C   UNL     1      32.899 -11.247 -22.491  0.00  0.00    +0.257 C 
ATOM      9  C   UNL     1      31.570  -9.228 -19.592  0.00  0.00    +0.000 C 
ATOM     10  C   UNL     1      31.850 -11.908 -20.316  0.00  0.00    +0.062 C 
ATOM     11  C   UNL     1      31.145 -10.233 -18.724  0.00  0.00    +0.001 C 
ATOM     12  C   UNL     1      31.284 -11.571 -19.086  0.00  0.00    +0.012 C 
ENDROOT
BRANCH   3  13
ATOM     13  C   UNL     1      33.944 -10.540 -24.571  0.00  0.00    +0.058 C 
ATOM     14  C   UNL     1      33.337 -11.474 -25.412  0.00  0.00    +0.015 C 
ATOM     15  C   UNL     1      35.160  -9.962 -24.933  0.00  0.00    +0.015 C 
ATOM     16  C   UNL     1      33.947 -11.829 -26.616  0.00  0.00    +0.001 C 
ATOM     17  C   UNL     1      35.770 -10.317 -26.137  0.00  0.00    +0.001 C 
ATOM     18  C   UNL     1      35.164 -11.250 -26.978  0.00  0.00    +0.000 C 
ENDBRANCH   3  13
BRANCH   4  19
ATOM     19  C   UNL     1      33.438  -7.708 -23.891  0.00  0.00    +0.107 C 
ATOM     20  C   UNL     1      34.912  -7.347 -23.865  0.00  0.00    +0.027 C 
BRANCH  19  21
ATOM     21  N   UNL     1      32.645  -6.568 -23.507  0.00  0.00    -0.317 N 
ATOM     22  N   UNL     1      30.967  -4.111 -22.759  0.00  0.00    -0.270 NA
ATOM     23  N   UNL     1      32.852  -5.469 -25.610  0.00  0.00    -0.232 NA
ATOM     24  N   UNL     1      30.563  -2.420 -24.154  0.00  0.00    -0.307 N 
ATOM     25  N   UNL     1      31.806  -3.308 -26.044  0.00  0.00    -0.232 NA
ATOM     26  C   UNL     1      32.372  -5.497 -24.347  0.00  0.00    +0.124 C 
ATOM     27  C   UNL     1      31.605  -4.430 -23.924  0.00  0.00    +0.164 C 
ATOM     28  C   UNL     1      31.339  -3.365 -24.774  0.00  0.00    +0.125 C 
ATOM     29  C   UNL     1      30.358  -2.898 -22.945  0.00  0.00    +0.163 C 
ATOM     30  C   UNL     1      32.544  -4.390 -26.371  0.00  0.00    +0.252 C 
ATOM     31  H   UNL     1      32.274  -6.547 -22.594  0.00  0.00    +0.148 HD
ATOM     32  H   UNL     1      30.950  -4.653 -21.937  0.00  0.00    +0.126 HD
ATOM     33  H   UNL     1      30.233  -1.571 -24.528  0.00  0.00    +0.149 HD
ENDBRANCH  19  21
ENDBRANCH   4  19
TORSDOF 3
ENDMDL
