MODEL 1
REMARK VINA RESULT:      -7.4      0.000      0.000
REMARK  Name = 11367
REMARK  3 active torsions:
REMARK  status: ('A' for Active; 'I' for Inactive)
REMARK    1  A    between atoms: C_1  and  N_8
REMARK    2  A    between atoms: C_6  and  O_14
REMARK    3  A    between atoms: C_10  and  C_13
REMARK                            x       y       z     vdW  Elec       q    Type
REMARK                         _______ _______ _______ _____ _____    ______ ____
ROOT
ATOM      1  C   UNL     1      34.691 -19.271 -20.945  0.00  0.00    +0.054 C 
ATOM      2  C   UNL     1      33.422 -19.759 -20.632  0.00  0.00    +0.018 C 
ATOM      3  C   UNL     1      35.826 -20.003 -20.592  0.00  0.00    +0.018 C 
ATOM      4  C   UNL     1      33.287 -20.977 -19.967  0.00  0.00    +0.038 C 
ATOM      5  C   UNL     1      35.690 -21.222 -19.927  0.00  0.00    +0.038 C 
ATOM      6  C   UNL     1      34.422 -21.708 -19.615  0.00  0.00    +0.134 C 
ENDROOT
BRANCH   1   8
ATOM      7  O   UNL     1      34.575 -18.968 -23.756  0.00  0.00    -0.272 OA
ATOM      8  N   UNL     1      34.826 -18.053 -21.610  0.00  0.00    -0.255 N 
ATOM      9  C   UNL     1      35.050 -16.779 -20.860  0.00  0.00    +0.120 C 
ATOM     10  C   UNL     1      34.756 -17.974 -23.046  0.00  0.00    +0.260 C 
BRANCH  10  13
ATOM     11 CL   UNL     1      33.474 -15.630 -23.209  0.00  0.00    -0.087 Cl
ATOM     12 CL   UNL     1      34.907 -16.826 -25.448  0.00  0.00    -0.087 Cl
ATOM     13  C   UNL     1      34.883 -16.605 -23.692  0.00  0.00    +0.234 C 
ENDBRANCH  10  13
ENDBRANCH   1   8
BRANCH   6  14
ATOM     14  O   UNL     1      34.290 -22.899 -18.967  0.00  0.00    -0.506 OA
ATOM     15  H   UNL     1      33.535 -23.433 -19.119  0.00  0.00    +0.292 HD
ENDBRANCH   6  14
TORSDOF 3
ENDMDL
MODEL 2
REMARK VINA RESULT:      -7.1      1.360      2.057
REMARK  Name = 11367
REMARK  3 active torsions:
REMARK  status: ('A' for Active; 'I' for Inactive)
REMARK    1  A    between atoms: C_1  and  N_8
REMARK    2  A    between atoms: C_6  and  O_14
REMARK    3  A    between atoms: C_10  and  C_13
REMARK                            x       y       z     vdW  Elec       q    Type
REMARK                         _______ _______ _______ _____ _____    ______ ____
ROOT
ATOM      1  C   UNL     1      34.602 -19.314 -21.311  0.00  0.00    +0.054 C 
ATOM      2  C   UNL     1      35.628 -20.013 -20.675  0.00  0.00    +0.018 C 
ATOM      3  C   UNL     1      33.271 -19.640 -21.050  0.00  0.00    +0.018 C 
ATOM      4  C   UNL     1      35.324 -21.037 -19.779  0.00  0.00    +0.038 C 
ATOM      5  C   UNL     1      32.967 -20.665 -20.153  0.00  0.00    +0.038 C 
ATOM      6  C   UNL     1      33.993 -21.363 -19.518  0.00  0.00    +0.134 C 
ENDROOT
BRANCH   1   8
ATOM      7  O   UNL     1      33.798 -16.621 -20.986  0.00  0.00    -0.272 OA
ATOM      8  N   UNL     1      34.906 -18.290 -22.207  0.00  0.00    -0.255 N 
ATOM      9  C   UNL     1      35.705 -18.552 -23.444  0.00  0.00    +0.120 C 
ATOM     10  C   UNL     1      34.462 -16.940 -21.977  0.00  0.00    +0.260 C 
BRANCH  10  13
ATOM     11 CL   UNL     1      34.552 -14.280 -22.262  0.00  0.00    -0.087 Cl
ATOM     12 CL   UNL     1      33.870 -16.097 -24.437  0.00  0.00    -0.087 Cl
ATOM     13  C   UNL     1      34.861 -15.877 -22.986  0.00  0.00    +0.234 C 
ENDBRANCH  10  13
ENDBRANCH   1   8
BRANCH   6  14
ATOM     14  O   UNL     1      33.696 -22.361 -18.642  0.00  0.00    -0.506 OA
ATOM     15  H   UNL     1      34.344 -22.659 -18.034  0.00  0.00    +0.292 HD
ENDBRANCH   6  14
TORSDOF 3
ENDMDL
MODEL 3
REMARK VINA RESULT:      -7.1      3.187      5.590
REMARK  Name = 11367
REMARK  3 active torsions:
REMARK  status: ('A' for Active; 'I' for Inactive)
REMARK    1  A    between atoms: C_1  and  N_8
REMARK    2  A    between atoms: C_6  and  O_14
REMARK    3  A    between atoms: C_10  and  C_13
REMARK                            x       y       z     vdW  Elec       q    Type
REMARK                         _______ _______ _______ _____ _____    ______ ____
ROOT
ATOM      1  C   UNL     1      35.028 -18.298 -22.724  0.00  0.00    +0.054 C 
ATOM      2  C   UNL     1      34.824 -18.916 -23.957  0.00  0.00    +0.018 C 
ATOM      3  C   UNL     1      34.931 -16.910 -22.615  0.00  0.00    +0.018 C 
ATOM      4  C   UNL     1      34.522 -18.148 -25.081  0.00  0.00    +0.038 C 
ATOM      5  C   UNL     1      34.629 -16.142 -23.739  0.00  0.00    +0.038 C 
ATOM      6  C   UNL     1      34.425 -16.761 -24.972  0.00  0.00    +0.134 C 
ENDROOT
BRANCH   1   8
ATOM      7  O   UNL     1      33.176 -19.974 -21.394  0.00  0.00    -0.272 OA
ATOM      8  N   UNL     1      35.330 -19.066 -21.599  0.00  0.00    -0.255 N 
ATOM      9  C   UNL     1      36.699 -19.057 -20.997  0.00  0.00    +0.120 C 
ATOM     10  C   UNL     1      34.335 -19.897 -20.974  0.00  0.00    +0.260 C 
BRANCH  10  13
ATOM     11 CL   UNL     1      35.975 -21.904 -20.304  0.00  0.00    -0.087 Cl
ATOM     12 CL   UNL     1      33.317 -21.563 -19.156  0.00  0.00    -0.087 Cl
ATOM     13  C   UNL     1      34.752 -20.726 -19.771  0.00  0.00    +0.234 C 
ENDBRANCH  10  13
ENDBRANCH   1   8
BRANCH   6  14
ATOM     14  O   UNL     1      34.128 -16.011 -26.069  0.00  0.00    -0.506 OA
ATOM     15  H   UNL     1      34.451 -16.265 -26.911  0.00  0.00    +0.292 HD
ENDBRANCH   6  14
TORSDOF 3
ENDMDL
MODEL 4
REMARK VINA RESULT:      -7.1      3.615      5.593
REMARK  Name = 11367
REMARK  3 active torsions:
REMARK  status: ('A' for Active; 'I' for Inactive)
REMARK    1  A    between atoms: C_1  and  N_8
REMARK    2  A    between atoms: C_6  and  O_14
REMARK    3  A    between atoms: C_10  and  C_13
REMARK                            x       y       z     vdW  Elec       q    Type
REMARK                         _______ _______ _______ _____ _____    ______ ____
ROOT
ATOM      1  C   UNL     1      34.553 -19.023 -21.615  0.00  0.00    +0.054 C 
ATOM      2  C   UNL     1      34.684 -19.420 -22.945  0.00  0.00    +0.018 C 
ATOM      3  C   UNL     1      34.710 -17.680 -21.269  0.00  0.00    +0.018 C 
ATOM      4  C   UNL     1      34.971 -18.476 -23.930  0.00  0.00    +0.038 C 
ATOM      5  C   UNL     1      34.997 -16.736 -22.255  0.00  0.00    +0.038 C 
ATOM      6  C   UNL     1      35.128 -17.134 -23.584  0.00  0.00    +0.134 C 
ENDROOT
BRANCH   1   8
ATOM      7  O   UNL     1      36.505 -20.575 -20.277  0.00  0.00    -0.272 OA
ATOM      8  N   UNL     1      34.266 -19.968 -20.629  0.00  0.00    -0.255 N 
ATOM      9  C   UNL     1      32.860 -20.236 -20.197  0.00  0.00    +0.120 C 
ATOM     10  C   UNL     1      35.313 -20.722 -19.991  0.00  0.00    +0.260 C 
BRANCH  10  13
ATOM     11 CL   UNL     1      36.338 -21.992 -17.869  0.00  0.00    -0.087 Cl
ATOM     12 CL   UNL     1      34.420 -23.217 -19.690  0.00  0.00    -0.087 Cl
ATOM     13  C   UNL     1      34.919 -21.710 -18.906  0.00  0.00    +0.234 C 
ENDBRANCH  10  13
ENDBRANCH   1   8
BRANCH   6  14
ATOM     14  O   UNL     1      35.406 -16.212 -24.547  0.00  0.00    -0.506 OA
ATOM     15  H   UNL     1      35.039 -16.303 -25.404  0.00  0.00    +0.292 HD
ENDBRANCH   6  14
TORSDOF 3
ENDMDL
MODEL 5
REMARK VINA RESULT:      -6.8      5.528      6.744
REMARK  Name = 11367
REMARK  3 active torsions:
REMARK  status: ('A' for Active; 'I' for Inactive)
REMARK    1  A    between atoms: C_1  and  N_8
REMARK    2  A    between atoms: C_6  and  O_14
REMARK    3  A    between atoms: C_10  and  C_13
REMARK                            x       y       z     vdW  Elec       q    Type
REMARK                         _______ _______ _______ _____ _____    ______ ____
ROOT
ATOM      1  C   UNL     1      33.579 -14.034 -23.939  0.00  0.00    +0.054 C 
ATOM      2  C   UNL     1      33.059 -14.368 -25.189  0.00  0.00    +0.018 C 
ATOM      3  C   UNL     1      34.464 -14.902 -23.298  0.00  0.00    +0.018 C 
ATOM      4  C   UNL     1      33.423 -15.569 -25.798  0.00  0.00    +0.038 C 
ATOM      5  C   UNL     1      34.828 -16.102 -23.907  0.00  0.00    +0.038 C 
ATOM      6  C   UNL     1      34.308 -16.436 -25.156  0.00  0.00    +0.134 C 
ENDROOT
BRANCH   1   8
ATOM      7  O   UNL     1      31.948 -13.846 -21.635  0.00  0.00    -0.272 OA
ATOM      8  N   UNL     1      33.215 -12.833 -23.330  0.00  0.00    -0.255 N 
ATOM      9  C   UNL     1      33.677 -11.517 -23.870  0.00  0.00    +0.120 C 
ATOM     10  C   UNL     1      32.380 -12.814 -22.158  0.00  0.00    +0.260 C 
BRANCH  10  13
ATOM     11 CL   UNL     1      31.730 -11.716 -19.805  0.00  0.00    -0.087 Cl
ATOM     12 CL   UNL     1      30.616 -10.823 -22.346  0.00  0.00    -0.087 Cl
ATOM     13  C   UNL     1      32.054 -11.467 -21.537  0.00  0.00    +0.234 C 
ENDBRANCH  10  13
ENDBRANCH   1   8
BRANCH   6  14
ATOM     14  O   UNL     1      34.665 -17.607 -25.752  0.00  0.00    -0.506 OA
ATOM     15  H   UNL     1      34.285 -18.414 -25.464  0.00  0.00    +0.292 HD
ENDBRANCH   6  14
TORSDOF 3
ENDMDL
MODEL 6
REMARK VINA RESULT:      -6.7      3.635      6.118
REMARK  Name = 11367
REMARK  3 active torsions:
REMARK  status: ('A' for Active; 'I' for Inactive)
REMARK    1  A    between atoms: C_1  and  N_8
REMARK    2  A    between atoms: C_6  and  O_14
REMARK    3  A    between atoms: C_10  and  C_13
REMARK                            x       y       z     vdW  Elec       q    Type
REMARK                         _______ _______ _______ _____ _____    ______ ____
ROOT
ATOM      1  C   UNL     1      34.012 -15.966 -22.596  0.00  0.00    +0.054 C 
ATOM      2  C   UNL     1      34.503 -15.057 -23.531  0.00  0.00    +0.018 C 
ATOM      3  C   UNL     1      33.019 -15.573 -21.697  0.00  0.00    +0.018 C 
ATOM      4  C   UNL     1      34.004 -13.756 -23.570  0.00  0.00    +0.038 C 
ATOM      5  C   UNL     1      32.519 -14.272 -21.735  0.00  0.00    +0.038 C 
ATOM      6  C   UNL     1      33.012 -13.364 -22.671  0.00  0.00    +0.134 C 
ENDROOT
BRANCH   1   8
ATOM      7  O   UNL     1      35.351 -17.094 -20.373  0.00  0.00    -0.272 OA
ATOM      8  N   UNL     1      34.511 -17.268 -22.557  0.00  0.00    -0.255 N 
ATOM      9  C   UNL     1      34.370 -18.189 -23.726  0.00  0.00    +0.120 C 
ATOM     10  C   UNL     1      35.184 -17.775 -21.390  0.00  0.00    +0.260 C 
BRANCH  10  13
ATOM     11 CL   UNL     1      34.489 -20.220 -20.549  0.00  0.00    -0.087 Cl
ATOM     12 CL   UNL     1      37.246 -19.274 -20.607  0.00  0.00    -0.087 Cl
ATOM     13  C   UNL     1      35.672 -19.213 -21.417  0.00  0.00    +0.234 C 
ENDBRANCH  10  13
ENDBRANCH   1   8
BRANCH   6  14
ATOM     14  O   UNL     1      32.522 -12.094 -22.710  0.00  0.00    -0.506 OA
ATOM     15  H   UNL     1      32.338 -11.638 -21.912  0.00  0.00    +0.292 HD
ENDBRANCH   6  14
TORSDOF 3
ENDMDL
MODEL 7
REMARK VINA RESULT:      -6.7      3.668      6.086
REMARK  Name = 11367
REMARK  3 active torsions:
REMARK  status: ('A' for Active; 'I' for Inactive)
REMARK    1  A    between atoms: C_1  and  N_8
REMARK    2  A    between atoms: C_6  and  O_14
REMARK    3  A    between atoms: C_10  and  C_13
REMARK                            x       y       z     vdW  Elec       q    Type
REMARK                         _______ _______ _______ _____ _____    ______ ____
ROOT
ATOM      1  C   UNL     1      33.977 -15.847 -22.619  0.00  0.00    +0.054 C 
ATOM      2  C   UNL     1      32.967 -15.480 -21.730  0.00  0.00    +0.018 C 
ATOM      3  C   UNL     1      34.478 -14.916 -23.530  0.00  0.00    +0.018 C 
ATOM      4  C   UNL     1      32.458 -14.181 -21.750  0.00  0.00    +0.038 C 
ATOM      5  C   UNL     1      33.968 -13.617 -23.550  0.00  0.00    +0.038 C 
ATOM      6  C   UNL     1      32.959 -13.251 -22.661  0.00  0.00    +0.134 C 
ENDROOT
BRANCH   1   8
ATOM      7  O   UNL     1      35.291 -17.009 -20.399  0.00  0.00    -0.272 OA
ATOM      8  N   UNL     1      34.486 -17.146 -22.599  0.00  0.00    -0.255 N 
ATOM      9  C   UNL     1      34.370 -18.044 -23.788  0.00  0.00    +0.120 C 
ATOM     10  C   UNL     1      35.145 -17.671 -21.431  0.00  0.00    +0.260 C 
BRANCH  10  13
ATOM     11 CL   UNL     1      34.476 -20.131 -20.615  0.00  0.00    -0.087 Cl
ATOM     12 CL   UNL     1      37.225 -19.162 -20.682  0.00  0.00    -0.087 Cl
ATOM     13  C   UNL     1      35.645 -19.104 -21.480  0.00  0.00    +0.234 C 
ENDBRANCH  10  13
ENDBRANCH   1   8
BRANCH   6  14
ATOM     14  O   UNL     1      32.463 -11.983 -22.679  0.00  0.00    -0.506 OA
ATOM     15  H   UNL     1      32.128 -11.622 -23.477  0.00  0.00    +0.292 HD
ENDBRANCH   6  14
TORSDOF 3
ENDMDL
MODEL 8
REMARK VINA RESULT:      -6.7      5.935      7.369
REMARK  Name = 11367
REMARK  3 active torsions:
REMARK  status: ('A' for Active; 'I' for Inactive)
REMARK    1  A    between atoms: C_1  and  N_8
REMARK    2  A    between atoms: C_6  and  O_14
REMARK    3  A    between atoms: C_10  and  C_13
REMARK                            x       y       z     vdW  Elec       q    Type
REMARK                         _______ _______ _______ _____ _____    ______ ____
ROOT
ATOM      1  C   UNL     1      33.430 -13.478 -24.109  0.00  0.00    +0.054 C 
ATOM      2  C   UNL     1      32.904 -13.786 -25.363  0.00  0.00    +0.018 C 
ATOM      3  C   UNL     1      34.186 -14.425 -23.417  0.00  0.00    +0.018 C 
ATOM      4  C   UNL     1      33.133 -15.041 -25.926  0.00  0.00    +0.038 C 
ATOM      5  C   UNL     1      34.416 -15.680 -23.981  0.00  0.00    +0.038 C 
ATOM      6  C   UNL     1      33.890 -15.988 -25.235  0.00  0.00    +0.134 C 
ENDROOT
BRANCH   1   8
ATOM      7  O   UNL     1      34.612 -11.077 -25.027  0.00  0.00    -0.272 OA
ATOM      8  N   UNL     1      33.200 -12.223 -23.545  0.00  0.00    -0.255 N 
ATOM      9  C   UNL     1      32.282 -12.053 -22.377  0.00  0.00    +0.120 C 
ATOM     10  C   UNL     1      33.838 -11.042 -24.066  0.00  0.00    +0.260 C 
BRANCH  10  13
ATOM     11 CL   UNL     1      31.961  -9.134 -24.072  0.00  0.00    -0.087 Cl
ATOM     12 CL   UNL     1      34.810  -8.572 -23.810  0.00  0.00    -0.087 Cl
ATOM     13  C   UNL     1      33.512  -9.710 -23.414  0.00  0.00    +0.234 C 
ENDBRANCH  10  13
ENDBRANCH   1   8
BRANCH   6  14
ATOM     14  O   UNL     1      34.116 -17.212 -25.786  0.00  0.00    -0.506 OA
ATOM     15  H   UNL     1      34.632 -17.287 -26.565  0.00  0.00    +0.292 HD
ENDBRANCH   6  14
TORSDOF 3
ENDMDL
MODEL 9
REMARK VINA RESULT:      -6.6      1.532      1.958
REMARK  Name = 11367
REMARK  3 active torsions:
REMARK  status: ('A' for Active; 'I' for Inactive)
REMARK    1  A    between atoms: C_1  and  N_8
REMARK    2  A    between atoms: C_6  and  O_14
REMARK    3  A    between atoms: C_10  and  C_13
REMARK                            x       y       z     vdW  Elec       q    Type
REMARK                         _______ _______ _______ _____ _____    ______ ____
ROOT
ATOM      1  C   UNL     1      34.582 -18.171 -21.365  0.00  0.00    +0.054 C 
ATOM      2  C   UNL     1      33.754 -19.236 -21.011  0.00  0.00    +0.018 C 
ATOM      3  C   UNL     1      35.963 -18.272 -21.189  0.00  0.00    +0.018 C 
ATOM      4  C   UNL     1      34.306 -20.402 -20.481  0.00  0.00    +0.038 C 
ATOM      5  C   UNL     1      36.514 -19.439 -20.659  0.00  0.00    +0.038 C 
ATOM      6  C   UNL     1      35.686 -20.503 -20.305  0.00  0.00    +0.134 C 
ENDROOT
BRANCH   1   8
ATOM      7  O   UNL     1      34.888 -17.342 -24.053  0.00  0.00    -0.272 OA
ATOM      8  N   UNL     1      34.031 -17.004 -21.895  0.00  0.00    -0.255 N 
ATOM      9  C   UNL     1      33.213 -16.079 -21.052  0.00  0.00    +0.120 C 
ATOM     10  C   UNL     1      34.229 -16.645 -23.275  0.00  0.00    +0.260 C 
BRANCH  10  13
ATOM     11 CL   UNL     1      33.592 -15.407 -25.561  0.00  0.00    -0.087 Cl
ATOM     12 CL   UNL     1      34.502 -13.994 -23.179  0.00  0.00    -0.087 Cl
ATOM     13  C   UNL     1      33.570 -15.374 -23.782  0.00  0.00    +0.234 C 
ENDBRANCH  10  13
ENDBRANCH   1   8
BRANCH   6  14
ATOM     14  O   UNL     1      36.224 -21.643 -19.790  0.00  0.00    -0.506 OA
ATOM     15  H   UNL     1      36.130 -21.834 -18.877  0.00  0.00    +0.292 HD
ENDBRANCH   6  14
TORSDOF 3
ENDMDL
