MODEL 1
REMARK VINA RESULT:      -9.6      0.000      0.000
REMARK  Name = 256737
REMARK  3 active torsions:
REMARK  status: ('A' for Active; 'I' for Inactive)
REMARK    1  A    between atoms: C_5  and  O_19
REMARK    2  A    between atoms: C_8  and  O_21
REMARK    3  A    between atoms: C_18  and  O_23
REMARK                            x       y       z     vdW  Elec       q    Type
REMARK                         _______ _______ _______ _____ _____    ______ ____
ROOT
ATOM      1  C   UNL     1      37.199 -25.285 -13.357  0.00  0.00    +0.027 C 
ATOM      2  C   UNL     1      37.260 -24.225 -14.480  0.00  0.00    +0.005 C 
ATOM      3  C   UNL     1      35.929 -24.099 -15.227  0.00  0.00    +0.005 C 
ATOM      4  C   UNL     1      34.829 -23.642 -14.221  0.00  0.00    +0.022 C 
ATOM      5  C   UNL     1      38.674 -25.275 -12.898  0.00  0.00    +0.137 C 
ATOM      6  C   UNL     1      36.151 -24.819 -12.336  0.00  0.00    +0.003 C 
ATOM      7  C   UNL     1      38.518 -24.585 -15.271  0.00  0.00    +0.032 C 
ATOM      8  C   UNL     1      39.456 -25.230 -14.231  0.00  0.00    +0.137 C 
ATOM      9  C   UNL     1      34.774 -24.579 -12.986  0.00  0.00    +0.004 C 
ATOM     10  C   UNL     1      35.995 -23.095 -16.379  0.00  0.00    +0.005 C 
ATOM     11  C   UNL     1      36.844 -26.715 -13.843  0.00  0.00    +0.002 C 
ATOM     12  C   UNL     1      33.494 -23.419 -14.925  0.00  0.00    -0.026 C 
ATOM     13  C   UNL     1      34.690 -23.126 -17.169  0.00  0.00    +0.026 C 
ATOM     14  C   UNL     1      33.451 -23.134 -16.307  0.00  0.00    -0.023 C 
ATOM     15  C   UNL     1      32.286 -23.403 -14.205  0.00  0.00    -0.001 C 
ATOM     16  C   UNL     1      32.215 -22.897 -16.935  0.00  0.00    +0.032 C 
ATOM     17  C   UNL     1      31.067 -23.156 -14.839  0.00  0.00    +0.036 C 
ATOM     18  C   UNL     1      31.030 -22.908 -16.206  0.00  0.00    +0.133 C 
ENDROOT
BRANCH   5  19
ATOM     19  O   UNL     1      38.975 -24.112 -12.131  0.00  0.00    -0.382 OA
ATOM     20  H   UNL     1      38.264 -23.953 -11.492  0.00  0.00    +0.210 HD
ENDBRANCH   5  19
BRANCH   8  21
ATOM     21  O   UNL     1      40.671 -24.510 -14.123  0.00  0.00    -0.382 OA
ATOM     22  H   UNL     1      40.939 -24.194 -15.000  0.00  0.00    +0.210 HD
ENDBRANCH   8  21
BRANCH  18  23
ATOM     23  O   UNL     1      29.843 -22.672 -16.826  0.00  0.00    -0.506 OA
ATOM     24  H   UNL     1      29.370 -21.883 -16.649  0.00  0.00    +0.292 HD
ENDBRANCH  18  23
TORSDOF 3
ENDMDL
MODEL 2
REMARK VINA RESULT:      -8.9      2.468      3.595
REMARK  Name = 256737
REMARK  3 active torsions:
REMARK  status: ('A' for Active; 'I' for Inactive)
REMARK    1  A    between atoms: C_5  and  O_19
REMARK    2  A    between atoms: C_8  and  O_21
REMARK    3  A    between atoms: C_18  and  O_23
REMARK                            x       y       z     vdW  Elec       q    Type
REMARK                         _______ _______ _______ _____ _____    ______ ____
ROOT
ATOM      1  C   UNL     1      35.758 -24.988 -14.133  0.00  0.00    +0.027 C 
ATOM      2  C   UNL     1      36.551 -23.672 -14.298  0.00  0.00    +0.005 C 
ATOM      3  C   UNL     1      36.543 -23.171 -15.745  0.00  0.00    +0.005 C 
ATOM      4  C   UNL     1      35.072 -22.878 -16.167  0.00  0.00    +0.022 C 
ATOM      5  C   UNL     1      36.056 -25.296 -12.648  0.00  0.00    +0.137 C 
ATOM      6  C   UNL     1      34.296 -24.697 -14.501  0.00  0.00    +0.003 C 
ATOM      7  C   UNL     1      37.894 -23.953 -13.622  0.00  0.00    +0.032 C 
ATOM      8  C   UNL     1      37.564 -24.979 -12.519  0.00  0.00    +0.137 C 
ATOM      9  C   UNL     1      34.161 -24.109 -15.920  0.00  0.00    +0.004 C 
ATOM     10  C   UNL     1      37.375 -21.901 -15.932  0.00  0.00    +0.005 C 
ATOM     11  C   UNL     1      36.283 -26.165 -14.995  0.00  0.00    +0.002 C 
ATOM     12  C   UNL     1      35.006 -22.297 -17.577  0.00  0.00    -0.026 C 
ATOM     13  C   UNL     1      37.446 -21.542 -17.413  0.00  0.00    +0.026 C 
ATOM     14  C   UNL     1      36.122 -21.632 -18.131  0.00  0.00    -0.023 C 
ATOM     15  C   UNL     1      33.814 -22.329 -18.322  0.00  0.00    -0.001 C 
ATOM     16  C   UNL     1      36.035 -21.072 -19.418  0.00  0.00    +0.032 C 
ATOM     17  C   UNL     1      33.738 -21.760 -19.595  0.00  0.00    +0.036 C 
ATOM     18  C   UNL     1      34.850 -21.136 -20.146  0.00  0.00    +0.133 C 
ENDROOT
BRANCH   5  19
ATOM     19  O   UNL     1      35.316 -24.444 -11.778  0.00  0.00    -0.382 OA
ATOM     20  H   UNL     1      35.647 -23.536 -11.856  0.00  0.00    +0.210 HD
ENDBRANCH   5  19
BRANCH   8  21
ATOM     21  O   UNL     1      37.906 -24.480 -11.239  0.00  0.00    -0.382 OA
ATOM     22  H   UNL     1      38.103 -25.220 -10.645  0.00  0.00    +0.210 HD
ENDBRANCH   8  21
BRANCH  18  23
ATOM     23  O   UNL     1      34.781 -20.584 -21.387  0.00  0.00    -0.506 OA
ATOM     24  H   UNL     1      33.949 -20.467 -21.802  0.00  0.00    +0.292 HD
ENDBRANCH  18  23
TORSDOF 3
ENDMDL
MODEL 3
REMARK VINA RESULT:      -8.6      3.842      5.570
REMARK  Name = 256737
REMARK  3 active torsions:
REMARK  status: ('A' for Active; 'I' for Inactive)
REMARK    1  A    between atoms: C_5  and  O_19
REMARK    2  A    between atoms: C_8  and  O_21
REMARK    3  A    between atoms: C_18  and  O_23
REMARK                            x       y       z     vdW  Elec       q    Type
REMARK                         _______ _______ _______ _____ _____    ______ ____
ROOT
ATOM      1  C   UNL     1      36.281 -22.944 -15.851  0.00  0.00    +0.027 C 
ATOM      2  C   UNL     1      35.218 -23.424 -16.866  0.00  0.00    +0.005 C 
ATOM      3  C   UNL     1      34.779 -22.304 -17.813  0.00  0.00    +0.005 C 
ATOM      4  C   UNL     1      36.014 -21.824 -18.632  0.00  0.00    +0.022 C 
ATOM      5  C   UNL     1      36.416 -24.216 -14.982  0.00  0.00    +0.137 C 
ATOM      6  C   UNL     1      37.521 -22.513 -16.647  0.00  0.00    +0.003 C 
ATOM      7  C   UNL     1      34.163 -24.121 -16.006  0.00  0.00    +0.032 C 
ATOM      8  C   UNL     1      34.950 -24.673 -14.800  0.00  0.00    +0.137 C 
ATOM      9  C   UNL     1      37.190 -21.435 -17.698  0.00  0.00    +0.004 C 
ATOM     10  C   UNL     1      33.684 -22.751 -18.783  0.00  0.00    +0.005 C 
ATOM     11  C   UNL     1      35.819 -21.774 -14.944  0.00  0.00    +0.002 C 
ATOM     12  C   UNL     1      35.622 -20.761 -19.654  0.00  0.00    -0.026 C 
ATOM     13  C   UNL     1      33.190 -21.557 -19.593  0.00  0.00    +0.026 C 
ATOM     14  C   UNL     1      34.294 -20.678 -20.128  0.00  0.00    -0.023 C 
ATOM     15  C   UNL     1      36.582 -19.901 -20.215  0.00  0.00    -0.001 C 
ATOM     16  C   UNL     1      33.954 -19.716 -21.096  0.00  0.00    +0.032 C 
ATOM     17  C   UNL     1      36.233 -18.956 -21.182  0.00  0.00    +0.036 C 
ATOM     18  C   UNL     1      34.918 -18.860 -21.620  0.00  0.00    +0.133 C 
ENDROOT
BRANCH   5  19
ATOM     19  O   UNL     1      37.150 -25.234 -15.656  0.00  0.00    -0.382 OA
ATOM     20  H   UNL     1      38.040 -24.908 -15.862  0.00  0.00    +0.210 HD
ENDBRANCH   5  19
BRANCH   8  21
ATOM     21  O   UNL     1      34.828 -26.081 -14.714  0.00  0.00    -0.382 OA
ATOM     22  H   UNL     1      34.622 -26.333 -13.800  0.00  0.00    +0.210 HD
ENDBRANCH   8  21
BRANCH  18  23
ATOM     23  O   UNL     1      34.575 -17.938 -22.559  0.00  0.00    -0.506 OA
ATOM     24  H   UNL     1      35.158 -17.753 -23.268  0.00  0.00    +0.292 HD
ENDBRANCH  18  23
TORSDOF 3
ENDMDL
MODEL 4
REMARK VINA RESULT:      -8.2      2.728      4.299
REMARK  Name = 256737
REMARK  3 active torsions:
REMARK  status: ('A' for Active; 'I' for Inactive)
REMARK    1  A    between atoms: C_5  and  O_19
REMARK    2  A    between atoms: C_8  and  O_21
REMARK    3  A    between atoms: C_18  and  O_23
REMARK                            x       y       z     vdW  Elec       q    Type
REMARK                         _______ _______ _______ _____ _____    ______ ____
ROOT
ATOM      1  C   UNL     1      37.108 -23.331 -14.990  0.00  0.00    +0.027 C 
ATOM      2  C   UNL     1      35.860 -24.024 -15.583  0.00  0.00    +0.005 C 
ATOM      3  C   UNL     1      35.056 -23.088 -16.489  0.00  0.00    +0.005 C 
ATOM      4  C   UNL     1      35.954 -22.652 -17.686  0.00  0.00    +0.022 C 
ATOM      5  C   UNL     1      37.615 -24.449 -14.051  0.00  0.00    +0.137 C 
ATOM      6  C   UNL     1      38.022 -22.940 -16.161  0.00  0.00    +0.003 C 
ATOM      7  C   UNL     1      35.169 -24.656 -14.375  0.00  0.00    +0.032 C 
ATOM      8  C   UNL     1      36.317 -24.971 -13.394  0.00  0.00    +0.137 C 
ATOM      9  C   UNL     1      37.296 -22.052 -17.191  0.00  0.00    +0.004 C 
ATOM     10  C   UNL     1      33.786 -23.745 -17.034  0.00  0.00    +0.005 C 
ATOM     11  C   UNL     1      36.797 -22.074 -14.136  0.00  0.00    +0.002 C 
ATOM     12  C   UNL     1      35.179 -21.779 -18.669  0.00  0.00    -0.026 C 
ATOM     13  C   UNL     1      32.961 -22.718 -17.803  0.00  0.00    +0.026 C 
ATOM     14  C   UNL     1      33.770 -21.856 -18.740  0.00  0.00    -0.023 C 
ATOM     15  C   UNL     1      35.846 -20.948 -19.587  0.00  0.00    -0.001 C 
ATOM     16  C   UNL     1      33.073 -21.071 -19.676  0.00  0.00    +0.032 C 
ATOM     17  C   UNL     1      35.142 -20.181 -20.517  0.00  0.00    +0.036 C 
ATOM     18  C   UNL     1      33.754 -20.238 -20.559  0.00  0.00    +0.133 C 
ENDROOT
BRANCH   5  19
ATOM     19  O   UNL     1      38.235 -25.503 -14.781  0.00  0.00    -0.382 OA
ATOM     20  H   UNL     1      38.965 -25.873 -14.260  0.00  0.00    +0.210 HD
ENDBRANCH   5  19
BRANCH   8  21
ATOM     21  O   UNL     1      36.375 -26.357 -13.105  0.00  0.00    -0.382 OA
ATOM     22  H   UNL     1      37.191 -26.730 -13.472  0.00  0.00    +0.210 HD
ENDBRANCH   8  21
BRANCH  18  23
ATOM     23  O   UNL     1      33.065 -19.490 -21.461  0.00  0.00    -0.506 OA
ATOM     24  H   UNL     1      33.226 -19.596 -22.378  0.00  0.00    +0.292 HD
ENDBRANCH  18  23
TORSDOF 3
ENDMDL
MODEL 5
REMARK VINA RESULT:      -8.1      5.150      8.120
REMARK  Name = 256737
REMARK  3 active torsions:
REMARK  status: ('A' for Active; 'I' for Inactive)
REMARK    1  A    between atoms: C_5  and  O_19
REMARK    2  A    between atoms: C_8  and  O_21
REMARK    3  A    between atoms: C_18  and  O_23
REMARK                            x       y       z     vdW  Elec       q    Type
REMARK                         _______ _______ _______ _____ _____    ______ ____
ROOT
ATOM      1  C   UNL     1      33.927 -19.125 -21.419  0.00  0.00    +0.027 C 
ATOM      2  C   UNL     1      35.246 -19.891 -21.171  0.00  0.00    +0.005 C 
ATOM      3  C   UNL     1      35.307 -20.496 -19.766  0.00  0.00    +0.005 C 
ATOM      4  C   UNL     1      34.142 -21.520 -19.608  0.00  0.00    +0.022 C 
ATOM      5  C   UNL     1      34.216 -18.540 -22.821  0.00  0.00    +0.137 C 
ATOM      6  C   UNL     1      32.776 -20.137 -21.313  0.00  0.00    +0.003 C 
ATOM      7  C   UNL     1      36.338 -18.911 -21.600  0.00  0.00    +0.032 C 
ATOM      8  C   UNL     1      35.680 -18.059 -22.705  0.00  0.00    +0.137 C 
ATOM      9  C   UNL     1      32.776 -20.875 -19.960  0.00  0.00    +0.004 C 
ATOM     10  C   UNL     1      36.633 -21.206 -19.488  0.00  0.00    +0.005 C 
ATOM     11  C   UNL     1      33.673 -17.951 -20.438  0.00  0.00    +0.002 C 
ATOM     12  C   UNL     1      34.199 -22.217 -18.252  0.00  0.00    -0.026 C 
ATOM     13  C   UNL     1      36.685 -21.653 -18.030  0.00  0.00    +0.026 C 
ATOM     14  C   UNL     1      35.416 -22.308 -17.543  0.00  0.00    -0.023 C 
ATOM     15  C   UNL     1      33.069 -22.862 -17.718  0.00  0.00    -0.001 C 
ATOM     16  C   UNL     1      35.460 -22.984 -16.310  0.00  0.00    +0.032 C 
ATOM     17  C   UNL     1      33.128 -23.538 -16.498  0.00  0.00    +0.036 C 
ATOM     18  C   UNL     1      34.322 -23.595 -15.790  0.00  0.00    +0.133 C 
ENDROOT
BRANCH   5  19
ATOM     19  O   UNL     1      34.123 -19.538 -23.833  0.00  0.00    -0.382 OA
ATOM     20  H   UNL     1      33.338 -19.374 -24.378  0.00  0.00    +0.210 HD
ENDBRANCH   5  19
BRANCH   8  21
ATOM     21  O   UNL     1      36.387 -18.173 -23.927  0.00  0.00    -0.382 OA
ATOM     22  H   UNL     1      36.811 -19.044 -23.975  0.00  0.00    +0.210 HD
ENDBRANCH   8  21
BRANCH  18  23
ATOM     23  O   UNL     1      34.382 -24.250 -14.600  0.00  0.00    -0.506 OA
ATOM     24  H   UNL     1      33.772 -24.935 -14.411  0.00  0.00    +0.292 HD
ENDBRANCH  18  23
TORSDOF 3
ENDMDL
MODEL 6
REMARK VINA RESULT:      -7.9      1.798      3.695
REMARK  Name = 256737
REMARK  3 active torsions:
REMARK  status: ('A' for Active; 'I' for Inactive)
REMARK    1  A    between atoms: C_5  and  O_19
REMARK    2  A    between atoms: C_8  and  O_21
REMARK    3  A    between atoms: C_18  and  O_23
REMARK                            x       y       z     vdW  Elec       q    Type
REMARK                         _______ _______ _______ _____ _____    ______ ____
ROOT
ATOM      1  C   UNL     1      35.490 -23.786 -15.217  0.00  0.00    +0.027 C 
ATOM      2  C   UNL     1      34.521 -24.587 -14.318  0.00  0.00    +0.005 C 
ATOM      3  C   UNL     1      33.130 -23.950 -14.259  0.00  0.00    +0.005 C 
ATOM      4  C   UNL     1      32.522 -23.935 -15.694  0.00  0.00    +0.022 C 
ATOM      5  C   UNL     1      36.796 -24.576 -14.973  0.00  0.00    +0.137 C 
ATOM      6  C   UNL     1      34.923 -23.806 -16.644  0.00  0.00    +0.003 C 
ATOM      7  C   UNL     1      35.295 -24.791 -13.016  0.00  0.00    +0.032 C 
ATOM      8  C   UNL     1      36.775 -24.827 -13.448  0.00  0.00    +0.137 C 
ATOM      9  C   UNL     1      33.484 -23.257 -16.704  0.00  0.00    +0.004 C 
ATOM     10  C   UNL     1      32.179 -24.700 -13.325  0.00  0.00    +0.005 C 
ATOM     11  C   UNL     1      35.713 -22.317 -14.771  0.00  0.00    +0.002 C 
ATOM     12  C   UNL     1      31.099 -23.383 -15.686  0.00  0.00    -0.026 C 
ATOM     13  C   UNL     1      30.866 -23.933 -13.197  0.00  0.00    +0.026 C 
ATOM     14  C   UNL     1      30.318 -23.431 -14.510  0.00  0.00    -0.023 C 
ATOM     15  C   UNL     1      30.500 -22.898 -16.862  0.00  0.00    -0.001 C 
ATOM     16  C   UNL     1      28.996 -22.950 -14.527  0.00  0.00    +0.032 C 
ATOM     17  C   UNL     1      29.184 -22.433 -16.868  0.00  0.00    +0.036 C 
ATOM     18  C   UNL     1      28.432 -22.454 -15.699  0.00  0.00    +0.133 C 
ENDROOT
BRANCH   5  19
ATOM     19  O   UNL     1      36.788 -25.825 -15.659  0.00  0.00    -0.382 OA
ATOM     20  H   UNL     1      37.692 -26.054 -15.924  0.00  0.00    +0.210 HD
ENDBRANCH   5  19
BRANCH   8  21
ATOM     21  O   UNL     1      37.381 -26.056 -13.092  0.00  0.00    -0.382 OA
ATOM     22  H   UNL     1      36.758 -26.584 -12.568  0.00  0.00    +0.210 HD
ENDBRANCH   8  21
BRANCH  18  23
ATOM     23  O   UNL     1      27.152 -21.998 -15.701  0.00  0.00    -0.506 OA
ATOM     24  H   UNL     1      26.900 -21.305 -15.123  0.00  0.00    +0.292 HD
ENDBRANCH  18  23
TORSDOF 3
ENDMDL
MODEL 7
REMARK VINA RESULT:      -7.8     14.257     17.014
REMARK  Name = 256737
REMARK  3 active torsions:
REMARK  status: ('A' for Active; 'I' for Inactive)
REMARK    1  A    between atoms: C_5  and  O_19
REMARK    2  A    between atoms: C_8  and  O_21
REMARK    3  A    between atoms: C_18  and  O_23
REMARK                            x       y       z     vdW  Elec       q    Type
REMARK                         _______ _______ _______ _____ _____    ______ ____
ROOT
ATOM      1  C   UNL     1      32.246  -8.036 -22.004  0.00  0.00    +0.027 C 
ATOM      2  C   UNL     1      32.498  -8.622 -23.412  0.00  0.00    +0.005 C 
ATOM      3  C   UNL     1      33.121 -10.019 -23.353  0.00  0.00    +0.005 C 
ATOM      4  C   UNL     1      32.133 -10.980 -22.624  0.00  0.00    +0.022 C 
ATOM      5  C   UNL     1      31.757  -6.621 -22.386  0.00  0.00    +0.137 C 
ATOM      6  C   UNL     1      31.236  -8.951 -21.295  0.00  0.00    +0.003 C 
ATOM      7  C   UNL     1      33.243  -7.513 -24.155  0.00  0.00    +0.032 C 
ATOM      8  C   UNL     1      32.729  -6.207 -23.515  0.00  0.00    +0.137 C 
ATOM      9  C   UNL     1      31.719 -10.415 -21.240  0.00  0.00    +0.004 C 
ATOM     10  C   UNL     1      33.430 -10.585 -24.740  0.00  0.00    +0.005 C 
ATOM     11  C   UNL     1      33.520  -7.899 -21.130  0.00  0.00    +0.002 C 
ATOM     12  C   UNL     1      32.665 -12.410 -22.605  0.00  0.00    -0.026 C 
ATOM     13  C   UNL     1      34.180 -11.906 -24.606  0.00  0.00    +0.026 C 
ATOM     14  C   UNL     1      33.598 -12.841 -23.574  0.00  0.00    -0.023 C 
ATOM     15  C   UNL     1      32.179 -13.356 -21.685  0.00  0.00    -0.001 C 
ATOM     16  C   UNL     1      34.053 -14.172 -23.565  0.00  0.00    +0.032 C 
ATOM     17  C   UNL     1      32.632 -14.676 -21.693  0.00  0.00    +0.036 C 
ATOM     18  C   UNL     1      33.573 -15.084 -22.630  0.00  0.00    +0.133 C 
ENDROOT
BRANCH   5  19
ATOM     19  O   UNL     1      30.425  -6.646 -22.891  0.00  0.00    -0.382 OA
ATOM     20  H   UNL     1      29.803  -6.458 -22.172  0.00  0.00    +0.210 HD
ENDBRANCH   5  19
BRANCH   8  21
ATOM     21  O   UNL     1      32.114  -5.373 -24.481  0.00  0.00    -0.382 OA
ATOM     22  H   UNL     1      32.537  -5.511 -25.343  0.00  0.00    +0.210 HD
ENDBRANCH   8  21
BRANCH  18  23
ATOM     23  O   UNL     1      34.018 -16.369 -22.638  0.00  0.00    -0.506 OA
ATOM     24  H   UNL     1      33.554 -17.029 -22.163  0.00  0.00    +0.292 HD
ENDBRANCH  18  23
TORSDOF 3
ENDMDL
MODEL 8
REMARK VINA RESULT:      -7.5      8.044     11.174
REMARK  Name = 256737
REMARK  3 active torsions:
REMARK  status: ('A' for Active; 'I' for Inactive)
REMARK    1  A    between atoms: C_5  and  O_19
REMARK    2  A    between atoms: C_8  and  O_21
REMARK    3  A    between atoms: C_18  and  O_23
REMARK                            x       y       z     vdW  Elec       q    Type
REMARK                         _______ _______ _______ _____ _____    ______ ____
ROOT
ATOM      1  C   UNL     1      33.095 -14.959 -21.566  0.00  0.00    +0.027 C 
ATOM      2  C   UNL     1      33.885 -15.827 -22.571  0.00  0.00    +0.005 C 
ATOM      3  C   UNL     1      34.435 -17.102 -21.924  0.00  0.00    +0.005 C 
ATOM      4  C   UNL     1      33.240 -17.962 -21.412  0.00  0.00    +0.022 C 
ATOM      5  C   UNL     1      32.797 -13.728 -22.452  0.00  0.00    +0.137 C 
ATOM      6  C   UNL     1      31.888 -15.781 -21.092  0.00  0.00    +0.003 C 
ATOM      7  C   UNL     1      34.864 -14.852 -23.226  0.00  0.00    +0.032 C 
ATOM      8  C   UNL     1      34.137 -13.492 -23.187  0.00  0.00    +0.137 C 
ATOM      9  C   UNL     1      32.310 -17.135 -20.486  0.00  0.00    +0.004 C 
ATOM     10  C   UNL     1      35.269 -17.941 -22.894  0.00  0.00    +0.005 C 
ATOM     11  C   UNL     1      33.917 -14.493 -20.336  0.00  0.00    +0.002 C 
ATOM     12  C   UNL     1      33.721 -19.286 -20.828  0.00  0.00    -0.026 C 
ATOM     13  C   UNL     1      35.905 -19.111 -22.151  0.00  0.00    +0.026 C 
ATOM     14  C   UNL     1      34.962 -19.835 -21.222  0.00  0.00    -0.023 C 
ATOM     15  C   UNL     1      32.910 -20.036 -19.958  0.00  0.00    -0.001 C 
ATOM     16  C   UNL     1      35.377 -21.074 -20.701  0.00  0.00    +0.032 C 
ATOM     17  C   UNL     1      33.330 -21.270 -19.456  0.00  0.00    +0.036 C 
ATOM     18  C   UNL     1      34.566 -21.787 -19.823  0.00  0.00    +0.133 C 
ENDROOT
BRANCH   5  19
ATOM     19  O   UNL     1      31.775 -14.004 -23.405  0.00  0.00    -0.382 OA
ATOM     20  H   UNL     1      31.884 -14.907 -23.743  0.00  0.00    +0.210 HD
ENDBRANCH   5  19
BRANCH   8  21
ATOM     21  O   UNL     1      33.956 -12.972 -24.492  0.00  0.00    -0.382 OA
ATOM     22  H   UNL     1      34.815 -12.910 -24.937  0.00  0.00    +0.210 HD
ENDBRANCH   8  21
BRANCH  18  23
ATOM     23  O   UNL     1      34.979 -22.986 -19.333  0.00  0.00    -0.506 OA
ATOM     24  H   UNL     1      35.827 -23.066 -18.943  0.00  0.00    +0.292 HD
ENDBRANCH  18  23
TORSDOF 3
ENDMDL
MODEL 9
REMARK VINA RESULT:      -7.5     19.179     21.460
REMARK  Name = 256737
REMARK  3 active torsions:
REMARK  status: ('A' for Active; 'I' for Inactive)
REMARK    1  A    between atoms: C_5  and  O_19
REMARK    2  A    between atoms: C_8  and  O_21
REMARK    3  A    between atoms: C_18  and  O_23
REMARK                            x       y       z     vdW  Elec       q    Type
REMARK                         _______ _______ _______ _____ _____    ______ ____
ROOT
ATOM      1  C   UNL     1      31.268  -6.688 -22.602  0.00  0.00    +0.027 C 
ATOM      2  C   UNL     1      32.772  -6.597 -22.944  0.00  0.00    +0.005 C 
ATOM      3  C   UNL     1      33.009  -6.236 -24.413  0.00  0.00    +0.005 C 
ATOM      4  C   UNL     1      32.387  -4.835 -24.694  0.00  0.00    +0.022 C 
ATOM      5  C   UNL     1      31.355  -7.181 -21.139  0.00  0.00    +0.137 C 
ATOM      6  C   UNL     1      30.655  -5.298 -22.830  0.00  0.00    +0.003 C 
ATOM      7  C   UNL     1      33.363  -7.897 -22.398  0.00  0.00    +0.032 C 
ATOM      8  C   UNL     1      32.465  -8.255 -21.197  0.00  0.00    +0.137 C 
ATOM      9  C   UNL     1      30.897  -4.786 -24.264  0.00  0.00    +0.004 C 
ATOM     10  C   UNL     1      34.494  -6.202 -24.778  0.00  0.00    +0.005 C 
ATOM     11  C   UNL     1      30.485  -7.739 -23.430  0.00  0.00    +0.002 C 
ATOM     12  C   UNL     1      32.662  -4.385 -26.126  0.00  0.00    -0.026 C 
ATOM     13  C   UNL     1      34.654  -5.985 -26.279  0.00  0.00    +0.026 C 
ATOM     14  C   UNL     1      33.762  -4.906 -26.842  0.00  0.00    -0.023 C 
ATOM     15  C   UNL     1      31.889  -3.381 -26.734  0.00  0.00    -0.001 C 
ATOM     16  C   UNL     1      34.023  -4.456 -28.149  0.00  0.00    +0.032 C 
ATOM     17  C   UNL     1      32.165  -2.935 -28.028  0.00  0.00    +0.036 C 
ATOM     18  C   UNL     1      33.229  -3.476 -28.739  0.00  0.00    +0.133 C 
ENDROOT
BRANCH   5  19
ATOM     19  O   UNL     1      31.751  -6.135 -20.257  0.00  0.00    -0.382 OA
ATOM     20  H   UNL     1      31.473  -6.350 -19.354  0.00  0.00    +0.210 HD
ENDBRANCH   5  19
BRANCH   8  21
ATOM     21  O   UNL     1      33.218  -8.322 -19.999  0.00  0.00    -0.382 OA
ATOM     22  H   UNL     1      32.621  -8.259 -19.237  0.00  0.00    +0.210 HD
ENDBRANCH   8  21
BRANCH  18  23
ATOM     23  O   UNL     1      33.498  -3.047 -30.000  0.00  0.00    -0.506 OA
ATOM     24  H   UNL     1      33.435  -2.136 -30.209  0.00  0.00    +0.292 HD
ENDBRANCH  18  23
TORSDOF 3
ENDMDL
