MODEL 1
REMARK VINA RESULT:     -10.3      0.000      0.000
REMARK  Name = 10450114
REMARK  5 active torsions:
REMARK  status: ('A' for Active; 'I' for Inactive)
REMARK    1  A    between atoms: C_1  and  N_2
REMARK    2  A    between atoms: C_1  and  C_6
REMARK    3  A    between atoms: C_1  and  C_19
REMARK    4  A    between atoms: C_6  and  C_14
REMARK    5  A    between atoms: C_19  and  C_23
REMARK                            x       y       z     vdW  Elec       q    Type
REMARK                         _______ _______ _______ _____ _____    ______ ____
ROOT
ATOM      1  C   UNL     1      35.488 -17.616 -21.731  0.00  0.00    -0.052 C 
ENDROOT
BRANCH   1   2
ATOM      2  N   UNL     1      36.231 -17.737 -22.992  0.00  0.00    +0.382 N 
ATOM      3  H   UNL     1      35.693 -17.311 -23.746  0.00  0.00    -0.089 HD
ATOM      4  H   UNL     1      36.388 -18.723 -23.202  0.00  0.00    -0.089 HD
ATOM      5  H   UNL     1      37.130 -17.262 -22.905  0.00  0.00    -0.089 HD
ENDBRANCH   1   2
BRANCH   1   6
ATOM      6  C   UNL     1      35.098 -16.146 -21.578  0.00  0.00    +0.064 C 
BRANCH   6  14
ATOM      7  O   UNL     1      35.376 -15.535 -23.845  0.00  0.00    -0.275 OA
ATOM      8  O   UNL     1      34.101 -12.364 -24.716  0.00  0.00    -0.273 OA
ATOM      9  N   UNL     1      33.290 -15.079 -22.897  0.00  0.00    -0.273 N 
ATOM     10  N   UNL     1      32.992 -12.181 -22.728  0.00  0.00    -0.303 N 
ATOM     11  C   UNL     1      32.792 -14.272 -24.027  0.00  0.00    +0.152 C 
ATOM     12  C   UNL     1      32.404 -15.127 -21.728  0.00  0.00    +0.096 C 
ATOM     13  C   UNL     1      32.471 -13.827 -20.925  0.00  0.00    +0.043 C 
ATOM     14  C   UNL     1      34.608 -15.561 -22.880  0.00  0.00    +0.224 C 
ATOM     15  C   UNL     1      32.023 -12.607 -21.726  0.00  0.00    +0.091 C 
ATOM     16  C   UNL     1      33.366 -12.869 -23.866  0.00  0.00    +0.241 C 
ATOM     17  C   UNL     1      33.051 -14.883 -25.402  0.00  0.00    +0.031 C 
ATOM     18  H   UNL     1      33.427 -11.311 -22.576  0.00  0.00    +0.149 HD
ENDBRANCH   6  14
ENDBRANCH   1   6
BRANCH   1  19
ATOM     19  C   UNL     1      34.275 -18.571 -21.786  0.00  0.00    +0.007 C 
BRANCH  19  23
ATOM     20  F   UNL     1      31.986 -19.846 -20.730  0.00  0.00    -0.204 F 
ATOM     21  F   UNL     1      36.870 -21.790 -19.221  0.00  0.00    -0.202 F 
ATOM     22  F   UNL     1      34.581 -22.942 -18.266  0.00  0.00    -0.202 F 
ATOM     23  C   UNL     1      34.355 -19.744 -20.840  0.00  0.00    +0.006 C 
ATOM     24  C   UNL     1      33.187 -20.317 -20.364  0.00  0.00    +0.138 C 
ATOM     25  C   UNL     1      35.598 -20.227 -20.464  0.00  0.00    +0.030 C 
ATOM     26  C   UNL     1      35.675 -21.312 -19.592  0.00  0.00    +0.167 C 
ATOM     27  C   UNL     1      33.263 -21.402 -19.491  0.00  0.00    +0.061 C 
ATOM     28  C   UNL     1      34.507 -21.900 -19.105  0.00  0.00    +0.170 C 
ENDBRANCH  19  23
ENDBRANCH   1  19
TORSDOF 5
ENDMDL
MODEL 2
REMARK VINA RESULT:      -9.7      6.989     11.225
REMARK  Name = 10450114
REMARK  5 active torsions:
REMARK  status: ('A' for Active; 'I' for Inactive)
REMARK    1  A    between atoms: C_1  and  N_2
REMARK    2  A    between atoms: C_1  and  C_6
REMARK    3  A    between atoms: C_1  and  C_19
REMARK    4  A    between atoms: C_6  and  C_14
REMARK    5  A    between atoms: C_19  and  C_23
REMARK                            x       y       z     vdW  Elec       q    Type
REMARK                         _______ _______ _______ _____ _____    ______ ____
ROOT
ATOM      1  C   UNL     1      34.517 -22.963 -16.456  0.00  0.00    -0.052 C 
ENDROOT
BRANCH   1   2
ATOM      2  N   UNL     1      33.435 -23.537 -15.644  0.00  0.00    +0.382 N 
ATOM      3  H   UNL     1      33.627 -24.523 -15.471  0.00  0.00    -0.089 HD
ATOM      4  H   UNL     1      32.550 -23.445 -16.142  0.00  0.00    -0.089 HD
ATOM      5  H   UNL     1      33.377 -23.041 -14.754  0.00  0.00    -0.089 HD
ENDBRANCH   1   2
BRANCH   1   6
ATOM      6  C   UNL     1      35.829 -23.551 -15.937  0.00  0.00    +0.064 C 
BRANCH   6  14
ATOM      7  O   UNL     1      35.346 -22.774 -13.757  0.00  0.00    -0.275 OA
ATOM      8  O   UNL     1      37.913 -23.251 -11.386  0.00  0.00    -0.273 OA
ATOM      9  N   UNL     1      36.373 -24.867 -13.907  0.00  0.00    -0.273 N 
ATOM     10  N   UNL     1      39.061 -24.633 -12.798  0.00  0.00    -0.303 N 
ATOM     11  C   UNL     1      36.642 -24.999 -12.464  0.00  0.00    +0.152 C 
ATOM     12  C   UNL     1      36.932 -25.934 -14.745  0.00  0.00    +0.096 C 
ATOM     13  C   UNL     1      38.440 -25.761 -14.935  0.00  0.00    +0.043 C 
ATOM     14  C   UNL     1      35.823 -23.688 -14.434  0.00  0.00    +0.224 C 
ATOM     15  C   UNL     1      39.218 -25.823 -13.623  0.00  0.00    +0.091 C 
ATOM     16  C   UNL     1      37.909 -24.205 -12.166  0.00  0.00    +0.241 C 
ATOM     17  C   UNL     1      35.465 -24.627 -11.565  0.00  0.00    +0.031 C 
ATOM     18  H   UNL     1      39.862 -24.072 -12.678  0.00  0.00    +0.149 HD
ENDBRANCH   6  14
ENDBRANCH   1   6
BRANCH   1  19
ATOM     19  C   UNL     1      34.240 -23.291 -17.939  0.00  0.00    +0.007 C 
BRANCH  19  23
ATOM     20  F   UNL     1      36.749 -22.183 -18.616  0.00  0.00    -0.204 F 
ATOM     21  F   UNL     1      32.311 -19.920 -20.872  0.00  0.00    -0.202 F 
ATOM     22  F   UNL     1      34.797 -18.937 -21.450  0.00  0.00    -0.202 F 
ATOM     23  C   UNL     1      34.391 -22.121 -18.880  0.00  0.00    +0.006 C 
ATOM     24  C   UNL     1      35.657 -21.633 -19.164  0.00  0.00    +0.138 C 
ATOM     25  C   UNL     1      33.259 -21.556 -19.446  0.00  0.00    +0.030 C 
ATOM     26  C   UNL     1      33.397 -20.476 -20.318  0.00  0.00    +0.167 C 
ATOM     27  C   UNL     1      35.795 -20.554 -20.036  0.00  0.00    +0.061 C 
ATOM     28  C   UNL     1      34.665 -19.974 -20.613  0.00  0.00    +0.170 C 
ENDBRANCH  19  23
ENDBRANCH   1  19
TORSDOF 5
ENDMDL
MODEL 3
REMARK VINA RESULT:      -9.5      3.495      5.328
REMARK  Name = 10450114
REMARK  5 active torsions:
REMARK  status: ('A' for Active; 'I' for Inactive)
REMARK    1  A    between atoms: C_1  and  N_2
REMARK    2  A    between atoms: C_1  and  C_6
REMARK    3  A    between atoms: C_1  and  C_19
REMARK    4  A    between atoms: C_6  and  C_14
REMARK    5  A    between atoms: C_19  and  C_23
REMARK                            x       y       z     vdW  Elec       q    Type
REMARK                         _______ _______ _______ _____ _____    ______ ____
ROOT
ATOM      1  C   UNL     1      33.778 -13.038 -24.080  0.00  0.00    -0.052 C 
ENDROOT
BRANCH   1   2
ATOM      2  N   UNL     1      33.561 -12.197 -25.265  0.00  0.00    +0.382 N 
ATOM      3  H   UNL     1      33.021 -12.718 -25.957  0.00  0.00    -0.089 HD
ATOM      4  H   UNL     1      34.461 -11.935 -25.666  0.00  0.00    -0.089 HD
ATOM      5  H   UNL     1      33.050 -11.356 -24.998  0.00  0.00    -0.089 HD
ENDBRANCH   1   2
BRANCH   1   6
ATOM      6  C   UNL     1      32.867 -12.500 -22.976  0.00  0.00    +0.064 C 
BRANCH   6  14
ATOM      7  O   UNL     1      33.432 -10.369 -23.828  0.00  0.00    -0.275 OA
ATOM      8  O   UNL     1      33.525  -7.771 -21.444  0.00  0.00    -0.273 OA
ATOM      9  N   UNL     1      31.662 -10.440 -22.306  0.00  0.00    -0.273 N 
ATOM     10  N   UNL     1      32.513  -9.081 -19.869  0.00  0.00    -0.303 N 
ATOM     11  C   UNL     1      31.554  -8.979 -22.142  0.00  0.00    +0.152 C 
ATOM     12  C   UNL     1      30.791 -11.231 -21.428  0.00  0.00    +0.096 C 
ATOM     13  C   UNL     1      31.335 -11.277 -19.999  0.00  0.00    +0.043 C 
ATOM     14  C   UNL     1      32.685 -11.006 -23.081  0.00  0.00    +0.224 C 
ATOM     15  C   UNL     1      31.424  -9.898 -19.350  0.00  0.00    +0.091 C 
ATOM     16  C   UNL     1      32.624  -8.557 -21.142  0.00  0.00    +0.241 C 
ATOM     17  C   UNL     1      31.596  -8.191 -23.450  0.00  0.00    +0.031 C 
ATOM     18  H   UNL     1      33.249  -8.882 -19.245  0.00  0.00    +0.149 HD
ENDBRANCH   6  14
ENDBRANCH   1   6
BRANCH   1  19
ATOM     19  C   UNL     1      33.482 -14.505 -24.462  0.00  0.00    +0.007 C 
BRANCH  19  23
ATOM     20  F   UNL     1      34.646 -16.867 -25.484  0.00  0.00    -0.204 F 
ATOM     21  F   UNL     1      34.905 -16.070 -20.080  0.00  0.00    -0.202 F 
ATOM     22  F   UNL     1      35.997 -18.319 -21.188  0.00  0.00    -0.202 F 
ATOM     23  C   UNL     1      34.156 -15.531 -23.584  0.00  0.00    +0.006 C 
ATOM     24  C   UNL     1      34.705 -16.665 -24.160  0.00  0.00    +0.138 C 
ATOM     25  C   UNL     1      34.215 -15.318 -22.216  0.00  0.00    +0.030 C 
ATOM     26  C   UNL     1      34.840 -16.263 -21.404  0.00  0.00    +0.167 C 
ATOM     27  C   UNL     1      35.330 -17.611 -23.348  0.00  0.00    +0.061 C 
ATOM     28  C   UNL     1      35.397 -17.410 -21.969  0.00  0.00    +0.170 C 
ENDBRANCH  19  23
ENDBRANCH   1  19
TORSDOF 5
ENDMDL
MODEL 4
REMARK VINA RESULT:      -9.2      3.036      4.957
REMARK  Name = 10450114
REMARK  5 active torsions:
REMARK  status: ('A' for Active; 'I' for Inactive)
REMARK    1  A    between atoms: C_1  and  N_2
REMARK    2  A    between atoms: C_1  and  C_6
REMARK    3  A    between atoms: C_1  and  C_19
REMARK    4  A    between atoms: C_6  and  C_14
REMARK    5  A    between atoms: C_19  and  C_23
REMARK                            x       y       z     vdW  Elec       q    Type
REMARK                         _______ _______ _______ _____ _____    ______ ____
ROOT
ATOM      1  C   UNL     1      33.491 -13.458 -23.371  0.00  0.00    -0.052 C 
ENDROOT
BRANCH   1   2
ATOM      2  N   UNL     1      32.797 -14.511 -24.123  0.00  0.00    +0.382 N 
ATOM      3  H   UNL     1      32.289 -14.093 -24.903  0.00  0.00    -0.089 HD
ATOM      4  H   UNL     1      32.139 -14.991 -23.509  0.00  0.00    -0.089 HD
ATOM      5  H   UNL     1      33.478 -15.180 -24.480  0.00  0.00    -0.089 HD
ENDBRANCH   1   2
BRANCH   1   6
ATOM      6  C   UNL     1      32.449 -12.775 -22.485  0.00  0.00    +0.064 C 
BRANCH   6  14
ATOM      7  O   UNL     1      33.038 -10.827 -23.688  0.00  0.00    -0.275 OA
ATOM      8  O   UNL     1      33.520  -7.936 -21.726  0.00  0.00    -0.273 OA
ATOM      9  N   UNL     1      31.434 -10.564 -22.010  0.00  0.00    -0.273 N 
ATOM     10  N   UNL     1      32.607  -8.941 -19.889  0.00  0.00    -0.303 N 
ATOM     11  C   UNL     1      31.424  -9.090 -22.051  0.00  0.00    +0.152 C 
ATOM     12  C   UNL     1      30.617 -11.163 -20.948  0.00  0.00    +0.096 C 
ATOM     13  C   UNL     1      31.303 -11.047 -19.586  0.00  0.00    +0.043 C 
ATOM     14  C   UNL     1      32.339 -11.301 -22.789  0.00  0.00    +0.224 C 
ATOM     15  C   UNL     1      31.535  -9.601 -19.155  0.00  0.00    +0.091 C 
ATOM     16  C   UNL     1      32.614  -8.608 -21.229  0.00  0.00    +0.241 C 
ATOM     17  C   UNL     1      31.373  -8.497 -23.458  0.00  0.00    +0.031 C 
ATOM     18  H   UNL     1      33.414  -8.708 -19.373  0.00  0.00    +0.149 HD
ENDBRANCH   6  14
ENDBRANCH   1   6
BRANCH   1  19
ATOM     19  C   UNL     1      34.644 -14.107 -22.574  0.00  0.00    +0.007 C 
BRANCH  19  23
ATOM     20  F   UNL     1      33.818 -15.525 -20.275  0.00  0.00    -0.204 F 
ATOM     21  F   UNL     1      35.284 -18.462 -24.649  0.00  0.00    -0.202 F 
ATOM     22  F   UNL     1      34.465 -19.721 -22.364  0.00  0.00    -0.202 F 
ATOM     23  C   UNL     1      34.597 -15.614 -22.515  0.00  0.00    +0.006 C 
ATOM     24  C   UNL     1      34.180 -16.238 -21.350  0.00  0.00    +0.138 C 
ATOM     25  C   UNL     1      34.971 -16.348 -23.630  0.00  0.00    +0.030 C 
ATOM     26  C   UNL     1      34.926 -17.741 -23.579  0.00  0.00    +0.167 C 
ATOM     27  C   UNL     1      34.134 -17.631 -21.299  0.00  0.00    +0.061 C 
ATOM     28  C   UNL     1      34.508 -18.383 -22.413  0.00  0.00    +0.170 C 
ENDBRANCH  19  23
ENDBRANCH   1  19
TORSDOF 5
ENDMDL
MODEL 5
REMARK VINA RESULT:      -9.1      9.512     11.832
REMARK  Name = 10450114
REMARK  5 active torsions:
REMARK  status: ('A' for Active; 'I' for Inactive)
REMARK    1  A    between atoms: C_1  and  N_2
REMARK    2  A    between atoms: C_1  and  C_6
REMARK    3  A    between atoms: C_1  and  C_19
REMARK    4  A    between atoms: C_6  and  C_14
REMARK    5  A    between atoms: C_19  and  C_23
REMARK                            x       y       z     vdW  Elec       q    Type
REMARK                         _______ _______ _______ _____ _____    ______ ____
ROOT
ATOM      1  C   UNL     1      33.878 -23.501 -15.057  0.00  0.00    -0.052 C 
ENDROOT
BRANCH   1   2
ATOM      2  N   UNL     1      33.729 -23.271 -16.500  0.00  0.00    +0.382 N 
ATOM      3  H   UNL     1      34.411 -22.577 -16.805  0.00  0.00    -0.089 HD
ATOM      4  H   UNL     1      32.788 -22.932 -16.695  0.00  0.00    -0.089 HD
ATOM      5  H   UNL     1      33.887 -24.145 -17.002  0.00  0.00    -0.089 HD
ENDBRANCH   1   2
BRANCH   1   6
ATOM      6  C   UNL     1      35.144 -22.769 -14.613  0.00  0.00    +0.064 C 
BRANCH   6  14
ATOM      7  O   UNL     1      36.596 -23.710 -16.223  0.00  0.00    -0.275 OA
ATOM      8  O   UNL     1      37.838 -26.917 -15.439  0.00  0.00    -0.273 OA
ATOM      9  N   UNL     1      37.240 -23.937 -13.989  0.00  0.00    -0.273 N 
ATOM     10  N   UNL     1      37.082 -26.764 -13.288  0.00  0.00    -0.303 N 
ATOM     11  C   UNL     1      38.347 -24.875 -14.253  0.00  0.00    +0.152 C 
ATOM     12  C   UNL     1      36.963 -23.684 -12.570  0.00  0.00    +0.096 C 
ATOM     13  C   UNL     1      36.218 -24.856 -11.931  0.00  0.00    +0.043 C 
ATOM     14  C   UNL     1      36.391 -23.513 -15.023  0.00  0.00    +0.224 C 
ATOM     15  C   UNL     1      37.014 -26.159 -11.965  0.00  0.00    +0.091 C 
ATOM     16  C   UNL     1      37.734 -26.264 -14.398  0.00  0.00    +0.241 C 
ATOM     17  C   UNL     1      39.246 -24.480 -15.422  0.00  0.00    +0.031 C 
ATOM     18  H   UNL     1      36.610 -27.621 -13.404  0.00  0.00    +0.149 HD
ENDBRANCH   6  14
ENDBRANCH   1   6
BRANCH   1  19
ATOM     19  C   UNL     1      32.599 -23.002 -14.349  0.00  0.00    +0.007 C 
BRANCH  19  23
ATOM     20  F   UNL     1      31.603 -25.620 -13.982  0.00  0.00    -0.204 F 
ATOM     21  F   UNL     1      28.653 -22.220 -17.088  0.00  0.00    -0.202 F 
ATOM     22  F   UNL     1      27.792 -24.780 -16.658  0.00  0.00    -0.202 F 
ATOM     23  C   UNL     1      31.310 -23.482 -14.969  0.00  0.00    +0.006 C 
ATOM     24  C   UNL     1      30.886 -24.782 -14.743  0.00  0.00    +0.138 C 
ATOM     25  C   UNL     1      30.571 -22.611 -15.755  0.00  0.00    +0.030 C 
ATOM     26  C   UNL     1      29.377 -23.051 -16.327  0.00  0.00    +0.167 C 
ATOM     27  C   UNL     1      29.693 -25.222 -15.315  0.00  0.00    +0.061 C 
ATOM     28  C   UNL     1      28.938 -24.357 -16.107  0.00  0.00    +0.170 C 
ENDBRANCH  19  23
ENDBRANCH   1  19
TORSDOF 5
ENDMDL
MODEL 6
REMARK VINA RESULT:      -8.9      2.252      3.843
REMARK  Name = 10450114
REMARK  5 active torsions:
REMARK  status: ('A' for Active; 'I' for Inactive)
REMARK    1  A    between atoms: C_1  and  N_2
REMARK    2  A    between atoms: C_1  and  C_6
REMARK    3  A    between atoms: C_1  and  C_19
REMARK    4  A    between atoms: C_6  and  C_14
REMARK    5  A    between atoms: C_19  and  C_23
REMARK                            x       y       z     vdW  Elec       q    Type
REMARK                         _______ _______ _______ _____ _____    ______ ____
ROOT
ATOM      1  C   UNL     1      34.901 -19.733 -20.393  0.00  0.00    -0.052 C 
ENDROOT
BRANCH   1   2
ATOM      2  N   UNL     1      36.293 -19.276 -20.504  0.00  0.00    +0.382 N 
ATOM      3  H   UNL     1      36.852 -19.997 -20.961  0.00  0.00    -0.089 HD
ATOM      4  H   UNL     1      36.667 -19.097 -19.572  0.00  0.00    -0.089 HD
ATOM      5  H   UNL     1      36.328 -18.419 -21.054  0.00  0.00    -0.089 HD
ENDBRANCH   1   2
BRANCH   1   6
ATOM      6  C   UNL     1      34.130 -19.108 -21.556  0.00  0.00    +0.064 C 
BRANCH   6  14
ATOM      7  O   UNL     1      33.399 -17.078 -20.588  0.00  0.00    -0.275 OA
ATOM      8  O   UNL     1      32.517 -14.549 -22.882  0.00  0.00    -0.273 OA
ATOM      9  N   UNL     1      34.880 -16.895 -22.385  0.00  0.00    -0.273 N 
ATOM     10  N   UNL     1      33.438 -15.705 -24.624  0.00  0.00    -0.303 N 
ATOM     11  C   UNL     1      34.737 -15.436 -22.541  0.00  0.00    +0.152 C 
ATOM     12  C   UNL     1      35.702 -17.553 -23.408  0.00  0.00    +0.096 C 
ATOM     13  C   UNL     1      34.940 -17.695 -24.726  0.00  0.00    +0.043 C 
ATOM     14  C   UNL     1      34.099 -17.602 -21.458  0.00  0.00    +0.224 C 
ATOM     15  C   UNL     1      34.536 -16.353 -25.330  0.00  0.00    +0.091 C 
ATOM     16  C   UNL     1      33.463 -15.191 -23.342  0.00  0.00    +0.241 C 
ATOM     17  C   UNL     1      34.795 -14.651 -21.232  0.00  0.00    +0.031 C 
ATOM     18  H   UNL     1      32.587 -15.626 -25.113  0.00  0.00    +0.149 HD
ENDBRANCH   6  14
ENDBRANCH   1   6
BRANCH   1  19
ATOM     19  C   UNL     1      34.892 -21.277 -20.409  0.00  0.00    +0.007 C 
BRANCH  19  23
ATOM     20  F   UNL     1      36.990 -21.613 -18.547  0.00  0.00    -0.204 F 
ATOM     21  F   UNL     1      32.028 -23.391 -17.091  0.00  0.00    -0.202 F 
ATOM     22  F   UNL     1      34.140 -23.661 -15.374  0.00  0.00    -0.202 F 
ATOM     23  C   UNL     1      34.692 -21.918 -19.057  0.00  0.00    +0.006 C 
ATOM     24  C   UNL     1      35.772 -22.048 -18.198  0.00  0.00    +0.138 C 
ATOM     25  C   UNL     1      33.430 -22.365 -18.699  0.00  0.00    +0.030 C 
ATOM     26  C   UNL     1      33.243 -22.955 -17.450  0.00  0.00    +0.167 C 
ATOM     27  C   UNL     1      35.584 -22.638 -16.948  0.00  0.00    +0.061 C 
ATOM     28  C   UNL     1      34.320 -23.093 -16.574  0.00  0.00    +0.170 C 
ENDBRANCH  19  23
ENDBRANCH   1  19
TORSDOF 5
ENDMDL
MODEL 7
REMARK VINA RESULT:      -8.9      3.536      5.273
REMARK  Name = 10450114
REMARK  5 active torsions:
REMARK  status: ('A' for Active; 'I' for Inactive)
REMARK    1  A    between atoms: C_1  and  N_2
REMARK    2  A    between atoms: C_1  and  C_6
REMARK    3  A    between atoms: C_1  and  C_19
REMARK    4  A    between atoms: C_6  and  C_14
REMARK    5  A    between atoms: C_19  and  C_23
REMARK                            x       y       z     vdW  Elec       q    Type
REMARK                         _______ _______ _______ _____ _____    ______ ____
ROOT
ATOM      1  C   UNL     1      33.856 -12.893 -24.482  0.00  0.00    -0.052 C 
ENDROOT
BRANCH   1   2
ATOM      2  N   UNL     1      33.191 -12.025 -25.462  0.00  0.00    +0.382 N 
ATOM      3  H   UNL     1      32.285 -12.423 -25.710  0.00  0.00    -0.089 HD
ATOM      4  H   UNL     1      33.769 -11.950 -26.299  0.00  0.00    -0.089 HD
ATOM      5  H   UNL     1      33.056 -11.097 -25.059  0.00  0.00    -0.089 HD
ENDBRANCH   1   2
BRANCH   1   6
ATOM      6  C   UNL     1      33.847 -12.151 -23.145  0.00  0.00    +0.064 C 
BRANCH   6  14
ATOM      7  O   UNL     1      33.988  -9.927 -23.933  0.00  0.00    -0.275 OA
ATOM      8  O   UNL     1      33.112  -7.441 -21.589  0.00  0.00    -0.273 OA
ATOM      9  N   UNL     1      32.094 -10.462 -22.675  0.00  0.00    -0.273 N 
ATOM     10  N   UNL     1      32.241  -8.994 -20.158  0.00  0.00    -0.303 N 
ATOM     11  C   UNL     1      31.612  -9.074 -22.545  0.00  0.00    +0.152 C 
ATOM     12  C   UNL     1      31.329 -11.461 -21.919  0.00  0.00    +0.096 C 
ATOM     13  C   UNL     1      31.663 -11.407 -20.427  0.00  0.00    +0.043 C 
ATOM     14  C   UNL     1      33.322 -10.744 -23.292  0.00  0.00    +0.224 C 
ATOM     15  C   UNL     1      31.322 -10.063 -19.788  0.00  0.00    +0.091 C 
ATOM     16  C   UNL     1      32.397  -8.429 -21.408  0.00  0.00    +0.241 C 
ATOM     17  C   UNL     1      31.643  -8.270 -23.842  0.00  0.00    +0.031 C 
ATOM     18  H   UNL     1      32.812  -8.636 -19.439  0.00  0.00    +0.149 HD
ENDBRANCH   6  14
ENDBRANCH   1   6
BRANCH   1  19
ATOM     19  C   UNL     1      33.108 -14.244 -24.440  0.00  0.00    +0.007 C 
BRANCH  19  23
ATOM     20  F   UNL     1      32.046 -14.491 -21.834  0.00  0.00    -0.204 F 
ATOM     21  F   UNL     1      36.215 -17.768 -23.173  0.00  0.00    -0.202 F 
ATOM     22  F   UNL     1      35.102 -17.914 -20.679  0.00  0.00    -0.202 F 
ATOM     23  C   UNL     1      33.643 -15.227 -23.429  0.00  0.00    +0.006 C 
ATOM     24  C   UNL     1      33.069 -15.290 -22.169  0.00  0.00    +0.138 C 
ATOM     25  C   UNL     1      34.699 -16.052 -23.779  0.00  0.00    +0.030 C 
ATOM     26  C   UNL     1      35.194 -16.964 -22.847  0.00  0.00    +0.167 C 
ATOM     27  C   UNL     1      33.563 -16.202 -21.236  0.00  0.00    +0.061 C 
ATOM     28  C   UNL     1      34.626 -17.039 -21.575  0.00  0.00    +0.170 C 
ENDBRANCH  19  23
ENDBRANCH   1  19
TORSDOF 5
ENDMDL
MODEL 8
REMARK VINA RESULT:      -8.9      9.450     12.034
REMARK  Name = 10450114
REMARK  5 active torsions:
REMARK  status: ('A' for Active; 'I' for Inactive)
REMARK    1  A    between atoms: C_1  and  N_2
REMARK    2  A    between atoms: C_1  and  C_6
REMARK    3  A    between atoms: C_1  and  C_19
REMARK    4  A    between atoms: C_6  and  C_14
REMARK    5  A    between atoms: C_19  and  C_23
REMARK                            x       y       z     vdW  Elec       q    Type
REMARK                         _______ _______ _______ _____ _____    ______ ____
ROOT
ATOM      1  C   UNL     1      34.218 -23.619 -16.211  0.00  0.00    -0.052 C 
ENDROOT
BRANCH   1   2
ATOM      2  N   UNL     1      34.153 -23.078 -17.575  0.00  0.00    +0.382 N 
ATOM      3  H   UNL     1      34.910 -22.410 -17.712  0.00  0.00    -0.089 HD
ATOM      4  H   UNL     1      33.258 -22.610 -17.713  0.00  0.00    -0.089 HD
ATOM      5  H   UNL     1      34.245 -23.839 -18.248  0.00  0.00    -0.089 HD
ENDBRANCH   1   2
BRANCH   1   6
ATOM      6  C   UNL     1      35.665 -23.472 -15.738  0.00  0.00    +0.064 C 
BRANCH   6  14
ATOM      7  O   UNL     1      35.405 -22.809 -13.483  0.00  0.00    -0.275 OA
ATOM      8  O   UNL     1      38.160 -23.488 -11.388  0.00  0.00    -0.273 OA
ATOM      9  N   UNL     1      36.348 -24.916 -13.842  0.00  0.00    -0.273 N 
ATOM     10  N   UNL     1      39.132 -24.816 -12.973  0.00  0.00    -0.303 N 
ATOM     11  C   UNL     1      36.742 -25.138 -12.439  0.00  0.00    +0.152 C 
ATOM     12  C   UNL     1      36.796 -25.947 -14.785  0.00  0.00    +0.096 C 
ATOM     13  C   UNL     1      38.285 -25.803 -15.103  0.00  0.00    +0.043 C 
ATOM     14  C   UNL     1      35.790 -23.695 -14.251  0.00  0.00    +0.224 C 
ATOM     15  C   UNL     1      39.176 -25.961 -13.873  0.00  0.00    +0.091 C 
ATOM     16  C   UNL     1      38.056 -24.396 -12.216  0.00  0.00    +0.241 C 
ATOM     17  C   UNL     1      35.663 -24.788 -11.416  0.00  0.00    +0.031 C 
ATOM     18  H   UNL     1      39.958 -24.284 -12.897  0.00  0.00    +0.149 HD
ENDBRANCH   6  14
ENDBRANCH   1   6
BRANCH   1  19
ATOM     19  C   UNL     1      33.204 -22.854 -15.334  0.00  0.00    +0.007 C 
BRANCH  19  23
ATOM     20  F   UNL     1      32.848 -24.835 -13.351  0.00  0.00    -0.204 F 
ATOM     21  F   UNL     1      28.538 -23.612 -16.488  0.00  0.00    -0.202 F 
ATOM     22  F   UNL     1      28.317 -25.513 -14.534  0.00  0.00    -0.202 F 
ATOM     23  C   UNL     1      31.893 -23.570 -15.118  0.00  0.00    +0.006 C 
ATOM     24  C   UNL     1      31.796 -24.530 -14.124  0.00  0.00    +0.138 C 
ATOM     25  C   UNL     1      30.808 -23.251 -15.919  0.00  0.00    +0.030 C 
ATOM     26  C   UNL     1      29.595 -23.910 -15.721  0.00  0.00    +0.167 C 
ATOM     27  C   UNL     1      30.583 -25.189 -13.926  0.00  0.00    +0.061 C 
ATOM     28  C   UNL     1      29.482 -24.879 -14.724  0.00  0.00    +0.170 C 
ENDBRANCH  19  23
ENDBRANCH   1  19
TORSDOF 5
ENDMDL
MODEL 9
REMARK VINA RESULT:      -8.9      6.494     10.616
REMARK  Name = 10450114
REMARK  5 active torsions:
REMARK  status: ('A' for Active; 'I' for Inactive)
REMARK    1  A    between atoms: C_1  and  N_2
REMARK    2  A    between atoms: C_1  and  C_6
REMARK    3  A    between atoms: C_1  and  C_19
REMARK    4  A    between atoms: C_6  and  C_14
REMARK    5  A    between atoms: C_19  and  C_23
REMARK                            x       y       z     vdW  Elec       q    Type
REMARK                         _______ _______ _______ _____ _____    ______ ____
ROOT
ATOM      1  C   UNL     1      34.041 -22.857 -17.213  0.00  0.00    -0.052 C 
ENDROOT
BRANCH   1   2
ATOM      2  N   UNL     1      32.694 -23.069 -16.669  0.00  0.00    +0.382 N 
ATOM      3  H   UNL     1      32.576 -22.511 -15.824  0.00  0.00    -0.089 HD
ATOM      4  H   UNL     1      32.569 -24.056 -16.443  0.00  0.00    -0.089 HD
ATOM      5  H   UNL     1      31.998 -22.789 -17.361  0.00  0.00    -0.089 HD
ENDBRANCH   1   2
BRANCH   1   6
ATOM      6  C   UNL     1      34.949 -23.919 -16.593  0.00  0.00    +0.064 C 
BRANCH   6  14
ATOM      7  O   UNL     1      34.963 -22.539 -14.674  0.00  0.00    -0.275 OA
ATOM      8  O   UNL     1      37.795 -22.875 -12.599  0.00  0.00    -0.273 OA
ATOM      9  N   UNL     1      35.628 -24.756 -14.361  0.00  0.00    -0.273 N 
ATOM     10  N   UNL     1      38.470 -24.760 -13.700  0.00  0.00    -0.303 N 
ATOM     11  C   UNL     1      36.115 -24.567 -12.982  0.00  0.00    +0.152 C 
ATOM     12  C   UNL     1      35.873 -26.087 -14.930  0.00  0.00    +0.096 C 
ATOM     13  C   UNL     1      37.335 -26.255 -15.345  0.00  0.00    +0.043 C 
ATOM     14  C   UNL     1      35.177 -23.668 -15.123  0.00  0.00    +0.224 C 
ATOM     15  C   UNL     1      38.306 -26.128 -14.174  0.00  0.00    +0.091 C 
ATOM     16  C   UNL     1      37.518 -23.977 -13.076  0.00  0.00    +0.241 C 
ATOM     17  C   UNL     1      35.175 -23.765 -12.084  0.00  0.00    +0.031 C 
ATOM     18  H   UNL     1      39.354 -24.348 -13.841  0.00  0.00    +0.149 HD
ENDBRANCH   6  14
ENDBRANCH   1   6
BRANCH   1  19
ATOM     19  C   UNL     1      33.963 -22.938 -18.754  0.00  0.00    +0.007 C 
BRANCH  19  23
ATOM     20  F   UNL     1      32.264 -20.970 -19.860  0.00  0.00    -0.204 F 
ATOM     21  F   UNL     1      37.656 -20.234 -20.405  0.00  0.00    -0.202 F 
ATOM     22  F   UNL     1      35.910 -18.397 -21.433  0.00  0.00    -0.202 F 
ATOM     23  C   UNL     1      34.484 -21.719 -19.475  0.00  0.00    +0.006 C 
ATOM     24  C   UNL     1      33.587 -20.797 -19.990  0.00  0.00    +0.138 C 
ATOM     25  C   UNL     1      35.852 -21.544 -19.607  0.00  0.00    +0.030 C 
ATOM     26  C   UNL     1      36.336 -20.417 -20.271  0.00  0.00    +0.167 C 
ATOM     27  C   UNL     1      34.071 -19.670 -20.654  0.00  0.00    +0.061 C 
ATOM     28  C   UNL     1      35.445 -19.479 -20.795  0.00  0.00    +0.170 C 
ENDBRANCH  19  23
ENDBRANCH   1  19
TORSDOF 5
ENDMDL
