MODEL 1
REMARK VINA RESULT:      -8.6      0.000      0.000
REMARK  Name = 5289417
REMARK  5 active torsions:
REMARK  status: ('A' for Active; 'I' for Inactive)
REMARK    1  A    between atoms: C_4  and  C_13
REMARK    2  A    between atoms: C_13  and  C_14
REMARK    3  A    between atoms: C_13  and  C_21
REMARK    4  A    between atoms: C_14  and  C_15
REMARK    5  A    between atoms: C_21  and  S_22
REMARK                            x       y       z     vdW  Elec       q    Type
REMARK                         _______ _______ _______ _____ _____    ______ ____
ROOT
ATOM      1  N   UNL     1      34.212 -14.402 -23.639  0.00  0.00    -0.320 N 
ATOM      2  N   UNL     1      32.833 -14.935 -21.978  0.00  0.00    -0.318 N 
ATOM      3  N   UNL     1      32.810 -11.058 -23.249  0.00  0.00    -0.327 N 
ATOM      4  C   UNL     1      33.746 -15.384 -22.810  0.00  0.00    +0.145 C 
ATOM      5  C   UNL     1      33.555 -13.243 -23.319  0.00  0.00    +0.056 C 
ATOM      6  C   UNL     1      32.700 -13.600 -22.282  0.00  0.00    +0.058 C 
ATOM      7  C   UNL     1      33.619 -11.958 -23.817  0.00  0.00    +0.130 C 
ATOM      8  C   UNL     1      31.872 -12.620 -21.719  0.00  0.00    +0.031 C 
ATOM      9  C   UNL     1      31.965 -11.336 -22.248  0.00  0.00    +0.059 C 
ATOM     10  H   UNL     1      34.896 -14.508 -24.339  0.00  0.00    +0.148 HD
ATOM     11  H   UNL     1      32.348 -15.443 -21.288  0.00  0.00    +0.148 HD
ATOM     12  H   UNL     1      32.837 -10.133 -23.587  0.00  0.00    +0.147 HD
ENDROOT
BRANCH   4  13
ATOM     13  C   UNL     1      34.257 -16.765 -22.896  0.00  0.00    +0.052 C 
BRANCH  13  14
ATOM     14  C   UNL     1      35.298 -17.121 -21.775  0.00  0.00    +0.031 C 
BRANCH  14  15
ATOM     15  C   UNL     1      35.065 -18.488 -21.173  0.00  0.00    -0.022 C 
ATOM     16  C   UNL     1      36.153 -19.254 -20.790  0.00  0.00    -0.004 C 
ATOM     17  C   UNL     1      33.768 -18.947 -21.017  0.00  0.00    -0.004 C 
ATOM     18  C   UNL     1      35.938 -20.516 -20.235  0.00  0.00    -0.000 C 
ATOM     19  C   UNL     1      33.553 -20.208 -20.461  0.00  0.00    -0.000 C 
ATOM     20  C   UNL     1      34.638 -20.993 -20.070  0.00  0.00    -0.000 C 
ENDBRANCH  14  15
ENDBRANCH  13  14
BRANCH  13  21
ATOM     21  C   UNL     1      34.939 -17.126 -24.257  0.00  0.00    +0.057 C 
BRANCH  21  22
ATOM     22  S   UNL     1      34.445 -18.775 -24.852  0.00  0.00    -0.168 S 
ATOM     23  H   UNL     1      34.930 -19.726 -24.009  0.00  0.00    +0.102 HD
ENDBRANCH  21  22
ENDBRANCH  13  21
ENDBRANCH   4  13
TORSDOF 5
ENDMDL
MODEL 2
REMARK VINA RESULT:      -8.5      0.099      1.113
REMARK  Name = 5289417
REMARK  5 active torsions:
REMARK  status: ('A' for Active; 'I' for Inactive)
REMARK    1  A    between atoms: C_4  and  C_13
REMARK    2  A    between atoms: C_13  and  C_14
REMARK    3  A    between atoms: C_13  and  C_21
REMARK    4  A    between atoms: C_14  and  C_15
REMARK    5  A    between atoms: C_21  and  S_22
REMARK                            x       y       z     vdW  Elec       q    Type
REMARK                         _______ _______ _______ _____ _____    ______ ____
ROOT
ATOM      1  N   UNL     1      34.141 -14.328 -23.646  0.00  0.00    -0.320 N 
ATOM      2  N   UNL     1      32.804 -14.868 -21.953  0.00  0.00    -0.318 N 
ATOM      3  N   UNL     1      32.730 -10.992 -23.225  0.00  0.00    -0.327 N 
ATOM      4  C   UNL     1      33.701 -15.313 -22.805  0.00  0.00    +0.145 C 
ATOM      5  C   UNL     1      33.485 -13.173 -23.311  0.00  0.00    +0.056 C 
ATOM      6  C   UNL     1      32.656 -13.535 -22.254  0.00  0.00    +0.058 C 
ATOM      7  C   UNL     1      33.530 -11.888 -23.812  0.00  0.00    +0.130 C 
ATOM      8  C   UNL     1      31.837 -12.559 -21.673  0.00  0.00    +0.031 C 
ATOM      9  C   UNL     1      31.910 -11.275 -22.204  0.00  0.00    +0.059 C 
ATOM     10  H   UNL     1      34.809 -14.431 -24.362  0.00  0.00    +0.148 HD
ATOM     11  H   UNL     1      32.339 -15.379 -21.251  0.00  0.00    +0.148 HD
ATOM     12  H   UNL     1      32.743 -10.068 -23.564  0.00  0.00    +0.147 HD
ENDROOT
BRANCH   4  13
ATOM     13  C   UNL     1      34.217 -16.691 -22.903  0.00  0.00    +0.052 C 
BRANCH  13  14
ATOM     14  C   UNL     1      35.237 -17.060 -21.768  0.00  0.00    +0.031 C 
BRANCH  14  15
ATOM     15  C   UNL     1      34.988 -18.431 -21.180  0.00  0.00    -0.022 C 
ATOM     16  C   UNL     1      33.685 -18.870 -21.012  0.00  0.00    -0.004 C 
ATOM     17  C   UNL     1      36.067 -19.220 -20.821  0.00  0.00    -0.004 C 
ATOM     18  C   UNL     1      33.455 -20.134 -20.470  0.00  0.00    -0.000 C 
ATOM     19  C   UNL     1      35.838 -20.485 -20.279  0.00  0.00    -0.000 C 
ATOM     20  C   UNL     1      34.531 -20.942 -20.103  0.00  0.00    -0.000 C 
ENDBRANCH  14  15
ENDBRANCH  13  14
BRANCH  13  21
ATOM     21  C   UNL     1      34.926 -17.029 -24.256  0.00  0.00    +0.057 C 
BRANCH  21  22
ATOM     22  S   UNL     1      34.485 -18.689 -24.861  0.00  0.00    -0.168 S 
ATOM     23  H   UNL     1      34.799 -18.789 -26.182  0.00  0.00    +0.102 HD
ENDBRANCH  21  22
ENDBRANCH  13  21
ENDBRANCH   4  13
TORSDOF 5
ENDMDL
MODEL 3
REMARK VINA RESULT:      -8.5      6.546     10.295
REMARK  Name = 5289417
REMARK  5 active torsions:
REMARK  status: ('A' for Active; 'I' for Inactive)
REMARK    1  A    between atoms: C_4  and  C_13
REMARK    2  A    between atoms: C_13  and  C_14
REMARK    3  A    between atoms: C_13  and  C_21
REMARK    4  A    between atoms: C_14  and  C_15
REMARK    5  A    between atoms: C_21  and  S_22
REMARK                            x       y       z     vdW  Elec       q    Type
REMARK                         _______ _______ _______ _____ _____    ______ ____
ROOT
ATOM      1  N   UNL     1      32.933 -23.904 -15.315  0.00  0.00    -0.320 N 
ATOM      2  N   UNL     1      31.682 -23.055 -16.947  0.00  0.00    -0.318 N 
ATOM      3  N   UNL     1      29.758 -25.137 -14.013  0.00  0.00    -0.327 N 
ATOM      4  C   UNL     1      32.904 -23.185 -16.478  0.00  0.00    +0.145 C 
ATOM      5  C   UNL     1      31.644 -24.262 -15.016  0.00  0.00    +0.056 C 
ATOM      6  C   UNL     1      30.883 -23.721 -16.047  0.00  0.00    +0.058 C 
ATOM      7  C   UNL     1      31.085 -24.981 -13.980  0.00  0.00    +0.130 C 
ATOM      8  C   UNL     1      29.496 -23.913 -16.036  0.00  0.00    +0.031 C 
ATOM      9  C   UNL     1      28.968 -24.643 -14.975  0.00  0.00    +0.059 C 
ATOM     10  H   UNL     1      33.734 -24.125 -14.788  0.00  0.00    +0.148 HD
ATOM     11  H   UNL     1      31.401 -22.584 -17.764  0.00  0.00    +0.148 HD
ATOM     12  H   UNL     1      29.334 -25.646 -13.284  0.00  0.00    +0.147 HD
ENDROOT
BRANCH   4  13
ATOM     13  C   UNL     1      34.140 -22.649 -17.077  0.00  0.00    +0.052 C 
BRANCH  13  14
ATOM     14  C   UNL     1      34.272 -22.946 -18.614  0.00  0.00    +0.031 C 
BRANCH  14  15
ATOM     15  C   UNL     1      34.234 -21.691 -19.457  0.00  0.00    -0.022 C 
ATOM     16  C   UNL     1      33.017 -21.086 -19.719  0.00  0.00    -0.004 C 
ATOM     17  C   UNL     1      35.419 -21.173 -19.952  0.00  0.00    -0.004 C 
ATOM     18  C   UNL     1      32.983 -19.929 -20.497  0.00  0.00    -0.000 C 
ATOM     19  C   UNL     1      35.385 -20.015 -20.730  0.00  0.00    -0.000 C 
ATOM     20  C   UNL     1      34.167 -19.394 -21.003  0.00  0.00    -0.000 C 
ENDBRANCH  14  15
ENDBRANCH  13  14
BRANCH  13  21
ATOM     21  C   UNL     1      35.462 -23.160 -16.417  0.00  0.00    +0.057 C 
BRANCH  21  22
ATOM     22  S   UNL     1      36.802 -21.932 -16.531  0.00  0.00    -0.168 S 
ATOM     23  H   UNL     1      37.513 -22.140 -17.673  0.00  0.00    +0.102 HD
ENDBRANCH  21  22
ENDBRANCH  13  21
ENDBRANCH   4  13
TORSDOF 5
ENDMDL
MODEL 4
REMARK VINA RESULT:      -8.3      2.241      2.840
REMARK  Name = 5289417
REMARK  5 active torsions:
REMARK  status: ('A' for Active; 'I' for Inactive)
REMARK    1  A    between atoms: C_4  and  C_13
REMARK    2  A    between atoms: C_13  and  C_14
REMARK    3  A    between atoms: C_13  and  C_21
REMARK    4  A    between atoms: C_14  and  C_15
REMARK    5  A    between atoms: C_21  and  S_22
REMARK                            x       y       z     vdW  Elec       q    Type
REMARK                         _______ _______ _______ _____ _____    ______ ____
ROOT
ATOM      1  N   UNL     1      34.397 -14.136 -23.123  0.00  0.00    -0.320 N 
ATOM      2  N   UNL     1      33.900 -15.968 -24.281  0.00  0.00    -0.318 N 
ATOM      3  N   UNL     1      33.425 -12.383 -26.169  0.00  0.00    -0.327 N 
ATOM      4  C   UNL     1      34.325 -15.501 -23.128  0.00  0.00    +0.145 C 
ATOM      5  C   UNL     1      33.990 -13.695 -24.354  0.00  0.00    +0.056 C 
ATOM      6  C   UNL     1      33.686 -14.854 -25.059  0.00  0.00    +0.058 C 
ATOM      7  C   UNL     1      33.862 -12.436 -24.907  0.00  0.00    +0.130 C 
ATOM      8  C   UNL     1      33.231 -14.745 -26.379  0.00  0.00    +0.031 C 
ATOM      9  C   UNL     1      33.115 -13.460 -26.902  0.00  0.00    +0.059 C 
ATOM     10  H   UNL     1      34.688 -13.572 -22.370  0.00  0.00    +0.148 HD
ATOM     11  H   UNL     1      33.764 -16.910 -24.533  0.00  0.00    +0.148 HD
ATOM     12  H   UNL     1      33.326 -11.496 -26.587  0.00  0.00    +0.147 HD
ENDROOT
BRANCH   4  13
ATOM     13  C   UNL     1      34.698 -16.292 -21.940  0.00  0.00    +0.052 C 
BRANCH  13  14
ATOM     14  C   UNL     1      33.931 -17.659 -21.831  0.00  0.00    +0.031 C 
BRANCH  14  15
ATOM     15  C   UNL     1      34.768 -18.749 -21.201  0.00  0.00    -0.022 C 
ATOM     16  C   UNL     1      36.148 -18.634 -21.205  0.00  0.00    -0.004 C 
ATOM     17  C   UNL     1      34.137 -19.843 -20.633  0.00  0.00    -0.004 C 
ATOM     18  C   UNL     1      36.919 -19.640 -20.624  0.00  0.00    -0.000 C 
ATOM     19  C   UNL     1      34.908 -20.850 -20.051  0.00  0.00    -0.000 C 
ATOM     20  C   UNL     1      36.300 -20.748 -20.047  0.00  0.00    -0.000 C 
ENDBRANCH  14  15
ENDBRANCH  13  14
BRANCH  13  21
ATOM     21  C   UNL     1      34.484 -15.560 -20.574  0.00  0.00    +0.057 C 
BRANCH  21  22
ATOM     22  S   UNL     1      32.731 -15.164 -20.278  0.00  0.00    -0.168 S 
ATOM     23  H   UNL     1      32.141 -14.813 -21.453  0.00  0.00    +0.102 HD
ENDBRANCH  21  22
ENDBRANCH  13  21
ENDBRANCH   4  13
TORSDOF 5
ENDMDL
MODEL 5
REMARK VINA RESULT:      -8.2      6.069      9.034
REMARK  Name = 5289417
REMARK  5 active torsions:
REMARK  status: ('A' for Active; 'I' for Inactive)
REMARK    1  A    between atoms: C_4  and  C_13
REMARK    2  A    between atoms: C_13  and  C_14
REMARK    3  A    between atoms: C_13  and  C_21
REMARK    4  A    between atoms: C_14  and  C_15
REMARK    5  A    between atoms: C_21  and  S_22
REMARK                            x       y       z     vdW  Elec       q    Type
REMARK                         _______ _______ _______ _____ _____    ______ ____
ROOT
ATOM      1  N   UNL     1      34.942 -22.291 -18.337  0.00  0.00    -0.320 N 
ATOM      2  N   UNL     1      32.754 -22.012 -18.627  0.00  0.00    -0.318 N 
ATOM      3  N   UNL     1      35.243 -19.984 -21.144  0.00  0.00    -0.327 N 
ATOM      4  C   UNL     1      33.682 -22.614 -17.915  0.00  0.00    +0.145 C 
ATOM      5  C   UNL     1      34.817 -21.422 -19.389  0.00  0.00    +0.056 C 
ATOM      6  C   UNL     1      33.445 -21.264 -19.551  0.00  0.00    +0.058 C 
ATOM      7  C   UNL     1      35.738 -20.778 -20.190  0.00  0.00    +0.130 C 
ATOM      8  C   UNL     1      32.977 -20.419 -20.566  0.00  0.00    +0.031 C 
ATOM      9  C   UNL     1      33.935 -19.788 -21.353  0.00  0.00    +0.059 C 
ATOM     10  H   UNL     1      35.786 -22.623 -17.954  0.00  0.00    +0.148 HD
ATOM     11  H   UNL     1      31.778 -22.081 -18.521  0.00  0.00    +0.148 HD
ATOM     12  H   UNL     1      35.879 -19.514 -21.731  0.00  0.00    +0.147 HD
ENDROOT
BRANCH   4  13
ATOM     13  C   UNL     1      33.465 -23.539 -16.787  0.00  0.00    +0.052 C 
BRANCH  13  14
ATOM     14  C   UNL     1      32.574 -22.935 -15.643  0.00  0.00    +0.031 C 
BRANCH  14  15
ATOM     15  C   UNL     1      31.173 -23.503 -15.631  0.00  0.00    -0.022 C 
ATOM     16  C   UNL     1      30.187 -22.891 -16.386  0.00  0.00    -0.004 C 
ATOM     17  C   UNL     1      30.904 -24.625 -14.866  0.00  0.00    -0.004 C 
ATOM     18  C   UNL     1      28.894 -23.415 -16.374  0.00  0.00    -0.000 C 
ATOM     19  C   UNL     1      29.612 -25.150 -14.854  0.00  0.00    -0.000 C 
ATOM     20  C   UNL     1      28.607 -24.545 -15.609  0.00  0.00    -0.000 C 
ENDBRANCH  14  15
ENDBRANCH  13  14
BRANCH  13  21
ATOM     21  C   UNL     1      34.774 -24.049 -16.099  0.00  0.00    +0.057 C 
BRANCH  21  22
ATOM     22  S   UNL     1      34.666 -23.970 -14.282  0.00  0.00    -0.168 S 
ATOM     23  H   UNL     1      35.793 -23.392 -13.785  0.00  0.00    +0.102 HD
ENDBRANCH  21  22
ENDBRANCH  13  21
ENDBRANCH   4  13
TORSDOF 5
ENDMDL
MODEL 6
REMARK VINA RESULT:      -8.2      2.505      6.931
REMARK  Name = 5289417
REMARK  5 active torsions:
REMARK  status: ('A' for Active; 'I' for Inactive)
REMARK    1  A    between atoms: C_4  and  C_13
REMARK    2  A    between atoms: C_13  and  C_14
REMARK    3  A    between atoms: C_13  and  C_21
REMARK    4  A    between atoms: C_14  and  C_15
REMARK    5  A    between atoms: C_21  and  S_22
REMARK                            x       y       z     vdW  Elec       q    Type
REMARK                         _______ _______ _______ _____ _____    ______ ____
ROOT
ATOM      1  N   UNL     1      34.237 -15.368 -23.878  0.00  0.00    -0.320 N 
ATOM      2  N   UNL     1      34.305 -14.980 -21.689  0.00  0.00    -0.318 N 
ATOM      3  N   UNL     1      35.473 -18.675 -22.964  0.00  0.00    -0.327 N 
ATOM      4  C   UNL     1      34.018 -14.473 -22.868  0.00  0.00    +0.145 C 
ATOM      5  C   UNL     1      34.693 -16.529 -23.311  0.00  0.00    +0.056 C 
ATOM      6  C   UNL     1      34.728 -16.263 -21.947  0.00  0.00    +0.058 C 
ATOM      7  C   UNL     1      35.068 -17.748 -23.839  0.00  0.00    +0.130 C 
ATOM      8  C   UNL     1      35.159 -17.268 -21.072  0.00  0.00    +0.031 C 
ATOM      9  C   UNL     1      35.529 -18.483 -21.640  0.00  0.00    +0.059 C 
ATOM     10  H   UNL     1      34.092 -15.208 -24.838  0.00  0.00    +0.148 HD
ATOM     11  H   UNL     1      34.232 -14.538 -20.813  0.00  0.00    +0.148 HD
ATOM     12  H   UNL     1      35.747 -19.554 -23.316  0.00  0.00    +0.147 HD
ENDROOT
BRANCH   4  13
ATOM     13  C   UNL     1      33.518 -13.113 -23.145  0.00  0.00    +0.052 C 
BRANCH  13  14
ATOM     14  C   UNL     1      32.030 -12.889 -22.696  0.00  0.00    +0.031 C 
BRANCH  14  15
ATOM     15  C   UNL     1      31.891 -11.807 -21.650  0.00  0.00    -0.022 C 
ATOM     16  C   UNL     1      31.904 -10.479 -22.042  0.00  0.00    -0.004 C 
ATOM     17  C   UNL     1      31.754 -12.165 -20.319  0.00  0.00    -0.004 C 
ATOM     18  C   UNL     1      31.776  -9.480 -21.076  0.00  0.00    -0.000 C 
ATOM     19  C   UNL     1      31.626 -11.167 -19.353  0.00  0.00    -0.000 C 
ATOM     20  C   UNL     1      31.637  -9.824 -19.732  0.00  0.00    -0.000 C 
ENDBRANCH  14  15
ENDBRANCH  13  14
BRANCH  13  21
ATOM     21  C   UNL     1      33.592 -12.683 -24.647  0.00  0.00    +0.057 C 
BRANCH  21  22
ATOM     22  S   UNL     1      34.339 -11.034 -24.848  0.00  0.00    -0.168 S 
ATOM     23  H   UNL     1      35.536 -10.995 -24.201  0.00  0.00    +0.102 HD
ENDBRANCH  21  22
ENDBRANCH  13  21
ENDBRANCH   4  13
TORSDOF 5
ENDMDL
MODEL 7
REMARK VINA RESULT:      -8.1      2.757      6.985
REMARK  Name = 5289417
REMARK  5 active torsions:
REMARK  status: ('A' for Active; 'I' for Inactive)
REMARK    1  A    between atoms: C_4  and  C_13
REMARK    2  A    between atoms: C_13  and  C_14
REMARK    3  A    between atoms: C_13  and  C_21
REMARK    4  A    between atoms: C_14  and  C_15
REMARK    5  A    between atoms: C_21  and  S_22
REMARK                            x       y       z     vdW  Elec       q    Type
REMARK                         _______ _______ _______ _____ _____    ______ ____
ROOT
ATOM      1  N   UNL     1      34.422 -15.020 -21.976  0.00  0.00    -0.320 N 
ATOM      2  N   UNL     1      34.140 -15.351 -24.157  0.00  0.00    -0.318 N 
ATOM      3  N   UNL     1      35.540 -18.491 -21.959  0.00  0.00    -0.327 N 
ATOM      4  C   UNL     1      34.037 -14.485 -23.174  0.00  0.00    +0.145 C 
ATOM      5  C   UNL     1      34.798 -16.317 -22.203  0.00  0.00    +0.056 C 
ATOM      6  C   UNL     1      34.613 -16.501 -23.570  0.00  0.00    +0.058 C 
ATOM      7  C   UNL     1      35.268 -17.319 -21.377  0.00  0.00    +0.130 C 
ATOM      8  C   UNL     1      34.914 -17.748 -24.131  0.00  0.00    +0.031 C 
ATOM      9  C   UNL     1      35.385 -18.733 -23.267  0.00  0.00    +0.059 C 
ATOM     10  H   UNL     1      34.427 -14.557 -21.107  0.00  0.00    +0.148 HD
ATOM     11  H   UNL     1      33.925 -15.209 -25.107  0.00  0.00    +0.148 HD
ATOM     12  H   UNL     1      35.875 -19.222 -21.391  0.00  0.00    +0.147 HD
ENDROOT
BRANCH   4  13
ATOM     13  C   UNL     1      33.571 -13.089 -23.274  0.00  0.00    +0.052 C 
BRANCH  13  14
ATOM     14  C   UNL     1      32.073 -12.895 -22.844  0.00  0.00    +0.031 C 
BRANCH  14  15
ATOM     15  C   UNL     1      31.907 -11.865 -21.750  0.00  0.00    -0.022 C 
ATOM     16  C   UNL     1      31.802 -12.283 -20.434  0.00  0.00    -0.004 C 
ATOM     17  C   UNL     1      31.863 -10.522 -22.086  0.00  0.00    -0.004 C 
ATOM     18  C   UNL     1      31.649 -11.332 -19.426  0.00  0.00    -0.000 C 
ATOM     19  C   UNL     1      31.710  -9.571 -21.077  0.00  0.00    -0.000 C 
ATOM     20  C   UNL     1      31.603  -9.976 -19.747  0.00  0.00    -0.000 C 
ENDBRANCH  14  15
ENDBRANCH  13  14
BRANCH  13  21
ATOM     21  C   UNL     1      33.703 -12.457 -24.699  0.00  0.00    +0.057 C 
BRANCH  21  22
ATOM     22  S   UNL     1      34.397 -10.774 -24.637  0.00  0.00    -0.168 S 
ATOM     23  H   UNL     1      35.335 -10.634 -25.613  0.00  0.00    +0.102 HD
ENDBRANCH  21  22
ENDBRANCH  13  21
ENDBRANCH   4  13
TORSDOF 5
ENDMDL
MODEL 8
REMARK VINA RESULT:      -8.1      2.360      7.292
REMARK  Name = 5289417
REMARK  5 active torsions:
REMARK  status: ('A' for Active; 'I' for Inactive)
REMARK    1  A    between atoms: C_4  and  C_13
REMARK    2  A    between atoms: C_13  and  C_14
REMARK    3  A    between atoms: C_13  and  C_21
REMARK    4  A    between atoms: C_14  and  C_15
REMARK    5  A    between atoms: C_21  and  S_22
REMARK                            x       y       z     vdW  Elec       q    Type
REMARK                         _______ _______ _______ _____ _____    ______ ____
ROOT
ATOM      1  N   UNL     1      34.315 -15.035 -22.432  0.00  0.00    -0.320 N 
ATOM      2  N   UNL     1      34.435 -16.205 -24.318  0.00  0.00    -0.318 N 
ATOM      3  N   UNL     1      35.488 -18.114 -20.869  0.00  0.00    -0.327 N 
ATOM      4  C   UNL     1      34.139 -15.040 -23.787  0.00  0.00    +0.145 C 
ATOM      5  C   UNL     1      34.754 -16.279 -22.066  0.00  0.00    +0.056 C 
ATOM      6  C   UNL     1      34.821 -16.992 -23.258  0.00  0.00    +0.058 C 
ATOM      7  C   UNL     1      35.090 -16.838 -20.849  0.00  0.00    +0.130 C 
ATOM      8  C   UNL     1      35.245 -18.326 -23.227  0.00  0.00    +0.031 C 
ATOM      9  C   UNL     1      35.574 -18.854 -21.982  0.00  0.00    +0.059 C 
ATOM     10  H   UNL     1      34.154 -14.274 -21.827  0.00  0.00    +0.148 HD
ATOM     11  H   UNL     1      34.390 -16.460 -25.268  0.00  0.00    +0.148 HD
ATOM     12  H   UNL     1      35.732 -18.536 -20.013  0.00  0.00    +0.147 HD
ENDROOT
BRANCH   4  13
ATOM     13  C   UNL     1      33.668 -13.839 -24.503  0.00  0.00    +0.052 C 
BRANCH  13  14
ATOM     14  C   UNL     1      32.877 -12.835 -23.590  0.00  0.00    +0.031 C 
BRANCH  14  15
ATOM     15  C   UNL     1      33.380 -11.414 -23.712  0.00  0.00    -0.022 C 
ATOM     16  C   UNL     1      32.719 -10.401 -23.037  0.00  0.00    -0.004 C 
ATOM     17  C   UNL     1      34.491 -11.154 -24.495  0.00  0.00    -0.004 C 
ATOM     18  C   UNL     1      33.183  -9.091 -23.149  0.00  0.00    -0.000 C 
ATOM     19  C   UNL     1      34.955  -9.843 -24.607  0.00  0.00    -0.000 C 
ATOM     20  C   UNL     1      34.300  -8.811 -23.934  0.00  0.00    -0.000 C 
ENDBRANCH  14  15
ENDBRANCH  13  14
BRANCH  13  21
ATOM     21  C   UNL     1      32.748 -14.130 -25.734  0.00  0.00    +0.057 C 
BRANCH  21  22
ATOM     22  S   UNL     1      33.410 -13.405 -27.268  0.00  0.00    -0.168 S 
ATOM     23  H   UNL     1      32.379 -13.023 -28.071  0.00  0.00    +0.102 HD
ENDBRANCH  21  22
ENDBRANCH  13  21
ENDBRANCH   4  13
TORSDOF 5
ENDMDL
MODEL 9
REMARK VINA RESULT:      -8.0      3.226      7.210
REMARK  Name = 5289417
REMARK  5 active torsions:
REMARK  status: ('A' for Active; 'I' for Inactive)
REMARK    1  A    between atoms: C_4  and  C_13
REMARK    2  A    between atoms: C_13  and  C_14
REMARK    3  A    between atoms: C_13  and  C_21
REMARK    4  A    between atoms: C_14  and  C_15
REMARK    5  A    between atoms: C_21  and  S_22
REMARK                            x       y       z     vdW  Elec       q    Type
REMARK                         _______ _______ _______ _____ _____    ______ ____
ROOT
ATOM      1  N   UNL     1      33.452 -18.936 -20.898  0.00  0.00    -0.320 N 
ATOM      2  N   UNL     1      35.650 -18.601 -20.965  0.00  0.00    -0.318 N 
ATOM      3  N   UNL     1      34.352 -22.194 -19.530  0.00  0.00    -0.327 N 
ATOM      4  C   UNL     1      34.470 -18.079 -21.217  0.00  0.00    +0.145 C 
ATOM      5  C   UNL     1      34.015 -20.084 -20.408  0.00  0.00    +0.056 C 
ATOM      6  C   UNL     1      35.385 -19.853 -20.459  0.00  0.00    +0.058 C 
ATOM      7  C   UNL     1      33.479 -21.267 -19.939  0.00  0.00    +0.130 C 
ATOM      8  C   UNL     1      36.258 -20.856 -20.018  0.00  0.00    +0.031 C 
ATOM      9  C   UNL     1      35.681 -22.034 -19.553  0.00  0.00    +0.059 C 
ATOM     10  H   UNL     1      32.489 -18.758 -21.003  0.00  0.00    +0.148 HD
ATOM     11  H   UNL     1      36.531 -18.187 -21.106  0.00  0.00    +0.148 HD
ATOM     12  H   UNL     1      33.995 -23.047 -19.192  0.00  0.00    +0.147 HD
ENDROOT
BRANCH   4  13
ATOM     13  C   UNL     1      34.198 -16.742 -21.774  0.00  0.00    +0.052 C 
BRANCH  13  14
ATOM     14  C   UNL     1      35.073 -16.398 -23.033  0.00  0.00    +0.031 C 
BRANCH  14  15
ATOM     15  C   UNL     1      34.306 -15.629 -24.085  0.00  0.00    -0.022 C 
ATOM     16  C   UNL     1      33.976 -14.304 -23.851  0.00  0.00    -0.004 C 
ATOM     17  C   UNL     1      33.950 -16.264 -25.263  0.00  0.00    -0.004 C 
ATOM     18  C   UNL     1      33.269 -13.595 -24.822  0.00  0.00    -0.000 C 
ATOM     19  C   UNL     1      33.243 -15.554 -26.234  0.00  0.00    -0.000 C 
ATOM     20  C   UNL     1      32.902 -14.220 -26.013  0.00  0.00    -0.000 C 
ENDBRANCH  14  15
ENDBRANCH  13  14
BRANCH  13  21
ATOM     21  C   UNL     1      34.397 -15.561 -20.768  0.00  0.00    +0.057 C 
BRANCH  21  22
ATOM     22  S   UNL     1      32.821 -14.754 -20.341  0.00  0.00    -0.168 S 
ATOM     23  H   UNL     1      32.063 -15.604 -19.596  0.00  0.00    +0.102 HD
ENDBRANCH  21  22
ENDBRANCH  13  21
ENDBRANCH   4  13
TORSDOF 5
ENDMDL
