MODEL 1
REMARK VINA RESULT:      -6.7      0.000      0.000
REMARK  Name = 100684
REMARK  0 active torsions:
REMARK  status: ('A' for Active; 'I' for Inactive)
REMARK                            x       y       z     vdW  Elec       q    Type
REMARK                         _______ _______ _______ _____ _____    ______ ____
ROOT
ATOM      1  O   UNL     1      36.856 -21.647 -19.096  0.00  0.00    -0.208 OA
ATOM      2  N   UNL     1      32.782 -21.852 -18.989  0.00  0.00    -0.274 N 
ATOM      3  N   UNL     1      35.079 -19.975 -20.807  0.00  0.00    -0.301 N 
ATOM      4  N   UNL     1      34.948 -22.588 -18.204  0.00  0.00    -0.301 NA
ATOM      5  N   UNL     1      32.947 -23.477 -17.368  0.00  0.00    -0.320 N 
ATOM      6  C   UNL     1      33.386 -20.996 -19.830  0.00  0.00    +0.078 C 
ATOM      7  C   UNL     1      34.757 -20.921 -19.871  0.00  0.00    +0.158 C 
ATOM      8  C   UNL     1      32.846 -20.084 -20.751  0.00  0.00    +0.033 C 
ATOM      9  C   UNL     1      33.923 -19.459 -21.348  0.00  0.00    +0.064 C 
ATOM     10  C   UNL     1      35.634 -21.721 -19.052  0.00  0.00    +0.222 C 
ATOM     11  C   UNL     1      33.633 -22.624 -18.201  0.00  0.00    +0.248 C 
ATOM     12  H   UNL     1      31.802 -21.931 -18.934  0.00  0.00    +0.156 HD
ATOM     13  H   UNL     1      35.994 -19.706 -21.055  0.00  0.00    +0.153 HD
ATOM     14  H   UNL     1      31.964 -23.490 -17.379  0.00  0.00    +0.146 HD
ATOM     15  H   UNL     1      33.442 -24.074 -16.761  0.00  0.00    +0.146 HD
ENDROOT
TORSDOF 0
ENDMDL
MODEL 2
REMARK VINA RESULT:      -6.6      6.292      7.671
REMARK  Name = 100684
REMARK  0 active torsions:
REMARK  status: ('A' for Active; 'I' for Inactive)
REMARK                            x       y       z     vdW  Elec       q    Type
REMARK                         _______ _______ _______ _____ _____    ______ ____
ROOT
ATOM      1  O   UNL     1      37.094 -26.509 -11.806  0.00  0.00    -0.208 OA
ATOM      2  N   UNL     1      37.835 -24.649 -15.361  0.00  0.00    -0.274 N 
ATOM      3  N   UNL     1      35.063 -24.894 -13.273  0.00  0.00    -0.301 N 
ATOM      4  N   UNL     1      38.569 -26.022 -13.511  0.00  0.00    -0.301 NA
ATOM      5  N   UNL     1      39.985 -25.465 -15.293  0.00  0.00    -0.320 N 
ATOM      6  C   UNL     1      36.621 -24.548 -14.794  0.00  0.00    +0.078 C 
ATOM      7  C   UNL     1      36.364 -25.171 -13.598  0.00  0.00    +0.158 C 
ATOM      8  C   UNL     1      35.465 -23.873 -15.221  0.00  0.00    +0.033 C 
ATOM      9  C   UNL     1      34.507 -24.106 -14.254  0.00  0.00    +0.064 C 
ATOM     10  C   UNL     1      37.333 -25.957 -12.873  0.00  0.00    +0.222 C 
ATOM     11  C   UNL     1      38.768 -25.407 -14.657  0.00  0.00    +0.248 C 
ATOM     12  H   UNL     1      38.052 -24.214 -16.218  0.00  0.00    +0.156 HD
ATOM     13  H   UNL     1      34.599 -25.210 -12.463  0.00  0.00    +0.153 HD
ATOM     14  H   UNL     1      40.116 -24.999 -16.150  0.00  0.00    +0.146 HD
ATOM     15  H   UNL     1      40.726 -25.974 -14.892  0.00  0.00    +0.146 HD
ENDROOT
TORSDOF 0
ENDMDL
MODEL 3
REMARK VINA RESULT:      -6.5      7.379      8.298
REMARK  Name = 100684
REMARK  0 active torsions:
REMARK  status: ('A' for Active; 'I' for Inactive)
REMARK                            x       y       z     vdW  Elec       q    Type
REMARK                         _______ _______ _______ _____ _____    ______ ____
ROOT
ATOM      1  O   UNL     1      36.263 -26.910 -15.778  0.00  0.00    -0.208 OA
ATOM      2  N   UNL     1      38.789 -25.174 -13.085  0.00  0.00    -0.274 N 
ATOM      3  N   UNL     1      35.357 -25.038 -13.643  0.00  0.00    -0.301 N 
ATOM      4  N   UNL     1      38.407 -26.632 -14.976  0.00  0.00    -0.301 NA
ATOM      5  N   UNL     1      40.544 -26.279 -14.081  0.00  0.00    -0.320 N 
ATOM      6  C   UNL     1      37.473 -24.908 -13.034  0.00  0.00    +0.078 C 
ATOM      7  C   UNL     1      36.617 -25.488 -13.937  0.00  0.00    +0.158 C 
ATOM      8  C   UNL     1      36.739 -24.084 -12.166  0.00  0.00    +0.033 C 
ATOM      9  C   UNL     1      35.421 -24.181 -12.567  0.00  0.00    +0.064 C 
ATOM     10  C   UNL     1      37.035 -26.397 -14.976  0.00  0.00    +0.222 C 
ATOM     11  C   UNL     1      39.188 -26.052 -14.090  0.00  0.00    +0.248 C 
ATOM     12  H   UNL     1      39.430 -24.774 -12.453  0.00  0.00    +0.156 HD
ATOM     13  H   UNL     1      34.536 -25.286 -14.126  0.00  0.00    +0.153 HD
ATOM     14  H   UNL     1      41.113 -25.837 -13.410  0.00  0.00    +0.146 HD
ATOM     15  H   UNL     1      40.946 -26.883 -14.746  0.00  0.00    +0.146 HD
ENDROOT
TORSDOF 0
ENDMDL
MODEL 4
REMARK VINA RESULT:      -6.4      5.670      7.192
REMARK  Name = 100684
REMARK  0 active torsions:
REMARK  status: ('A' for Active; 'I' for Inactive)
REMARK                            x       y       z     vdW  Elec       q    Type
REMARK                         _______ _______ _______ _____ _____    ______ ____
ROOT
ATOM      1  O   UNL     1      34.803 -16.778 -25.827  0.00  0.00    -0.208 OA
ATOM      2  N   UNL     1      33.850 -15.578 -22.046  0.00  0.00    -0.274 N 
ATOM      3  N   UNL     1      35.808 -18.131 -23.369  0.00  0.00    -0.301 N 
ATOM      4  N   UNL     1      33.677 -15.316 -24.443  0.00  0.00    -0.301 NA
ATOM      5  N   UNL     1      32.577 -13.887 -22.947  0.00  0.00    -0.320 N 
ATOM      6  C   UNL     1      34.658 -16.636 -22.227  0.00  0.00    +0.078 C 
ATOM      7  C   UNL     1      34.983 -17.046 -23.496  0.00  0.00    +0.158 C 
ATOM      8  C   UNL     1      35.287 -17.477 -21.295  0.00  0.00    +0.033 C 
ATOM      9  C   UNL     1      35.999 -18.403 -22.033  0.00  0.00    +0.064 C 
ATOM     10  C   UNL     1      34.507 -16.404 -24.698  0.00  0.00    +0.222 C 
ATOM     11  C   UNL     1      33.394 -14.961 -23.208  0.00  0.00    +0.248 C 
ATOM     12  H   UNL     1      33.598 -15.258 -21.149  0.00  0.00    +0.156 HD
ATOM     13  H   UNL     1      36.202 -18.639 -24.115  0.00  0.00    +0.153 HD
ATOM     14  H   UNL     1      32.376 -13.636 -22.017  0.00  0.00    +0.146 HD
ATOM     15  H   UNL     1      32.191 -13.370 -23.691  0.00  0.00    +0.146 HD
ENDROOT
TORSDOF 0
ENDMDL
MODEL 5
REMARK VINA RESULT:      -6.4      3.973      5.380
REMARK  Name = 100684
REMARK  0 active torsions:
REMARK  status: ('A' for Active; 'I' for Inactive)
REMARK                            x       y       z     vdW  Elec       q    Type
REMARK                         _______ _______ _______ _____ _____    ______ ____
ROOT
ATOM      1  O   UNL     1      34.884 -15.320 -20.920  0.00  0.00    -0.208 OA
ATOM      2  N   UNL     1      35.196 -19.037 -22.573  0.00  0.00    -0.274 N 
ATOM      3  N   UNL     1      34.540 -15.860 -23.830  0.00  0.00    -0.301 N 
ATOM      4  N   UNL     1      35.262 -17.578 -20.645  0.00  0.00    -0.301 NA
ATOM      5  N   UNL     1      35.632 -19.886 -20.480  0.00  0.00    -0.320 N 
ATOM      6  C   UNL     1      34.925 -17.978 -23.355  0.00  0.00    +0.078 C 
ATOM      7  C   UNL     1      34.818 -16.725 -22.806  0.00  0.00    +0.158 C 
ATOM      8  C   UNL     1      34.710 -17.896 -24.740  0.00  0.00    +0.033 C 
ATOM      9  C   UNL     1      34.471 -16.563 -25.012  0.00  0.00    +0.064 C 
ATOM     10  C   UNL     1      34.982 -16.442 -21.400  0.00  0.00    +0.222 C 
ATOM     11  C   UNL     1      35.354 -18.759 -21.217  0.00  0.00    +0.248 C 
ATOM     12  H   UNL     1      35.280 -19.949 -22.935  0.00  0.00    +0.156 HD
ATOM     13  H   UNL     1      34.410 -14.888 -23.737  0.00  0.00    +0.153 HD
ATOM     14  H   UNL     1      35.697 -20.762 -20.924  0.00  0.00    +0.146 HD
ATOM     15  H   UNL     1      35.764 -19.817 -19.506  0.00  0.00    +0.146 HD
ENDROOT
TORSDOF 0
ENDMDL
MODEL 6
REMARK VINA RESULT:      -6.3      6.517      8.514
REMARK  Name = 100684
REMARK  0 active torsions:
REMARK  status: ('A' for Active; 'I' for Inactive)
REMARK                            x       y       z     vdW  Elec       q    Type
REMARK                         _______ _______ _______ _____ _____    ______ ____
ROOT
ATOM      1  O   UNL     1      34.594 -17.818 -25.561  0.00  0.00    -0.208 OA
ATOM      2  N   UNL     1      33.373 -14.042 -24.612  0.00  0.00    -0.274 N 
ATOM      3  N   UNL     1      34.826 -16.653 -22.828  0.00  0.00    -0.301 N 
ATOM      4  N   UNL     1      33.657 -15.818 -26.228  0.00  0.00    -0.301 NA
ATOM      5  N   UNL     1      32.718 -13.749 -26.797  0.00  0.00    -0.320 N 
ATOM      6  C   UNL     1      33.913 -14.828 -23.665  0.00  0.00    +0.078 C 
ATOM      7  C   UNL     1      34.326 -16.100 -23.977  0.00  0.00    +0.158 C 
ATOM      8  C   UNL     1      34.158 -14.584 -22.304  0.00  0.00    +0.033 C 
ATOM      9  C   UNL     1      34.728 -15.739 -21.804  0.00  0.00    +0.064 C 
ATOM     10  C   UNL     1      34.223 -16.681 -25.293  0.00  0.00    +0.222 C 
ATOM     11  C   UNL     1      33.276 -14.608 -25.881  0.00  0.00    +0.248 C 
ATOM     12  H   UNL     1      33.067 -13.126 -24.421  0.00  0.00    +0.156 HD
ATOM     13  H   UNL     1      35.198 -17.561 -22.748  0.00  0.00    +0.153 HD
ATOM     14  H   UNL     1      32.439 -12.847 -26.520  0.00  0.00    +0.146 HD
ATOM     15  H   UNL     1      32.596 -14.036 -27.731  0.00  0.00    +0.146 HD
ENDROOT
TORSDOF 0
ENDMDL
MODEL 7
REMARK VINA RESULT:      -6.3      1.877      2.669
REMARK  Name = 100684
REMARK  0 active torsions:
REMARK  status: ('A' for Active; 'I' for Inactive)
REMARK                            x       y       z     vdW  Elec       q    Type
REMARK                         _______ _______ _______ _____ _____    ______ ____
ROOT
ATOM      1  O   UNL     1      32.349 -19.848 -20.710  0.00  0.00    -0.208 OA
ATOM      2  N   UNL     1      35.091 -22.241 -18.867  0.00  0.00    -0.274 N 
ATOM      3  N   UNL     1      35.289 -19.382 -20.840  0.00  0.00    -0.301 N 
ATOM      4  N   UNL     1      32.798 -21.692 -19.399  0.00  0.00    -0.301 NA
ATOM      5  N   UNL     1      33.366 -23.540 -18.075  0.00  0.00    -0.320 N 
ATOM      6  C   UNL     1      35.503 -21.178 -19.578  0.00  0.00    +0.078 C 
ATOM      7  C   UNL     1      34.586 -20.368 -20.201  0.00  0.00    +0.158 C 
ATOM      8  C   UNL     1      36.796 -20.691 -19.831  0.00  0.00    +0.033 C 
ATOM      9  C   UNL     1      36.635 -19.570 -20.622  0.00  0.00    +0.064 C 
ATOM     10  C   UNL     1      33.159 -20.577 -20.150  0.00  0.00    +0.222 C 
ATOM     11  C   UNL     1      33.714 -22.438 -18.820  0.00  0.00    +0.248 C 
ATOM     12  H   UNL     1      35.723 -22.841 -18.408  0.00  0.00    +0.156 HD
ATOM     13  H   UNL     1      34.894 -18.653 -21.371  0.00  0.00    +0.153 HD
ATOM     14  H   UNL     1      34.064 -24.087 -17.649  0.00  0.00    +0.146 HD
ATOM     15  H   UNL     1      32.418 -23.782 -17.969  0.00  0.00    +0.146 HD
ENDROOT
TORSDOF 0
ENDMDL
MODEL 8
REMARK VINA RESULT:      -6.3      6.594      7.591
REMARK  Name = 100684
REMARK  0 active torsions:
REMARK  status: ('A' for Active; 'I' for Inactive)
REMARK                            x       y       z     vdW  Elec       q    Type
REMARK                         _______ _______ _______ _____ _____    ______ ____
ROOT
ATOM      1  O   UNL     1      33.463 -15.492 -26.606  0.00  0.00    -0.208 OA
ATOM      2  N   UNL     1      34.732 -17.366 -23.212  0.00  0.00    -0.274 N 
ATOM      3  N   UNL     1      33.782 -14.109 -23.986  0.00  0.00    -0.301 N 
ATOM      4  N   UNL     1      34.168 -17.423 -25.562  0.00  0.00    -0.301 NA
ATOM      5  N   UNL     1      34.894 -19.327 -24.404  0.00  0.00    -0.320 N 
ATOM      6  C   UNL     1      34.434 -16.056 -23.180  0.00  0.00    +0.078 C 
ATOM      7  C   UNL     1      34.006 -15.419 -24.319  0.00  0.00    +0.158 C 
ATOM      8  C   UNL     1      34.478 -15.133 -22.123  0.00  0.00    +0.033 C 
ATOM      9  C   UNL     1      34.067 -13.925 -22.652  0.00  0.00    +0.064 C 
ATOM     10  C   UNL     1      33.845 -16.070 -25.596  0.00  0.00    +0.222 C 
ATOM     11  C   UNL     1      34.574 -17.990 -24.447  0.00  0.00    +0.248 C 
ATOM     12  H   UNL     1      35.041 -17.853 -22.414  0.00  0.00    +0.156 HD
ATOM     13  H   UNL     1      33.467 -13.410 -24.603  0.00  0.00    +0.153 HD
ATOM     14  H   UNL     1      35.195 -19.734 -23.561  0.00  0.00    +0.146 HD
ATOM     15  H   UNL     1      34.822 -19.876 -25.218  0.00  0.00    +0.146 HD
ENDROOT
TORSDOF 0
ENDMDL
MODEL 9
REMARK VINA RESULT:      -6.3      4.255      5.692
REMARK  Name = 100684
REMARK  0 active torsions:
REMARK  status: ('A' for Active; 'I' for Inactive)
REMARK                            x       y       z     vdW  Elec       q    Type
REMARK                         _______ _______ _______ _____ _____    ______ ____
ROOT
ATOM      1  O   UNL     1      34.971 -17.854 -24.732  0.00  0.00    -0.208 OA
ATOM      2  N   UNL     1      35.237 -17.312 -20.697  0.00  0.00    -0.274 N 
ATOM      3  N   UNL     1      34.357 -15.273 -23.375  0.00  0.00    -0.301 N 
ATOM      4  N   UNL     1      35.444 -18.723 -22.648  0.00  0.00    -0.301 NA
ATOM      5  N   UNL     1      35.898 -19.505 -20.486  0.00  0.00    -0.320 N 
ATOM      6  C   UNL     1      34.855 -16.292 -21.484  0.00  0.00    +0.078 C 
ATOM      7  C   UNL     1      34.764 -16.467 -22.843  0.00  0.00    +0.158 C 
ATOM      8  C   UNL     1      34.502 -14.971 -21.164  0.00  0.00    +0.033 C 
ATOM      9  C   UNL     1      34.196 -14.355 -22.362  0.00  0.00    +0.064 C 
ATOM     10  C   UNL     1      35.056 -17.708 -23.518  0.00  0.00    +0.222 C 
ATOM     11  C   UNL     1      35.517 -18.508 -21.353  0.00  0.00    +0.248 C 
ATOM     12  H   UNL     1      35.312 -17.219 -19.719  0.00  0.00    +0.156 HD
ATOM     13  H   UNL     1      34.205 -15.097 -24.332  0.00  0.00    +0.153 HD
ATOM     14  H   UNL     1      35.947 -19.326 -19.520  0.00  0.00    +0.146 HD
ATOM     15  H   UNL     1      36.123 -20.398 -20.833  0.00  0.00    +0.146 HD
ENDROOT
TORSDOF 0
ENDMDL
