MODEL 1
REMARK VINA RESULT:     -11.6      0.000      0.000
REMARK  Name = 16122642
REMARK  7 active torsions:
REMARK  status: ('A' for Active; 'I' for Inactive)
REMARK    1  A    between atoms: C_2  and  C_10
REMARK    2  A    between atoms: C_3  and  O_18
REMARK    3  A    between atoms: O_18  and  C_19
REMARK    4  A    between atoms: C_19  and  C_20
REMARK    5  A    between atoms: C_20  and  N_21
REMARK    6  A    between atoms: C_20  and  C_25
REMARK    7  A    between atoms: C_25  and  C_27
REMARK                            x       y       z     vdW  Elec       q    Type
REMARK                         _______ _______ _______ _____ _____    ______ ____
ROOT
ATOM      1  N   UNL     1      33.000 -21.873 -19.553  0.00  0.00    -0.239 NA
ATOM      2  C   UNL     1      34.420 -20.241 -20.619  0.00  0.00    +0.022 C 
ATOM      3  C   UNL     1      35.356 -21.766 -19.020  0.00  0.00    +0.158 C 
ATOM      4  C   UNL     1      35.516 -20.710 -19.911  0.00  0.00    +0.040 C 
ATOM      5  C   UNL     1      33.195 -20.846 -20.411  0.00  0.00    +0.099 C 
ATOM      6  C   UNL     1      34.088 -22.308 -18.879  0.00  0.00    +0.136 C 
ENDROOT
BRANCH   2  10
ATOM      7  N   UNL     1      34.716 -15.053 -23.194  0.00  0.00    -0.280 N 
ATOM      8  N   UNL     1      34.925 -15.994 -24.136  0.00  0.00    -0.173 NA
ATOM      9  C   UNL     1      34.573 -16.897 -22.081  0.00  0.00    +0.032 A 
ATOM     10  C   UNL     1      34.556 -19.142 -21.557  0.00  0.00    +0.002 C 
ATOM     11  C   UNL     1      34.843 -17.162 -23.474  0.00  0.00    +0.102 A 
ATOM     12  C   UNL     1      34.417 -17.829 -21.063  0.00  0.00    +0.003 C 
ATOM     13  C   UNL     1      34.499 -15.541 -21.939  0.00  0.00    +0.053 A 
ATOM     14  C   UNL     1      34.823 -19.456 -22.926  0.00  0.00    +0.002 C 
ATOM     15  C   UNL     1      34.977 -18.484 -23.938  0.00  0.00    +0.021 C 
ATOM     16  C   UNL     1      34.253 -14.654 -20.789  0.00  0.00    +0.051 C 
ATOM     17  H   UNL     1      34.718 -14.091 -23.397  0.00  0.00    +0.189 HD
ENDBRANCH   2  10
BRANCH   3  18
ATOM     18  O   UNL     1      36.406 -22.249 -18.313  0.00  0.00    -0.476 OA
BRANCH  18  19
ATOM     19  C   UNL     1      36.470 -21.917 -16.924  0.00  0.00    +0.184 C 
BRANCH  19  20
ATOM     20  C   UNL     1      36.244 -23.169 -16.068  0.00  0.00    -0.017 C 
BRANCH  20  21
ATOM     21  N   UNL     1      37.552 -23.704 -15.678  0.00  0.00    +0.384 N 
ATOM     22  H   UNL     1      37.422 -24.532 -15.099  0.00  0.00    -0.089 HD
ATOM     23  H   UNL     1      38.065 -22.997 -15.150  0.00  0.00    -0.089 HD
ATOM     24  H   UNL     1      38.080 -23.953 -16.514  0.00  0.00    -0.089 HD
ENDBRANCH  20  21
BRANCH  20  25
ATOM     25  C   UNL     1      35.435 -22.888 -14.784  0.00  0.00    +0.008 C 
BRANCH  25  27
ATOM     26 BR   UNL     1      29.672 -25.093 -14.836  0.00  0.00    -0.049 Br
ATOM     27  C   UNL     1      34.025 -23.427 -14.798  0.00  0.00    -0.024 C 
ATOM     28  C   UNL     1      33.181 -23.099 -15.847  0.00  0.00    -0.004 C 
ATOM     29  C   UNL     1      33.601 -24.241 -13.760  0.00  0.00    -0.004 C 
ATOM     30  C   UNL     1      31.879 -23.597 -15.858  0.00  0.00    +0.006 C 
ATOM     31  C   UNL     1      32.298 -24.739 -13.771  0.00  0.00    +0.006 C 
ATOM     32  C   UNL     1      31.437 -24.418 -14.820  0.00  0.00    +0.035 C 
ENDBRANCH  25  27
ENDBRANCH  20  25
ENDBRANCH  19  20
ENDBRANCH  18  19
ENDBRANCH   3  18
TORSDOF 7
ENDMDL
MODEL 2
REMARK VINA RESULT:     -11.5      3.845      7.104
REMARK  Name = 16122642
REMARK  7 active torsions:
REMARK  status: ('A' for Active; 'I' for Inactive)
REMARK    1  A    between atoms: C_2  and  C_10
REMARK    2  A    between atoms: C_3  and  O_18
REMARK    3  A    between atoms: O_18  and  C_19
REMARK    4  A    between atoms: C_19  and  C_20
REMARK    5  A    between atoms: C_20  and  N_21
REMARK    6  A    between atoms: C_20  and  C_25
REMARK    7  A    between atoms: C_25  and  C_27
REMARK                            x       y       z     vdW  Elec       q    Type
REMARK                         _______ _______ _______ _____ _____    ______ ____
ROOT
ATOM      1  N   UNL     1      33.441 -15.487 -26.207  0.00  0.00    -0.239 NA
ATOM      2  C   UNL     1      33.641 -13.842 -24.455  0.00  0.00    +0.022 C 
ATOM      3  C   UNL     1      34.570 -16.033 -24.140  0.00  0.00    +0.158 C 
ATOM      4  C   UNL     1      34.325 -14.750 -23.660  0.00  0.00    +0.040 C 
ATOM      5  C   UNL     1      33.223 -14.249 -25.707  0.00  0.00    +0.099 C 
ATOM      6  C   UNL     1      34.111 -16.348 -25.409  0.00  0.00    +0.136 C 
ENDROOT
BRANCH   2  10
ATOM      7  N   UNL     1      31.777  -9.159 -21.587  0.00  0.00    -0.280 N 
ATOM      8  N   UNL     1      32.568  -8.739 -22.594  0.00  0.00    -0.173 NA
ATOM      9  C   UNL     1      32.376 -11.002 -22.538  0.00  0.00    +0.032 A 
ATOM     10  C   UNL     1      33.373 -12.497 -23.982  0.00  0.00    +0.002 C 
ATOM     11  C   UNL     1      32.962  -9.867 -23.210  0.00  0.00    +0.102 A 
ATOM     12  C   UNL     1      32.532 -12.344 -22.862  0.00  0.00    +0.003 C 
ATOM     13  C   UNL     1      31.626 -10.512 -21.507  0.00  0.00    +0.053 A 
ATOM     14  C   UNL     1      33.977 -11.406 -24.683  0.00  0.00    +0.002 C 
ATOM     15  C   UNL     1      33.798 -10.051 -24.328  0.00  0.00    +0.021 C 
ATOM     16  C   UNL     1      30.796 -11.145 -20.467  0.00  0.00    +0.051 C 
ATOM     17  H   UNL     1      31.341  -8.538 -20.960  0.00  0.00    +0.189 HD
ENDBRANCH   2  10
BRANCH   3  18
ATOM     18  O   UNL     1      35.235 -16.944 -23.390  0.00  0.00    -0.476 OA
BRANCH  18  19
ATOM     19  C   UNL     1      34.567 -17.456 -22.235  0.00  0.00    +0.184 C 
BRANCH  19  20
ATOM     20  C   UNL     1      34.574 -18.990 -22.253  0.00  0.00    -0.017 C 
BRANCH  20  21
ATOM     21  N   UNL     1      34.857 -19.434 -23.621  0.00  0.00    +0.384 N 
ATOM     22  H   UNL     1      35.747 -19.929 -23.640  0.00  0.00    -0.089 HD
ATOM     23  H   UNL     1      34.905 -18.624 -24.238  0.00  0.00    -0.089 HD
ATOM     24  H   UNL     1      34.114 -20.058 -23.936  0.00  0.00    -0.089 HD
ENDBRANCH  20  21
BRANCH  20  25
ATOM     25  C   UNL     1      35.637 -19.603 -21.316  0.00  0.00    +0.008 C 
BRANCH  25  27
ATOM     26 BR   UNL     1      33.402 -23.477 -17.065  0.00  0.00    -0.049 Br
ATOM     27  C   UNL     1      35.090 -20.551 -20.277  0.00  0.00    -0.024 C 
ATOM     28  C   UNL     1      33.719 -20.730 -20.175  0.00  0.00    -0.004 C 
ATOM     29  C   UNL     1      35.968 -21.224 -19.444  0.00  0.00    -0.004 C 
ATOM     30  C   UNL     1      33.214 -21.605 -19.214  0.00  0.00    +0.006 C 
ATOM     31  C   UNL     1      35.463 -22.099 -18.483  0.00  0.00    +0.006 C 
ATOM     32  C   UNL     1      34.086 -22.291 -18.368  0.00  0.00    +0.035 C 
ENDBRANCH  25  27
ENDBRANCH  20  25
ENDBRANCH  19  20
ENDBRANCH  18  19
ENDBRANCH   3  18
TORSDOF 7
ENDMDL
MODEL 3
REMARK VINA RESULT:     -11.5      3.941      7.305
REMARK  Name = 16122642
REMARK  7 active torsions:
REMARK  status: ('A' for Active; 'I' for Inactive)
REMARK    1  A    between atoms: C_2  and  C_10
REMARK    2  A    between atoms: C_3  and  O_18
REMARK    3  A    between atoms: O_18  and  C_19
REMARK    4  A    between atoms: C_19  and  C_20
REMARK    5  A    between atoms: C_20  and  N_21
REMARK    6  A    between atoms: C_20  and  C_25
REMARK    7  A    between atoms: C_25  and  C_27
REMARK                            x       y       z     vdW  Elec       q    Type
REMARK                         _______ _______ _______ _____ _____    ______ ____
ROOT
ATOM      1  N   UNL     1      33.417 -15.126 -26.497  0.00  0.00    -0.239 NA
ATOM      2  C   UNL     1      33.308 -13.975 -24.381  0.00  0.00    +0.022 C 
ATOM      3  C   UNL     1      34.123 -16.230 -24.466  0.00  0.00    +0.158 C 
ATOM      4  C   UNL     1      33.813 -15.090 -23.731  0.00  0.00    +0.040 C 
ATOM      5  C   UNL     1      33.129 -14.036 -25.750  0.00  0.00    +0.099 C 
ATOM      6  C   UNL     1      33.909 -16.196 -25.835  0.00  0.00    +0.136 C 
ENDROOT
BRANCH   2  10
ATOM      7  N   UNL     1      32.903  -8.558 -22.348  0.00  0.00    -0.280 N 
ATOM      8  N   UNL     1      32.094  -9.339 -21.606  0.00  0.00    -0.173 NA
ATOM      9  C   UNL     1      33.171 -10.512 -23.226  0.00  0.00    +0.032 A 
ATOM     10  C   UNL     1      32.976 -12.771 -23.642  0.00  0.00    +0.002 C 
ATOM     11  C   UNL     1      32.236 -10.570 -22.129  0.00  0.00    +0.102 A 
ATOM     12  C   UNL     1      33.592 -11.564 -24.030  0.00  0.00    +0.003 C 
ATOM     13  C   UNL     1      33.577  -9.212 -23.338  0.00  0.00    +0.053 A 
ATOM     14  C   UNL     1      32.044 -12.881 -22.563  0.00  0.00    +0.002 C 
ATOM     15  C   UNL     1      31.636 -11.790 -21.764  0.00  0.00    +0.021 C 
ATOM     16  C   UNL     1      34.504  -8.514 -24.244  0.00  0.00    +0.051 C 
ATOM     17  H   UNL     1      33.002  -7.593 -22.188  0.00  0.00    +0.189 HD
ENDBRANCH   2  10
BRANCH   3  18
ATOM     18  O   UNL     1      34.619 -17.337 -23.862  0.00  0.00    -0.476 OA
BRANCH  18  19
ATOM     19  C   UNL     1      35.681 -17.153 -22.924  0.00  0.00    +0.184 C 
BRANCH  19  20
ATOM     20  C   UNL     1      35.424 -17.983 -21.660  0.00  0.00    -0.017 C 
BRANCH  20  21
ATOM     21  N   UNL     1      34.942 -17.083 -20.608  0.00  0.00    +0.384 N 
ATOM     22  H   UNL     1      35.737 -16.652 -20.138  0.00  0.00    -0.089 HD
ATOM     23  H   UNL     1      34.395 -17.615 -19.931  0.00  0.00    -0.089 HD
ATOM     24  H   UNL     1      34.357 -16.358 -21.023  0.00  0.00    -0.089 HD
ENDBRANCH  20  21
BRANCH  20  25
ATOM     25  C   UNL     1      34.373 -19.094 -21.867  0.00  0.00    +0.008 C 
BRANCH  25  27
ATOM     26 BR   UNL     1      34.089 -23.243 -17.308  0.00  0.00    -0.049 Br
ATOM     27  C   UNL     1      34.303 -20.109 -20.752  0.00  0.00    -0.024 C 
ATOM     28  C   UNL     1      33.068 -20.468 -20.237  0.00  0.00    -0.004 C 
ATOM     29  C   UNL     1      35.475 -20.663 -20.265  0.00  0.00    -0.004 C 
ATOM     30  C   UNL     1      33.004 -21.406 -19.206  0.00  0.00    +0.006 C 
ATOM     31  C   UNL     1      35.411 -21.600 -19.234  0.00  0.00    +0.006 C 
ATOM     32  C   UNL     1      34.176 -21.972 -18.705  0.00  0.00    +0.035 C 
ENDBRANCH  25  27
ENDBRANCH  20  25
ENDBRANCH  19  20
ENDBRANCH  18  19
ENDBRANCH   3  18
TORSDOF 7
ENDMDL
MODEL 4
REMARK VINA RESULT:     -11.2      2.354      3.246
REMARK  Name = 16122642
REMARK  7 active torsions:
REMARK  status: ('A' for Active; 'I' for Inactive)
REMARK    1  A    between atoms: C_2  and  C_10
REMARK    2  A    between atoms: C_3  and  O_18
REMARK    3  A    between atoms: O_18  and  C_19
REMARK    4  A    between atoms: C_19  and  C_20
REMARK    5  A    between atoms: C_20  and  N_21
REMARK    6  A    between atoms: C_20  and  C_25
REMARK    7  A    between atoms: C_25  and  C_27
REMARK                            x       y       z     vdW  Elec       q    Type
REMARK                         _______ _______ _______ _____ _____    ______ ____
ROOT
ATOM      1  N   UNL     1      36.440 -21.443 -19.296  0.00  0.00    -0.239 NA
ATOM      2  C   UNL     1      35.006 -20.081 -20.676  0.00  0.00    +0.022 C 
ATOM      3  C   UNL     1      34.043 -21.760 -19.258  0.00  0.00    +0.158 C 
ATOM      4  C   UNL     1      33.887 -20.743 -20.193  0.00  0.00    +0.040 C 
ATOM      5  C   UNL     1      36.248 -20.459 -20.204  0.00  0.00    +0.099 C 
ATOM      6  C   UNL     1      35.330 -22.069 -18.845  0.00  0.00    +0.136 C 
ENDROOT
BRANCH   2  10
ATOM      7  N   UNL     1      34.395 -14.999 -23.402  0.00  0.00    -0.280 N 
ATOM      8  N   UNL     1      34.498 -15.960 -24.340  0.00  0.00    -0.173 NA
ATOM      9  C   UNL     1      34.613 -16.799 -22.232  0.00  0.00    +0.032 A 
ATOM     10  C   UNL     1      34.874 -19.015 -21.652  0.00  0.00    +0.002 C 
ATOM     11  C   UNL     1      34.636 -17.102 -23.643  0.00  0.00    +0.102 A 
ATOM     12  C   UNL     1      34.726 -17.696 -21.177  0.00  0.00    +0.003 C 
ATOM     13  C   UNL     1      34.458 -15.447 -22.115  0.00  0.00    +0.053 A 
ATOM     14  C   UNL     1      34.903 -19.366 -23.038  0.00  0.00    +0.002 C 
ATOM     15  C   UNL     1      34.785 -18.429 -24.087  0.00  0.00    +0.021 C 
ATOM     16  C   UNL     1      34.364 -14.533 -20.964  0.00  0.00    +0.051 C 
ATOM     17  H   UNL     1      34.282 -14.048 -23.627  0.00  0.00    +0.189 HD
ENDBRANCH   2  10
BRANCH   3  18
ATOM     18  O   UNL     1      32.972 -22.428 -18.766  0.00  0.00    -0.476 OA
BRANCH  18  19
ATOM     19  C   UNL     1      33.208 -23.359 -17.707  0.00  0.00    +0.184 C 
BRANCH  19  20
ATOM     20  C   UNL     1      32.605 -22.839 -16.397  0.00  0.00    -0.017 C 
BRANCH  20  21
ATOM     21  N   UNL     1      31.146 -22.947 -16.486  0.00  0.00    +0.384 N 
ATOM     22  H   UNL     1      30.720 -22.441 -15.711  0.00  0.00    -0.089 HD
ATOM     23  H   UNL     1      30.874 -23.929 -16.440  0.00  0.00    -0.089 HD
ATOM     24  H   UNL     1      30.828 -22.547 -17.369  0.00  0.00    -0.089 HD
ENDBRANCH  20  21
BRANCH  20  25
ATOM     25  C   UNL     1      33.074 -23.630 -15.157  0.00  0.00    +0.008 C 
BRANCH  25  27
ATOM     26 BR   UNL     1      39.144 -24.716 -14.942  0.00  0.00    -0.049 Br
ATOM     27  C   UNL     1      34.559 -23.895 -15.104  0.00  0.00    -0.024 C 
ATOM     28  C   UNL     1      35.442 -22.828 -15.154  0.00  0.00    -0.004 C 
ATOM     29  C   UNL     1      35.011 -25.201 -15.006  0.00  0.00    -0.004 C 
ATOM     30  C   UNL     1      36.814 -23.074 -15.106  0.00  0.00    +0.006 C 
ATOM     31  C   UNL     1      36.383 -25.446 -14.958  0.00  0.00    +0.006 C 
ATOM     32  C   UNL     1      37.284 -24.383 -15.007  0.00  0.00    +0.035 C 
ENDBRANCH  25  27
ENDBRANCH  20  25
ENDBRANCH  19  20
ENDBRANCH  18  19
ENDBRANCH   3  18
TORSDOF 7
ENDMDL
MODEL 5
REMARK VINA RESULT:     -11.2      3.762      9.808
REMARK  Name = 16122642
REMARK  7 active torsions:
REMARK  status: ('A' for Active; 'I' for Inactive)
REMARK    1  A    between atoms: C_2  and  C_10
REMARK    2  A    between atoms: C_3  and  O_18
REMARK    3  A    between atoms: O_18  and  C_19
REMARK    4  A    between atoms: C_19  and  C_20
REMARK    5  A    between atoms: C_20  and  N_21
REMARK    6  A    between atoms: C_20  and  C_25
REMARK    7  A    between atoms: C_25  and  C_27
REMARK                            x       y       z     vdW  Elec       q    Type
REMARK                         _______ _______ _______ _____ _____    ______ ____
ROOT
ATOM      1  N   UNL     1      37.053 -22.045 -17.093  0.00  0.00    -0.239 NA
ATOM      2  C   UNL     1      34.809 -22.800 -16.637  0.00  0.00    +0.022 C 
ATOM      3  C   UNL     1      35.330 -21.849 -18.777  0.00  0.00    +0.158 C 
ATOM      4  C   UNL     1      34.406 -22.419 -17.908  0.00  0.00    +0.040 C 
ATOM      5  C   UNL     1      36.128 -22.597 -16.277  0.00  0.00    +0.099 C 
ATOM      6  C   UNL     1      36.630 -21.685 -18.325  0.00  0.00    +0.136 C 
ENDROOT
BRANCH   2  10
ATOM      7  N   UNL     1      30.096 -24.832 -13.936  0.00  0.00    -0.280 N 
ATOM      8  N   UNL     1      31.160 -25.066 -13.142  0.00  0.00    -0.173 NA
ATOM      9  C   UNL     1      31.742 -24.025 -15.076  0.00  0.00    +0.032 A 
ATOM     10  C   UNL     1      33.868 -23.398 -15.707  0.00  0.00    +0.002 C 
ATOM     11  C   UNL     1      32.209 -24.574 -13.825  0.00  0.00    +0.102 A 
ATOM     12  C   UNL     1      32.506 -23.423 -16.067  0.00  0.00    +0.003 C 
ATOM     13  C   UNL     1      30.389 -24.207 -15.113  0.00  0.00    +0.053 A 
ATOM     14  C   UNL     1      34.381 -23.928 -14.481  0.00  0.00    +0.002 C 
ATOM     15  C   UNL     1      33.576 -24.535 -13.493  0.00  0.00    +0.021 C 
ATOM     16  C   UNL     1      29.348 -23.875 -16.100  0.00  0.00    +0.051 C 
ATOM     17  H   UNL     1      29.181 -25.090 -13.685  0.00  0.00    +0.189 HD
ENDBRANCH   2  10
BRANCH   3  18
ATOM     18  O   UNL     1      34.970 -21.466 -20.026  0.00  0.00    -0.476 OA
BRANCH  18  19
ATOM     19  C   UNL     1      35.808 -20.515 -20.688  0.00  0.00    +0.184 C 
BRANCH  19  20
ATOM     20  C   UNL     1      34.965 -19.592 -21.577  0.00  0.00    -0.017 C 
BRANCH  20  21
ATOM     21  N   UNL     1      33.633 -19.465 -20.979  0.00  0.00    +0.384 N 
ATOM     22  H   UNL     1      33.642 -19.866 -20.042  0.00  0.00    -0.089 HD
ATOM     23  H   UNL     1      32.953 -19.961 -21.555  0.00  0.00    -0.089 HD
ATOM     24  H   UNL     1      33.378 -18.479 -20.924  0.00  0.00    -0.089 HD
ENDBRANCH  20  21
BRANCH  20  25
ATOM     25  C   UNL     1      35.566 -18.178 -21.725  0.00  0.00    +0.008 C 
BRANCH  25  27
ATOM     26 BR   UNL     1      33.118 -14.808 -26.277  0.00  0.00    -0.049 Br
ATOM     27  C   UNL     1      34.968 -17.353 -22.838  0.00  0.00    -0.024 C 
ATOM     28  C   UNL     1      34.526 -16.067 -22.569  0.00  0.00    -0.004 C 
ATOM     29  C   UNL     1      34.871 -17.897 -24.108  0.00  0.00    -0.004 C 
ATOM     30  C   UNL     1      33.972 -15.306 -23.598  0.00  0.00    +0.006 C 
ATOM     31  C   UNL     1      34.317 -17.136 -25.137  0.00  0.00    +0.006 C 
ATOM     32  C   UNL     1      33.869 -15.840 -24.883  0.00  0.00    +0.035 C 
ENDBRANCH  25  27
ENDBRANCH  20  25
ENDBRANCH  19  20
ENDBRANCH  18  19
ENDBRANCH   3  18
TORSDOF 7
ENDMDL
MODEL 6
REMARK VINA RESULT:     -11.1      2.918      5.239
REMARK  Name = 16122642
REMARK  7 active torsions:
REMARK  status: ('A' for Active; 'I' for Inactive)
REMARK    1  A    between atoms: C_2  and  C_10
REMARK    2  A    between atoms: C_3  and  O_18
REMARK    3  A    between atoms: O_18  and  C_19
REMARK    4  A    between atoms: C_19  and  C_20
REMARK    5  A    between atoms: C_20  and  N_21
REMARK    6  A    between atoms: C_20  and  C_25
REMARK    7  A    between atoms: C_25  and  C_27
REMARK                            x       y       z     vdW  Elec       q    Type
REMARK                         _______ _______ _______ _____ _____    ______ ____
ROOT
ATOM      1  N   UNL     1      34.911 -17.851 -24.266  0.00  0.00    -0.239 NA
ATOM      2  C   UNL     1      34.176 -16.013 -22.889  0.00  0.00    +0.022 C 
ATOM      3  C   UNL     1      34.967 -18.029 -21.856  0.00  0.00    +0.158 C 
ATOM      4  C   UNL     1      34.456 -16.740 -21.742  0.00  0.00    +0.040 C 
ATOM      5  C   UNL     1      34.417 -16.601 -24.116  0.00  0.00    +0.099 C 
ATOM      6  C   UNL     1      35.174 -18.533 -23.130  0.00  0.00    +0.136 C 
ENDROOT
BRANCH   2  10
ATOM      7  N   UNL     1      32.911 -10.407 -23.670  0.00  0.00    -0.280 N 
ATOM      8  N   UNL     1      32.191 -10.850 -22.622  0.00  0.00    -0.173 NA
ATOM      9  C   UNL     1      33.494 -12.480 -23.520  0.00  0.00    +0.032 A 
ATOM     10  C   UNL     1      33.644 -14.665 -22.803  0.00  0.00    +0.002 C 
ATOM     11  C   UNL     1      32.530 -12.145 -22.499  0.00  0.00    +0.102 A 
ATOM     12  C   UNL     1      34.096 -13.713 -23.737  0.00  0.00    +0.003 C 
ATOM     13  C   UNL     1      33.714 -11.346 -24.249  0.00  0.00    +0.053 A 
ATOM     14  C   UNL     1      32.691 -14.384 -21.773  0.00  0.00    +0.002 C 
ATOM     15  C   UNL     1      32.097 -13.118 -21.579  0.00  0.00    +0.021 C 
ATOM     16  C   UNL     1      34.569 -11.035 -25.407  0.00  0.00    +0.051 C 
ATOM     17  H   UNL     1      32.863  -9.478 -23.992  0.00  0.00    +0.189 HD
ENDBRANCH   2  10
BRANCH   3  18
ATOM     18  O   UNL     1      35.252 -18.767 -20.756  0.00  0.00    -0.476 OA
BRANCH  18  19
ATOM     19  C   UNL     1      35.085 -20.183 -20.855  0.00  0.00    +0.184 C 
BRANCH  19  20
ATOM     20  C   UNL     1      34.006 -20.661 -19.876  0.00  0.00    -0.017 C 
BRANCH  20  21
ATOM     21  N   UNL     1      32.694 -20.419 -20.482  0.00  0.00    +0.384 N 
ATOM     22  H   UNL     1      32.725 -20.667 -21.470  0.00  0.00    -0.089 HD
ATOM     23  H   UNL     1      32.451 -19.433 -20.387  0.00  0.00    -0.089 HD
ATOM     24  H   UNL     1      31.991 -20.989 -20.010  0.00  0.00    -0.089 HD
ENDBRANCH  20  21
BRANCH  20  25
ATOM     25  C   UNL     1      34.115 -22.163 -19.539  0.00  0.00    +0.008 C 
BRANCH  25  27
ATOM     26 BR   UNL     1      36.460 -23.384 -13.964  0.00  0.00    -0.049 Br
ATOM     27  C   UNL     1      34.688 -22.463 -18.175  0.00  0.00    -0.024 C 
ATOM     28  C   UNL     1      33.922 -23.159 -17.254  0.00  0.00    -0.004 C 
ATOM     29  C   UNL     1      35.969 -22.035 -17.870  0.00  0.00    -0.004 C 
ATOM     30  C   UNL     1      34.453 -23.435 -15.993  0.00  0.00    +0.006 C 
ATOM     31  C   UNL     1      36.500 -22.310 -16.610  0.00  0.00    +0.006 C 
ATOM     32  C   UNL     1      35.742 -23.011 -15.672  0.00  0.00    +0.035 C 
ENDBRANCH  25  27
ENDBRANCH  20  25
ENDBRANCH  19  20
ENDBRANCH  18  19
ENDBRANCH   3  18
TORSDOF 7
ENDMDL
MODEL 7
REMARK VINA RESULT:     -11.0      3.555      9.834
REMARK  Name = 16122642
REMARK  7 active torsions:
REMARK  status: ('A' for Active; 'I' for Inactive)
REMARK    1  A    between atoms: C_2  and  C_10
REMARK    2  A    between atoms: C_3  and  O_18
REMARK    3  A    between atoms: O_18  and  C_19
REMARK    4  A    between atoms: C_19  and  C_20
REMARK    5  A    between atoms: C_20  and  N_21
REMARK    6  A    between atoms: C_20  and  C_25
REMARK    7  A    between atoms: C_25  and  C_27
REMARK                            x       y       z     vdW  Elec       q    Type
REMARK                         _______ _______ _______ _____ _____    ______ ____
ROOT
ATOM      1  N   UNL     1      31.497 -23.129 -15.763  0.00  0.00    -0.239 NA
ATOM      2  C   UNL     1      33.797 -23.693 -15.307  0.00  0.00    +0.022 C 
ATOM      3  C   UNL     1      33.143 -23.077 -17.533  0.00  0.00    +0.158 C 
ATOM      4  C   UNL     1      34.130 -23.472 -16.635  0.00  0.00    +0.040 C 
ATOM      5  C   UNL     1      32.483 -23.511 -14.920  0.00  0.00    +0.099 C 
ATOM      6  C   UNL     1      31.854 -22.921 -17.050  0.00  0.00    +0.136 C 
ENDROOT
BRANCH   2  10
ATOM      7  N   UNL     1      38.654 -25.406 -12.641  0.00  0.00    -0.280 N 
ATOM      8  N   UNL     1      37.695 -25.272 -11.705  0.00  0.00    -0.173 NA
ATOM      9  C   UNL     1      36.939 -24.773 -13.788  0.00  0.00    +0.032 A 
ATOM     10  C   UNL     1      34.804 -24.105 -14.347  0.00  0.00    +0.002 C 
ATOM     11  C   UNL     1      36.606 -24.875 -12.388  0.00  0.00    +0.102 A 
ATOM     12  C   UNL     1      36.097 -24.395 -14.827  0.00  0.00    +0.003 C 
ATOM     13  C   UNL     1      38.254 -25.118 -13.914  0.00  0.00    +0.053 A 
ATOM     14  C   UNL     1      34.425 -24.192 -12.971  0.00  0.00    +0.002 C 
ATOM     15  C   UNL     1      35.306 -24.579 -11.938  0.00  0.00    +0.021 C 
ATOM     16  C   UNL     1      39.173 -25.211 -15.061  0.00  0.00    +0.051 C 
ATOM     17  H   UNL     1      39.571 -25.690 -12.425  0.00  0.00    +0.189 HD
ENDBRANCH   2  10
BRANCH   3  18
ATOM     18  O   UNL     1      33.435 -22.853 -18.837  0.00  0.00    -0.476 OA
BRANCH  18  19
ATOM     19  C   UNL     1      34.555 -22.012 -19.123  0.00  0.00    +0.184 C 
BRANCH  19  20
ATOM     20  C   UNL     1      34.212 -21.036 -20.255  0.00  0.00    -0.017 C 
BRANCH  20  21
ATOM     21  N   UNL     1      32.929 -20.399 -19.942  0.00  0.00    +0.384 N 
ATOM     22  H   UNL     1      32.459 -20.926 -19.206  0.00  0.00    -0.089 HD
ATOM     23  H   UNL     1      32.343 -20.386 -20.777  0.00  0.00    -0.089 HD
ATOM     24  H   UNL     1      33.092 -19.443 -19.625  0.00  0.00    -0.089 HD
ENDBRANCH  20  21
BRANCH  20  25
ATOM     25  C   UNL     1      35.269 -19.927 -20.442  0.00  0.00    +0.008 C 
BRANCH  25  27
ATOM     26 BR   UNL     1      34.261 -16.197 -25.253  0.00  0.00    -0.049 Br
ATOM     27  C   UNL     1      35.023 -19.014 -21.618  0.00  0.00    -0.024 C 
ATOM     28  C   UNL     1      34.913 -17.649 -21.408  0.00  0.00    -0.004 C 
ATOM     29  C   UNL     1      34.912 -19.559 -22.887  0.00  0.00    -0.004 C 
ATOM     30  C   UNL     1      34.685 -16.806 -22.495  0.00  0.00    +0.006 C 
ATOM     31  C   UNL     1      34.683 -18.716 -23.974  0.00  0.00    +0.006 C 
ATOM     32  C   UNL     1      34.570 -17.340 -23.779  0.00  0.00    +0.035 C 
ENDBRANCH  25  27
ENDBRANCH  20  25
ENDBRANCH  19  20
ENDBRANCH  18  19
ENDBRANCH   3  18
TORSDOF 7
ENDMDL
MODEL 8
REMARK VINA RESULT:     -10.9      8.191     13.606
REMARK  Name = 16122642
REMARK  7 active torsions:
REMARK  status: ('A' for Active; 'I' for Inactive)
REMARK    1  A    between atoms: C_2  and  C_10
REMARK    2  A    between atoms: C_3  and  O_18
REMARK    3  A    between atoms: O_18  and  C_19
REMARK    4  A    between atoms: C_19  and  C_20
REMARK    5  A    between atoms: C_20  and  N_21
REMARK    6  A    between atoms: C_20  and  C_25
REMARK    7  A    between atoms: C_25  and  C_27
REMARK                            x       y       z     vdW  Elec       q    Type
REMARK                         _______ _______ _______ _____ _____    ______ ____
ROOT
ATOM      1  N   UNL     1      31.834 -12.474 -20.486  0.00  0.00    -0.239 NA
ATOM      2  C   UNL     1      32.731 -13.231 -22.593  0.00  0.00    +0.022 C 
ATOM      3  C   UNL     1      32.174 -10.915 -22.302  0.00  0.00    +0.158 C 
ATOM      4  C   UNL     1      32.660 -11.944 -23.103  0.00  0.00    +0.040 C 
ATOM      5  C   UNL     1      32.312 -13.447 -21.294  0.00  0.00    +0.099 C 
ATOM      6  C   UNL     1      31.778 -11.231 -21.012  0.00  0.00    +0.136 C 
ENDROOT
BRANCH   2  10
ATOM      7  N   UNL     1      35.247 -18.067 -24.572  0.00  0.00    -0.280 N 
ATOM      8  N   UNL     1      34.683 -17.437 -25.620  0.00  0.00    -0.173 NA
ATOM      9  C   UNL     1      34.368 -16.313 -23.671  0.00  0.00    +0.032 A 
ATOM     10  C   UNL     1      33.234 -14.325 -23.404  0.00  0.00    +0.002 C 
ATOM     11  C   UNL     1      34.122 -16.334 -25.093  0.00  0.00    +0.102 A 
ATOM     12  C   UNL     1      33.958 -15.348 -22.761  0.00  0.00    +0.003 C 
ATOM     13  C   UNL     1      35.089 -17.435 -23.373  0.00  0.00    +0.053 A 
ATOM     14  C   UNL     1      32.963 -14.299 -24.808  0.00  0.00    +0.002 C 
ATOM     15  C   UNL     1      33.394 -15.298 -25.708  0.00  0.00    +0.021 C 
ATOM     16  C   UNL     1      35.641 -17.983 -22.123  0.00  0.00    +0.051 C 
ATOM     17  H   UNL     1      35.736 -18.915 -24.664  0.00  0.00    +0.189 HD
ENDBRANCH   2  10
BRANCH   3  18
ATOM     18  O   UNL     1      32.091  -9.646 -22.770  0.00  0.00    -0.476 OA
BRANCH  18  19
ATOM     19  C   UNL     1      31.517  -8.664 -21.903  0.00  0.00    +0.184 C 
BRANCH  19  20
ATOM     20  C   UNL     1      32.547  -7.576 -21.577  0.00  0.00    -0.017 C 
BRANCH  20  21
ATOM     21  N   UNL     1      33.040  -7.800 -20.215  0.00  0.00    +0.384 N 
ATOM     22  H   UNL     1      32.261  -8.055 -19.610  0.00  0.00    -0.089 HD
ATOM     23  H   UNL     1      33.476  -6.946 -19.867  0.00  0.00    -0.089 HD
ATOM     24  H   UNL     1      33.727  -8.554 -20.222  0.00  0.00    -0.089 HD
ENDBRANCH  20  21
BRANCH  20  25
ATOM     25  C   UNL     1      33.757  -7.577 -22.536  0.00  0.00    +0.008 C 
BRANCH  25  27
ATOM     26 BR   UNL     1      33.017  -4.164 -27.623  0.00  0.00    -0.049 Br
ATOM     27  C   UNL     1      33.575  -6.742 -23.780  0.00  0.00    -0.024 C 
ATOM     28  C   UNL     1      32.418  -5.995 -23.934  0.00  0.00    -0.004 C 
ATOM     29  C   UNL     1      34.569  -6.738 -24.745  0.00  0.00    -0.004 C 
ATOM     30  C   UNL     1      32.251  -5.223 -25.084  0.00  0.00    +0.006 C 
ATOM     31  C   UNL     1      34.402  -5.967 -25.895  0.00  0.00    +0.006 C 
ATOM     32  C   UNL     1      33.244  -5.209 -26.064  0.00  0.00    +0.035 C 
ENDBRANCH  25  27
ENDBRANCH  20  25
ENDBRANCH  19  20
ENDBRANCH  18  19
ENDBRANCH   3  18
TORSDOF 7
ENDMDL
MODEL 9
REMARK VINA RESULT:     -10.8      3.593      9.991
REMARK  Name = 16122642
REMARK  7 active torsions:
REMARK  status: ('A' for Active; 'I' for Inactive)
REMARK    1  A    between atoms: C_2  and  C_10
REMARK    2  A    between atoms: C_3  and  O_18
REMARK    3  A    between atoms: O_18  and  C_19
REMARK    4  A    between atoms: C_19  and  C_20
REMARK    5  A    between atoms: C_20  and  N_21
REMARK    6  A    between atoms: C_20  and  C_25
REMARK    7  A    between atoms: C_25  and  C_27
REMARK                            x       y       z     vdW  Elec       q    Type
REMARK                         _______ _______ _______ _____ _____    ______ ____
ROOT
ATOM      1  N   UNL     1      32.648 -22.929 -18.037  0.00  0.00    -0.239 NA
ATOM      2  C   UNL     1      34.526 -23.232 -16.555  0.00  0.00    +0.022 C 
ATOM      3  C   UNL     1      34.795 -21.951 -18.566  0.00  0.00    +0.158 C 
ATOM      4  C   UNL     1      35.332 -22.481 -17.398  0.00  0.00    +0.040 C 
ATOM      5  C   UNL     1      33.205 -23.427 -16.910  0.00  0.00    +0.099 C 
ATOM      6  C   UNL     1      33.459 -22.201 -18.837  0.00  0.00    +0.136 C 
ENDROOT
BRANCH   2  10
ATOM      7  N   UNL     1      37.794 -25.758 -12.484  0.00  0.00    -0.280 N 
ATOM      8  N   UNL     1      36.623 -25.410 -11.916  0.00  0.00    -0.173 NA
ATOM      9  C   UNL     1      36.714 -24.845 -14.115  0.00  0.00    +0.032 A 
ATOM     10  C   UNL     1      35.058 -23.798 -15.329  0.00  0.00    +0.002 C 
ATOM     11  C   UNL     1      35.921 -24.834 -12.908  0.00  0.00    +0.102 A 
ATOM     12  C   UNL     1      36.355 -24.348 -15.361  0.00  0.00    +0.003 C 
ATOM     13  C   UNL     1      37.903 -25.442 -13.807  0.00  0.00    +0.053 A 
ATOM     14  C   UNL     1      34.234 -23.763 -14.161  0.00  0.00    +0.002 C 
ATOM     15  C   UNL     1      34.629 -24.277 -12.907  0.00  0.00    +0.021 C 
ATOM     16  C   UNL     1      39.114 -25.750 -14.586  0.00  0.00    +0.051 C 
ATOM     17  H   UNL     1      38.513 -26.206 -11.985  0.00  0.00    +0.189 HD
ENDBRANCH   2  10
BRANCH   3  18
ATOM     18  O   UNL     1      35.554 -21.213 -19.412  0.00  0.00    -0.476 OA
BRANCH  18  19
ATOM     19  C   UNL     1      34.882 -20.544 -20.482  0.00  0.00    +0.184 C 
BRANCH  19  20
ATOM     20  C   UNL     1      35.631 -19.260 -20.860  0.00  0.00    -0.017 C 
BRANCH  20  21
ATOM     21  N   UNL     1      37.024 -19.391 -20.421  0.00  0.00    +0.384 N 
ATOM     22  H   UNL     1      37.590 -18.674 -20.871  0.00  0.00    -0.089 HD
ATOM     23  H   UNL     1      37.375 -20.313 -20.680  0.00  0.00    -0.089 HD
ATOM     24  H   UNL     1      37.073 -19.280 -19.409  0.00  0.00    -0.089 HD
ENDBRANCH  20  21
BRANCH  20  25
ATOM     25  C   UNL     1      35.626 -18.978 -22.377  0.00  0.00    +0.008 C 
BRANCH  25  27
ATOM     26 BR   UNL     1      33.566 -13.377 -23.946  0.00  0.00    -0.049 Br
ATOM     27  C   UNL     1      35.121 -17.608 -22.762  0.00  0.00    -0.024 C 
ATOM     28  C   UNL     1      34.900 -17.316 -24.098  0.00  0.00    -0.004 C 
ATOM     29  C   UNL     1      34.890 -16.669 -21.770  0.00  0.00    -0.004 C 
ATOM     30  C   UNL     1      34.434 -16.049 -24.452  0.00  0.00    +0.006 C 
ATOM     31  C   UNL     1      34.424 -15.403 -22.125  0.00  0.00    +0.006 C 
ATOM     32  C   UNL     1      34.196 -15.093 -23.465  0.00  0.00    +0.035 C 
ENDBRANCH  25  27
ENDBRANCH  20  25
ENDBRANCH  19  20
ENDBRANCH  18  19
ENDBRANCH   3  18
TORSDOF 7
ENDMDL
