MODEL 1
REMARK VINA RESULT:     -10.9      0.000      0.000
REMARK  Name = 16058682
REMARK  8 active torsions:
REMARK  status: ('A' for Active; 'I' for Inactive)
REMARK    1  A    between atoms: C_1  and  O_20
REMARK    2  A    between atoms: C_3  and  O_22
REMARK    3  A    between atoms: C_3  and  C_27
REMARK    4  A    between atoms: C_4  and  O_24
REMARK    5  A    between atoms: C_5  and  C_7
REMARK    6  A    between atoms: C_10  and  S_13
REMARK    7  A    between atoms: S_13  and  C_14
REMARK    8  A    between atoms: C_27  and  O_28
REMARK                            x       y       z     vdW  Elec       q    Type
REMARK                         _______ _______ _______ _____ _____    ______ ____
ROOT
ATOM      1  C   UNL     1      37.994 -25.831 -13.203  0.00  0.00    +0.145 C 
ATOM      2  C   UNL     1      38.121 -25.000 -11.923  0.00  0.00    +0.074 C 
ATOM      3  C   UNL     1      37.071 -23.885 -11.821  0.00  0.00    +0.198 C 
ATOM      4  C   UNL     1      38.001 -24.936 -14.453  0.00  0.00    +0.159 C 
ATOM      5  C   UNL     1      37.061 -23.755 -14.337  0.00  0.00    +0.005 C 
ATOM      6  C   UNL     1      36.656 -23.291 -13.138  0.00  0.00    +0.009 C 
ENDROOT
BRANCH   5   7
ATOM      7  C   UNL     1      36.555 -23.136 -15.588  0.00  0.00    -0.001 C 
ATOM      8  C   UNL     1      35.269 -23.429 -16.044  0.00  0.00    +0.006 C 
ATOM      9  C   UNL     1      37.366 -22.258 -16.309  0.00  0.00    -0.000 C 
ATOM     10  C   UNL     1      34.795 -22.846 -17.220  0.00  0.00    +0.029 C 
ATOM     11  C   UNL     1      36.892 -21.675 -17.485  0.00  0.00    +0.001 C 
ATOM     12  C   UNL     1      35.606 -21.969 -17.939  0.00  0.00    +0.006 C 
BRANCH  10  13
ATOM     13  S   UNL     1      33.153 -23.220 -17.801  0.00  0.00    -0.087 S 
BRANCH  13  14
ATOM     14  C   UNL     1      32.236 -23.245 -16.269  0.00  0.00    +0.029 C 
ATOM     15  C   UNL     1      30.888 -22.896 -16.262  0.00  0.00    +0.006 C 
ATOM     16  C   UNL     1      32.873 -23.613 -15.086  0.00  0.00    +0.006 C 
ATOM     17  C   UNL     1      30.171 -22.917 -15.065  0.00  0.00    +0.001 C 
ATOM     18  C   UNL     1      32.156 -23.633 -13.889  0.00  0.00    +0.001 C 
ATOM     19  C   UNL     1      30.807 -23.285 -13.878  0.00  0.00    +0.000 C 
ENDBRANCH  13  14
ENDBRANCH  10  13
ENDBRANCH   5   7
BRANCH   1  20
ATOM     20  O   UNL     1      36.795 -26.600 -13.163  0.00  0.00    -0.382 OA
ATOM     21  H   UNL     1      36.898 -27.389 -13.717  0.00  0.00    +0.210 HD
ENDBRANCH   1  20
BRANCH   3  22
ATOM     22  O   UNL     1      37.584 -22.874 -10.958  0.00  0.00    -0.373 OA
ATOM     23  H   UNL     1      37.814 -23.266 -10.101  0.00  0.00    +0.211 HD
ENDBRANCH   3  22
BRANCH   4  24
ATOM     24  O   UNL     1      39.326 -24.441 -14.648  0.00  0.00    -0.378 OA
ATOM     25  H   UNL     1      39.602 -24.611 -15.562  0.00  0.00    +0.211 HD
ENDBRANCH   4  24
BRANCH   3  27
ATOM     26  O   UNL     1      34.856 -24.792 -11.766  0.00  0.00    -0.247 OA
ATOM     27  C   UNL     1      35.818 -24.366 -11.145  0.00  0.00    +0.342 C 
BRANCH  27  28
ATOM     28  O   UNL     1      35.892 -24.271  -9.795  0.00  0.00    -0.478 OA
ATOM     29  H   UNL     1      35.148 -24.486  -9.269  0.00  0.00    +0.295 HD
ENDBRANCH  27  28
ENDBRANCH   3  27
TORSDOF 8
ENDMDL
MODEL 2
REMARK VINA RESULT:     -10.8      1.869      3.887
REMARK  Name = 16058682
REMARK  8 active torsions:
REMARK  status: ('A' for Active; 'I' for Inactive)
REMARK    1  A    between atoms: C_1  and  O_20
REMARK    2  A    between atoms: C_3  and  O_22
REMARK    3  A    between atoms: C_3  and  C_27
REMARK    4  A    between atoms: C_4  and  O_24
REMARK    5  A    between atoms: C_5  and  C_7
REMARK    6  A    between atoms: C_10  and  S_13
REMARK    7  A    between atoms: S_13  and  C_14
REMARK    8  A    between atoms: C_27  and  O_28
REMARK                            x       y       z     vdW  Elec       q    Type
REMARK                         _______ _______ _______ _____ _____    ______ ____
ROOT
ATOM      1  C   UNL     1      37.715 -24.506 -12.214  0.00  0.00    +0.145 C 
ATOM      2  C   UNL     1      38.403 -25.755 -12.772  0.00  0.00    +0.074 C 
ATOM      3  C   UNL     1      38.223 -25.916 -14.288  0.00  0.00    +0.198 C 
ATOM      4  C   UNL     1      36.231 -24.460 -12.612  0.00  0.00    +0.159 C 
ATOM      5  C   UNL     1      36.007 -24.734 -14.084  0.00  0.00    +0.005 C 
ATOM      6  C   UNL     1      36.917 -25.399 -14.824  0.00  0.00    +0.009 C 
ENDROOT
BRANCH   5   7
ATOM      7  C   UNL     1      34.767 -24.214 -14.714  0.00  0.00    -0.001 C 
ATOM      8  C   UNL     1      33.568 -24.214 -14.001  0.00  0.00    +0.006 C 
ATOM      9  C   UNL     1      34.801 -23.723 -16.020  0.00  0.00    -0.000 C 
ATOM     10  C   UNL     1      32.403 -23.723 -14.595  0.00  0.00    +0.029 C 
ATOM     11  C   UNL     1      33.638 -23.233 -16.613  0.00  0.00    +0.001 C 
ATOM     12  C   UNL     1      32.439 -23.233 -15.900  0.00  0.00    +0.006 C 
BRANCH  10  13
ATOM     13  S   UNL     1      30.871 -23.722 -13.685  0.00  0.00    -0.087 S 
BRANCH  13  14
ATOM     14  C   UNL     1      29.680 -23.558 -15.005  0.00  0.00    +0.029 C 
ATOM     15  C   UNL     1      29.053 -22.333 -15.225  0.00  0.00    +0.006 C 
ATOM     16  C   UNL     1      29.383 -24.654 -15.811  0.00  0.00    +0.006 C 
ATOM     17  C   UNL     1      28.123 -22.204 -16.257  0.00  0.00    +0.001 C 
ATOM     18  C   UNL     1      28.453 -24.524 -16.843  0.00  0.00    +0.001 C 
ATOM     19  C   UNL     1      27.823 -23.301 -17.066  0.00  0.00    +0.000 C 
ENDBRANCH  13  14
ENDBRANCH  10  13
ENDBRANCH   5   7
BRANCH   1  20
ATOM     20  O   UNL     1      38.380 -23.337 -12.685  0.00  0.00    -0.382 OA
ATOM     21  H   UNL     1      39.340 -23.481 -12.666  0.00  0.00    +0.210 HD
ENDBRANCH   1  20
BRANCH   3  22
ATOM     22  O   UNL     1      38.381 -27.296 -14.608  0.00  0.00    -0.373 OA
ATOM     23  H   UNL     1      37.722 -27.817 -14.122  0.00  0.00    +0.211 HD
ENDBRANCH   3  22
BRANCH   4  24
ATOM     24  O   UNL     1      35.529 -25.448 -11.857  0.00  0.00    -0.378 OA
ATOM     25  H   UNL     1      34.596 -25.453 -12.122  0.00  0.00    +0.211 HD
ENDBRANCH   4  24
BRANCH   3  27
ATOM     26  O   UNL     1      40.390 -25.748 -15.293  0.00  0.00    -0.247 OA
ATOM     27  C   UNL     1      39.315 -25.219 -15.052  0.00  0.00    +0.342 C 
BRANCH  27  28
ATOM     28  O   UNL     1      38.962 -23.967 -15.429  0.00  0.00    -0.478 OA
ATOM     29  H   UNL     1      38.443 -23.435 -14.860  0.00  0.00    +0.295 HD
ENDBRANCH  27  28
ENDBRANCH   3  27
TORSDOF 8
ENDMDL
MODEL 3
REMARK VINA RESULT:     -10.8      2.110      3.794
REMARK  Name = 16058682
REMARK  8 active torsions:
REMARK  status: ('A' for Active; 'I' for Inactive)
REMARK    1  A    between atoms: C_1  and  O_20
REMARK    2  A    between atoms: C_3  and  O_22
REMARK    3  A    between atoms: C_3  and  C_27
REMARK    4  A    between atoms: C_4  and  O_24
REMARK    5  A    between atoms: C_5  and  C_7
REMARK    6  A    between atoms: C_10  and  S_13
REMARK    7  A    between atoms: S_13  and  C_14
REMARK    8  A    between atoms: C_27  and  O_28
REMARK                            x       y       z     vdW  Elec       q    Type
REMARK                         _______ _______ _______ _____ _____    ______ ____
ROOT
ATOM      1  C   UNL     1      37.884 -25.665 -13.292  0.00  0.00    +0.145 C 
ATOM      2  C   UNL     1      38.088 -24.714 -12.109  0.00  0.00    +0.074 C 
ATOM      3  C   UNL     1      36.923 -23.734 -11.916  0.00  0.00    +0.198 C 
ATOM      4  C   UNL     1      37.580 -24.891 -14.585  0.00  0.00    +0.159 C 
ATOM      5  C   UNL     1      36.515 -23.830 -14.400  0.00  0.00    +0.005 C 
ATOM      6  C   UNL     1      36.236 -23.315 -13.186  0.00  0.00    +0.009 C 
ENDROOT
BRANCH   5   7
ATOM      7  C   UNL     1      35.746 -23.392 -15.592  0.00  0.00    -0.001 C 
ATOM      8  C   UNL     1      36.393 -22.735 -16.639  0.00  0.00    +0.006 C 
ATOM      9  C   UNL     1      34.374 -23.640 -15.667  0.00  0.00    -0.000 C 
ATOM     10  C   UNL     1      35.669 -22.325 -17.760  0.00  0.00    +0.029 C 
ATOM     11  C   UNL     1      33.650 -23.230 -16.786  0.00  0.00    +0.001 C 
ATOM     12  C   UNL     1      34.298 -22.573 -17.833  0.00  0.00    +0.006 C 
BRANCH  10  13
ATOM     13  S   UNL     1      36.494 -21.487 -19.098  0.00  0.00    -0.087 S 
BRANCH  13  14
ATOM     14  C   UNL     1      35.121 -20.681 -19.906  0.00  0.00    +0.029 C 
ATOM     15  C   UNL     1      33.831 -21.183 -19.747  0.00  0.00    +0.006 C 
ATOM     16  C   UNL     1      35.344 -19.553 -20.692  0.00  0.00    +0.006 C 
ATOM     17  C   UNL     1      32.758 -20.553 -20.377  0.00  0.00    +0.001 C 
ATOM     18  C   UNL     1      34.270 -18.924 -21.323  0.00  0.00    +0.001 C 
ATOM     19  C   UNL     1      32.978 -19.423 -21.166  0.00  0.00    +0.000 C 
ENDBRANCH  13  14
ENDBRANCH  10  13
ENDBRANCH   5   7
BRANCH   1  20
ATOM     20  O   UNL     1      36.822 -26.570 -13.007  0.00  0.00    -0.382 OA
ATOM     21  H   UNL     1      36.909 -27.358 -13.566  0.00  0.00    +0.210 HD
ENDBRANCH   1  20
BRANCH   3  22
ATOM     22  O   UNL     1      37.417 -22.594 -11.218  0.00  0.00    -0.373 OA
ATOM     23  H   UNL     1      37.787 -21.961 -11.853  0.00  0.00    +0.211 HD
ENDBRANCH   3  22
BRANCH   4  24
ATOM     24  O   UNL     1      38.780 -24.254 -15.025  0.00  0.00    -0.378 OA
ATOM     25  H   UNL     1      38.813 -24.262 -15.994  0.00  0.00    +0.211 HD
ENDBRANCH   4  24
BRANCH   3  27
ATOM     26  O   UNL     1      35.928 -24.233  -9.796  0.00  0.00    -0.247 OA
ATOM     27  C   UNL     1      35.864 -24.305 -11.014  0.00  0.00    +0.342 C 
BRANCH  27  28
ATOM     28  O   UNL     1      34.858 -24.891 -11.708  0.00  0.00    -0.478 OA
ATOM     29  H   UNL     1      33.970 -24.773 -11.434  0.00  0.00    +0.295 HD
ENDBRANCH  27  28
ENDBRANCH   3  27
TORSDOF 8
ENDMDL
MODEL 4
REMARK VINA RESULT:      -9.8      1.195      3.113
REMARK  Name = 16058682
REMARK  8 active torsions:
REMARK  status: ('A' for Active; 'I' for Inactive)
REMARK    1  A    between atoms: C_1  and  O_20
REMARK    2  A    between atoms: C_3  and  O_22
REMARK    3  A    between atoms: C_3  and  C_27
REMARK    4  A    between atoms: C_4  and  O_24
REMARK    5  A    between atoms: C_5  and  C_7
REMARK    6  A    between atoms: C_10  and  S_13
REMARK    7  A    between atoms: S_13  and  C_14
REMARK    8  A    between atoms: C_27  and  O_28
REMARK                            x       y       z     vdW  Elec       q    Type
REMARK                         _______ _______ _______ _____ _____    ______ ____
ROOT
ATOM      1  C   UNL     1      37.830 -24.437 -12.316  0.00  0.00    +0.145 C 
ATOM      2  C   UNL     1      38.310 -25.853 -12.650  0.00  0.00    +0.074 C 
ATOM      3  C   UNL     1      38.862 -25.981 -14.077  0.00  0.00    +0.198 C 
ATOM      4  C   UNL     1      36.821 -23.929 -13.357  0.00  0.00    +0.159 C 
ATOM      5  C   UNL     1      37.284 -24.149 -14.783  0.00  0.00    +0.005 C 
ATOM      6  C   UNL     1      38.203 -25.085 -15.089  0.00  0.00    +0.009 C 
ENDROOT
BRANCH   5   7
ATOM      7  C   UNL     1      36.726 -23.273 -15.845  0.00  0.00    -0.001 C 
ATOM      8  C   UNL     1      35.442 -23.505 -16.340  0.00  0.00    +0.006 C 
ATOM      9  C   UNL     1      37.486 -22.217 -16.347  0.00  0.00    -0.000 C 
ATOM     10  C   UNL     1      34.920 -22.681 -17.337  0.00  0.00    +0.029 C 
ATOM     11  C   UNL     1      36.964 -21.393 -17.344  0.00  0.00    +0.001 C 
ATOM     12  C   UNL     1      35.680 -21.625 -17.839  0.00  0.00    +0.006 C 
BRANCH  10  13
ATOM     13  S   UNL     1      33.280 -22.976 -17.970  0.00  0.00    -0.087 S 
BRANCH  13  14
ATOM     14  C   UNL     1      32.336 -23.081 -16.458  0.00  0.00    +0.029 C 
ATOM     15  C   UNL     1      32.982 -23.356 -15.254  0.00  0.00    +0.006 C 
ATOM     16  C   UNL     1      30.957 -22.888 -16.487  0.00  0.00    +0.006 C 
ATOM     17  C   UNL     1      32.245 -23.437 -14.073  0.00  0.00    +0.001 C 
ATOM     18  C   UNL     1      30.220 -22.970 -15.304  0.00  0.00    +0.001 C 
ATOM     19  C   UNL     1      30.863 -23.245 -14.098  0.00  0.00    +0.000 C 
ENDBRANCH  13  14
ENDBRANCH  10  13
ENDBRANCH   5   7
BRANCH   1  20
ATOM     20  O   UNL     1      38.945 -23.553 -12.248  0.00  0.00    -0.382 OA
ATOM     21  H   UNL     1      39.594 -23.798 -12.926  0.00  0.00    +0.210 HD
ENDBRANCH   1  20
BRANCH   3  22
ATOM     22  O   UNL     1      38.751 -27.345 -14.472  0.00  0.00    -0.373 OA
ATOM     23  H   UNL     1      38.698 -27.399 -15.439  0.00  0.00    +0.211 HD
ENDBRANCH   3  22
BRANCH   4  24
ATOM     24  O   UNL     1      35.588 -24.624 -13.171  0.00  0.00    -0.378 OA
ATOM     25  H   UNL     1      35.165 -24.316 -12.354  0.00  0.00    +0.211 HD
ENDBRANCH   4  24
BRANCH   3  27
ATOM     26  O   UNL     1      40.777 -24.563 -14.319  0.00  0.00    -0.247 OA
ATOM     27  C   UNL     1      40.336 -25.687 -14.127  0.00  0.00    +0.342 C 
BRANCH  27  28
ATOM     28  O   UNL     1      41.089 -26.796 -13.936  0.00  0.00    -0.478 OA
ATOM     29  H   UNL     1      42.014 -26.765 -14.080  0.00  0.00    +0.295 HD
ENDBRANCH  27  28
ENDBRANCH   3  27
TORSDOF 8
ENDMDL
MODEL 5
REMARK VINA RESULT:      -9.8      1.207      4.610
REMARK  Name = 16058682
REMARK  8 active torsions:
REMARK  status: ('A' for Active; 'I' for Inactive)
REMARK    1  A    between atoms: C_1  and  O_20
REMARK    2  A    between atoms: C_3  and  O_22
REMARK    3  A    between atoms: C_3  and  C_27
REMARK    4  A    between atoms: C_4  and  O_24
REMARK    5  A    between atoms: C_5  and  C_7
REMARK    6  A    between atoms: C_10  and  S_13
REMARK    7  A    between atoms: S_13  and  C_14
REMARK    8  A    between atoms: C_27  and  O_28
REMARK                            x       y       z     vdW  Elec       q    Type
REMARK                         _______ _______ _______ _____ _____    ______ ____
ROOT
ATOM      1  C   UNL     1      37.328 -24.071 -11.879  0.00  0.00    +0.145 C 
ATOM      2  C   UNL     1      38.027 -25.333 -12.393  0.00  0.00    +0.074 C 
ATOM      3  C   UNL     1      37.808 -25.575 -13.893  0.00  0.00    +0.198 C 
ATOM      4  C   UNL     1      35.833 -24.076 -12.235  0.00  0.00    +0.159 C 
ATOM      5  C   UNL     1      35.574 -24.429 -13.685  0.00  0.00    +0.005 C 
ATOM      6  C   UNL     1      36.477 -25.112 -14.417  0.00  0.00    +0.009 C 
ENDROOT
BRANCH   5   7
ATOM      7  C   UNL     1      34.306 -23.966 -14.304  0.00  0.00    -0.001 C 
ATOM      8  C   UNL     1      34.226 -23.790 -15.686  0.00  0.00    +0.006 C 
ATOM      9  C   UNL     1      33.193 -23.708 -13.504  0.00  0.00    -0.000 C 
ATOM     10  C   UNL     1      33.034 -23.355 -16.266  0.00  0.00    +0.029 C 
ATOM     11  C   UNL     1      32.001 -23.274 -14.083  0.00  0.00    +0.001 C 
ATOM     12  C   UNL     1      31.921 -23.098 -15.465  0.00  0.00    +0.006 C 
BRANCH  10  13
ATOM     13  S   UNL     1      32.930 -23.131 -18.031  0.00  0.00    -0.087 S 
BRANCH  13  14
ATOM     14  C   UNL     1      34.481 -22.312 -18.371  0.00  0.00    +0.029 C 
ATOM     15  C   UNL     1      35.517 -22.377 -17.441  0.00  0.00    +0.006 C 
ATOM     16  C   UNL     1      34.649 -21.612 -19.563  0.00  0.00    +0.006 C 
ATOM     17  C   UNL     1      36.729 -21.739 -17.707  0.00  0.00    +0.001 C 
ATOM     18  C   UNL     1      35.861 -20.973 -19.827  0.00  0.00    +0.001 C 
ATOM     19  C   UNL     1      36.900 -21.036 -18.900  0.00  0.00    +0.000 C 
ENDBRANCH  13  14
ENDBRANCH  10  13
ENDBRANCH   5   7
BRANCH   1  20
ATOM     20  O   UNL     1      37.954 -22.915 -12.427  0.00  0.00    -0.382 OA
ATOM     21  H   UNL     1      37.297 -22.388 -12.909  0.00  0.00    +0.210 HD
ENDBRANCH   1  20
BRANCH   3  22
ATOM     22  O   UNL     1      37.986 -26.965 -14.147  0.00  0.00    -0.373 OA
ATOM     23  H   UNL     1      38.206 -27.420 -13.318  0.00  0.00    +0.211 HD
ENDBRANCH   3  22
BRANCH   4  24
ATOM     24  O   UNL     1      35.174 -25.038 -11.412  0.00  0.00    -0.378 OA
ATOM     25  H   UNL     1      34.921 -24.624 -10.572  0.00  0.00    +0.211 HD
ENDBRANCH   4  24
BRANCH   3  27
ATOM     26  O   UNL     1      38.690 -23.804 -15.242  0.00  0.00    -0.247 OA
ATOM     27  C   UNL     1      38.863 -24.896 -14.722  0.00  0.00    +0.342 C 
BRANCH  27  28
ATOM     28  O   UNL     1      39.998 -25.630 -14.812  0.00  0.00    -0.478 OA
ATOM     29  H   UNL     1      40.587 -25.672 -14.086  0.00  0.00    +0.295 HD
ENDBRANCH  27  28
ENDBRANCH   3  27
TORSDOF 8
ENDMDL
MODEL 6
REMARK VINA RESULT:      -9.7      2.621      4.595
REMARK  Name = 16058682
REMARK  8 active torsions:
REMARK  status: ('A' for Active; 'I' for Inactive)
REMARK    1  A    between atoms: C_1  and  O_20
REMARK    2  A    between atoms: C_3  and  O_22
REMARK    3  A    between atoms: C_3  and  C_27
REMARK    4  A    between atoms: C_4  and  O_24
REMARK    5  A    between atoms: C_5  and  C_7
REMARK    6  A    between atoms: C_10  and  S_13
REMARK    7  A    between atoms: S_13  and  C_14
REMARK    8  A    between atoms: C_27  and  O_28
REMARK                            x       y       z     vdW  Elec       q    Type
REMARK                         _______ _______ _______ _____ _____    ______ ____
ROOT
ATOM      1  C   UNL     1      37.761 -24.491 -12.348  0.00  0.00    +0.145 C 
ATOM      2  C   UNL     1      38.223 -25.897 -12.740  0.00  0.00    +0.074 C 
ATOM      3  C   UNL     1      38.884 -25.951 -14.125  0.00  0.00    +0.198 C 
ATOM      4  C   UNL     1      36.854 -23.880 -13.428  0.00  0.00    +0.159 C 
ATOM      5  C   UNL     1      37.421 -24.022 -14.824  0.00  0.00    +0.005 C 
ATOM      6  C   UNL     1      38.334 -24.968 -15.121  0.00  0.00    +0.009 C 
ENDROOT
BRANCH   5   7
ATOM      7  C   UNL     1      36.977 -23.060 -15.864  0.00  0.00    -0.001 C 
ATOM      8  C   UNL     1      35.788 -23.282 -16.560  0.00  0.00    +0.006 C 
ATOM      9  C   UNL     1      37.748 -21.931 -16.144  0.00  0.00    -0.000 C 
ATOM     10  C   UNL     1      35.372 -22.376 -17.537  0.00  0.00    +0.029 C 
ATOM     11  C   UNL     1      37.331 -21.025 -17.120  0.00  0.00    +0.001 C 
ATOM     12  C   UNL     1      36.142 -21.248 -17.816  0.00  0.00    +0.006 C 
BRANCH  10  13
ATOM     13  S   UNL     1      33.853 -22.659 -18.426  0.00  0.00    -0.087 S 
BRANCH  13  14
ATOM     14  C   UNL     1      33.895 -21.332 -19.620  0.00  0.00    +0.029 C 
ATOM     15  C   UNL     1      35.077 -21.049 -20.302  0.00  0.00    +0.006 C 
ATOM     16  C   UNL     1      32.747 -20.583 -19.866  0.00  0.00    +0.006 C 
ATOM     17  C   UNL     1      35.110 -20.013 -21.235  0.00  0.00    +0.001 C 
ATOM     18  C   UNL     1      32.780 -19.547 -20.799  0.00  0.00    +0.001 C 
ATOM     19  C   UNL     1      33.961 -19.261 -21.483  0.00  0.00    +0.000 C 
ENDBRANCH  13  14
ENDBRANCH  10  13
ENDBRANCH   5   7
BRANCH   1  20
ATOM     20  O   UNL     1      38.893 -23.653 -12.134  0.00  0.00    -0.382 OA
ATOM     21  H   UNL     1      38.624 -22.723 -12.196  0.00  0.00    +0.210 HD
ENDBRANCH   1  20
BRANCH   3  22
ATOM     22  O   UNL     1      38.764 -27.282 -14.620  0.00  0.00    -0.373 OA
ATOM     23  H   UNL     1      39.163 -27.336 -15.502  0.00  0.00    +0.211 HD
ENDBRANCH   3  22
BRANCH   4  24
ATOM     24  O   UNL     1      35.589 -24.542 -13.385  0.00  0.00    -0.378 OA
ATOM     25  H   UNL     1      35.282 -24.592 -12.466  0.00  0.00    +0.211 HD
ENDBRANCH   4  24
BRANCH   3  27
ATOM     26  O   UNL     1      40.854 -24.590 -14.134  0.00  0.00    -0.247 OA
ATOM     27  C   UNL     1      40.365 -25.706 -14.041  0.00  0.00    +0.342 C 
BRANCH  27  28
ATOM     28  O   UNL     1      41.066 -26.850 -13.852  0.00  0.00    -0.478 OA
ATOM     29  H   UNL     1      42.000 -26.843 -13.920  0.00  0.00    +0.295 HD
ENDBRANCH  27  28
ENDBRANCH   3  27
TORSDOF 8
ENDMDL
MODEL 7
REMARK VINA RESULT:      -9.6      3.300      6.403
REMARK  Name = 16058682
REMARK  8 active torsions:
REMARK  status: ('A' for Active; 'I' for Inactive)
REMARK    1  A    between atoms: C_1  and  O_20
REMARK    2  A    between atoms: C_3  and  O_22
REMARK    3  A    between atoms: C_3  and  C_27
REMARK    4  A    between atoms: C_4  and  O_24
REMARK    5  A    between atoms: C_5  and  C_7
REMARK    6  A    between atoms: C_10  and  S_13
REMARK    7  A    between atoms: S_13  and  C_14
REMARK    8  A    between atoms: C_27  and  O_28
REMARK                            x       y       z     vdW  Elec       q    Type
REMARK                         _______ _______ _______ _____ _____    ______ ____
ROOT
ATOM      1  C   UNL     1      30.893 -24.819 -13.851  0.00  0.00    +0.145 C 
ATOM      2  C   UNL     1      29.720 -23.834 -13.848  0.00  0.00    +0.074 C 
ATOM      3  C   UNL     1      29.555 -23.089 -15.180  0.00  0.00    +0.198 C 
ATOM      4  C   UNL     1      32.199 -24.131 -14.276  0.00  0.00    +0.159 C 
ATOM      5  C   UNL     1      32.043 -23.288 -15.525  0.00  0.00    +0.005 C 
ATOM      6  C   UNL     1      30.840 -22.822 -15.914  0.00  0.00    +0.009 C 
ENDROOT
BRANCH   5   7
ATOM      7  C   UNL     1      33.251 -23.017 -16.345  0.00  0.00    -0.001 C 
ATOM      8  C   UNL     1      34.504 -22.938 -15.738  0.00  0.00    +0.006 C 
ATOM      9  C   UNL     1      33.132 -22.843 -17.724  0.00  0.00    -0.000 C 
ATOM     10  C   UNL     1      35.639 -22.684 -16.510  0.00  0.00    +0.029 C 
ATOM     11  C   UNL     1      34.266 -22.588 -18.496  0.00  0.00    +0.001 C 
ATOM     12  C   UNL     1      35.519 -22.510 -17.889  0.00  0.00    +0.006 C 
BRANCH  10  13
ATOM     13  S   UNL     1      37.241 -22.584 -15.736  0.00  0.00    -0.087 S 
BRANCH  13  14
ATOM     14  C   UNL     1      37.150 -23.933 -14.570  0.00  0.00    +0.029 C 
ATOM     15  C   UNL     1      37.224 -25.248 -15.024  0.00  0.00    +0.006 C 
ATOM     16  C   UNL     1      37.006 -23.667 -13.211  0.00  0.00    +0.006 C 
ATOM     17  C   UNL     1      37.155 -26.303 -14.114  0.00  0.00    +0.001 C 
ATOM     18  C   UNL     1      36.936 -24.722 -12.300  0.00  0.00    +0.001 C 
ATOM     19  C   UNL     1      37.010 -26.039 -12.751  0.00  0.00    +0.000 C 
ENDBRANCH  13  14
ENDBRANCH  10  13
ENDBRANCH   5   7
BRANCH   1  20
ATOM     20  O   UNL     1      30.608 -25.905 -14.727  0.00  0.00    -0.382 OA
ATOM     21  H   UNL     1      30.267 -26.654 -14.214  0.00  0.00    +0.210 HD
ENDBRANCH   1  20
BRANCH   3  22
ATOM     22  O   UNL     1      28.867 -21.868 -14.921  0.00  0.00    -0.373 OA
ATOM     23  H   UNL     1      28.829 -21.340 -15.733  0.00  0.00    +0.211 HD
ENDBRANCH   3  22
BRANCH   4  24
ATOM     24  O   UNL     1      32.633 -23.284 -13.212  0.00  0.00    -0.378 OA
ATOM     25  H   UNL     1      33.347 -22.708 -13.528  0.00  0.00    +0.211 HD
ENDBRANCH   4  24
BRANCH   3  27
ATOM     26  O   UNL     1      28.983 -24.902 -16.635  0.00  0.00    -0.247 OA
ATOM     27  C   UNL     1      28.659 -23.840 -16.126  0.00  0.00    +0.342 C 
BRANCH  27  28
ATOM     28  O   UNL     1      27.480 -23.206 -16.331  0.00  0.00    -0.478 OA
ATOM     29  H   UNL     1      26.971 -23.398 -17.093  0.00  0.00    +0.295 HD
ENDBRANCH  27  28
ENDBRANCH   3  27
TORSDOF 8
ENDMDL
MODEL 8
REMARK VINA RESULT:      -9.6      2.458      4.779
REMARK  Name = 16058682
REMARK  8 active torsions:
REMARK  status: ('A' for Active; 'I' for Inactive)
REMARK    1  A    between atoms: C_1  and  O_20
REMARK    2  A    between atoms: C_3  and  O_22
REMARK    3  A    between atoms: C_3  and  C_27
REMARK    4  A    between atoms: C_4  and  O_24
REMARK    5  A    between atoms: C_5  and  C_7
REMARK    6  A    between atoms: C_10  and  S_13
REMARK    7  A    between atoms: S_13  and  C_14
REMARK    8  A    between atoms: C_27  and  O_28
REMARK                            x       y       z     vdW  Elec       q    Type
REMARK                         _______ _______ _______ _____ _____    ______ ____
ROOT
ATOM      1  C   UNL     1      36.556 -23.527 -12.492  0.00  0.00    +0.145 C 
ATOM      2  C   UNL     1      36.785 -25.032 -12.326  0.00  0.00    +0.074 C 
ATOM      3  C   UNL     1      37.011 -25.758 -13.660  0.00  0.00    +0.198 C 
ATOM      4  C   UNL     1      35.420 -23.241 -13.487  0.00  0.00    +0.159 C 
ATOM      5  C   UNL     1      35.548 -24.034 -14.771  0.00  0.00    +0.005 C 
ATOM      6  C   UNL     1      36.267 -25.173 -14.828  0.00  0.00    +0.009 C 
ENDROOT
BRANCH   5   7
ATOM      7  C   UNL     1      34.891 -23.504 -15.992  0.00  0.00    -0.001 C 
ATOM      8  C   UNL     1      35.659 -22.944 -17.013  0.00  0.00    +0.006 C 
ATOM      9  C   UNL     1      33.502 -23.566 -16.119  0.00  0.00    -0.000 C 
ATOM     10  C   UNL     1      35.039 -22.446 -18.160  0.00  0.00    +0.029 C 
ATOM     11  C   UNL     1      32.883 -23.068 -17.265  0.00  0.00    +0.001 C 
ATOM     12  C   UNL     1      33.652 -22.509 -18.287  0.00  0.00    +0.006 C 
BRANCH  10  13
ATOM     13  S   UNL     1      36.020 -21.731 -19.465  0.00  0.00    -0.087 S 
BRANCH  13  14
ATOM     14  C   UNL     1      34.884 -20.529 -20.139  0.00  0.00    +0.029 C 
ATOM     15  C   UNL     1      33.511 -20.742 -20.040  0.00  0.00    +0.006 C 
ATOM     16  C   UNL     1      35.375 -19.384 -20.760  0.00  0.00    +0.006 C 
ATOM     17  C   UNL     1      32.623 -19.803 -20.565  0.00  0.00    +0.001 C 
ATOM     18  C   UNL     1      34.486 -18.445 -21.286  0.00  0.00    +0.001 C 
ATOM     19  C   UNL     1      33.111 -18.654 -21.189  0.00  0.00    +0.000 C 
ENDBRANCH  13  14
ENDBRANCH  10  13
ENDBRANCH   5   7
BRANCH   1  20
ATOM     20  O   UNL     1      37.757 -22.902 -12.933  0.00  0.00    -0.382 OA
ATOM     21  H   UNL     1      38.393 -22.871 -12.201  0.00  0.00    +0.210 HD
ENDBRANCH   1  20
BRANCH   3  22
ATOM     22  O   UNL     1      36.660 -27.128 -13.482  0.00  0.00    -0.373 OA
ATOM     23  H   UNL     1      35.933 -27.356 -14.082  0.00  0.00    +0.211 HD
ENDBRANCH   3  22
BRANCH   4  24
ATOM     24  O   UNL     1      34.179 -23.581 -12.869  0.00  0.00    -0.378 OA
ATOM     25  H   UNL     1      34.235 -23.406 -11.916  0.00  0.00    +0.211 HD
ENDBRANCH   4  24
BRANCH   3  27
ATOM     26  O   UNL     1      39.346 -25.380 -13.289  0.00  0.00    -0.247 OA
ATOM     27  C   UNL     1      38.466 -25.782 -14.036  0.00  0.00    +0.342 C 
BRANCH  27  28
ATOM     28  O   UNL     1      38.670 -26.295 -15.273  0.00  0.00    -0.478 OA
ATOM     29  H   UNL     1      39.540 -26.479 -15.567  0.00  0.00    +0.295 HD
ENDBRANCH  27  28
ENDBRANCH   3  27
TORSDOF 8
ENDMDL
MODEL 9
REMARK VINA RESULT:      -9.5      7.697     10.594
REMARK  Name = 16058682
REMARK  8 active torsions:
REMARK  status: ('A' for Active; 'I' for Inactive)
REMARK    1  A    between atoms: C_1  and  O_20
REMARK    2  A    between atoms: C_3  and  O_22
REMARK    3  A    between atoms: C_3  and  C_27
REMARK    4  A    between atoms: C_4  and  O_24
REMARK    5  A    between atoms: C_5  and  C_7
REMARK    6  A    between atoms: C_10  and  S_13
REMARK    7  A    between atoms: S_13  and  C_14
REMARK    8  A    between atoms: C_27  and  O_28
REMARK                            x       y       z     vdW  Elec       q    Type
REMARK                         _______ _______ _______ _____ _____    ______ ____
ROOT
ATOM      1  C   UNL     1      33.549 -14.922 -21.682  0.00  0.00    +0.145 C 
ATOM      2  C   UNL     1      34.538 -14.700 -22.830  0.00  0.00    +0.074 C 
ATOM      3  C   UNL     1      34.728 -15.944 -23.711  0.00  0.00    +0.198 C 
ATOM      4  C   UNL     1      33.932 -16.151 -20.844  0.00  0.00    +0.159 C 
ATOM      5  C   UNL     1      34.243 -17.368 -21.690  0.00  0.00    +0.005 C 
ATOM      6  C   UNL     1      34.606 -17.254 -22.983  0.00  0.00    +0.009 C 
ENDROOT
BRANCH   5   7
ATOM      7  C   UNL     1      34.097 -18.710 -21.070  0.00  0.00    -0.001 C 
ATOM      8  C   UNL     1      35.230 -19.440 -20.710  0.00  0.00    +0.006 C 
ATOM      9  C   UNL     1      32.826 -19.240 -20.847  0.00  0.00    -0.000 C 
ATOM     10  C   UNL     1      35.091 -20.701 -20.127  0.00  0.00    +0.029 C 
ATOM     11  C   UNL     1      32.687 -20.500 -20.265  0.00  0.00    +0.001 C 
ATOM     12  C   UNL     1      33.820 -21.230 -19.904  0.00  0.00    +0.006 C 
BRANCH  10  13
ATOM     13  S   UNL     1      36.537 -21.634 -19.666  0.00  0.00    -0.087 S 
BRANCH  13  14
ATOM     14  C   UNL     1      36.146 -22.073 -17.979  0.00  0.00    +0.029 C 
ATOM     15  C   UNL     1      34.918 -22.659 -17.683  0.00  0.00    +0.006 C 
ATOM     16  C   UNL     1      37.071 -21.828 -16.967  0.00  0.00    +0.006 C 
ATOM     17  C   UNL     1      34.612 -23.004 -16.366  0.00  0.00    +0.001 C 
ATOM     18  C   UNL     1      36.765 -22.173 -15.650  0.00  0.00    +0.001 C 
ATOM     19  C   UNL     1      35.536 -22.760 -15.349  0.00  0.00    +0.000 C 
ENDBRANCH  13  14
ENDBRANCH  10  13
ENDBRANCH   5   7
BRANCH   1  20
ATOM     20  O   UNL     1      32.233 -15.079 -22.203  0.00  0.00    -0.382 OA
ATOM     21  H   UNL     1      32.013 -16.023 -22.248  0.00  0.00    +0.210 HD
ENDBRANCH   1  20
BRANCH   3  22
ATOM     22  O   UNL     1      35.999 -15.844 -24.347  0.00  0.00    -0.373 OA
ATOM     23  H   UNL     1      36.697 -16.071 -23.713  0.00  0.00    +0.211 HD
ENDBRANCH   3  22
BRANCH   4  24
ATOM     24  O   UNL     1      35.090 -15.831 -20.072  0.00  0.00    -0.378 OA
ATOM     25  H   UNL     1      35.333 -16.594 -19.524  0.00  0.00    +0.211 HD
ENDBRANCH   4  24
BRANCH   3  27
ATOM     26  O   UNL     1      32.996 -15.038 -25.094  0.00  0.00    -0.247 OA
ATOM     27  C   UNL     1      33.735 -15.977 -24.840  0.00  0.00    +0.342 C 
BRANCH  27  28
ATOM     28  O   UNL     1      33.769 -17.148 -25.520  0.00  0.00    -0.478 OA
ATOM     29  H   UNL     1      34.559 -17.649 -25.552  0.00  0.00    +0.295 HD
ENDBRANCH  27  28
ENDBRANCH   3  27
TORSDOF 8
ENDMDL
