MODEL 1
REMARK VINA RESULT:      -9.3      0.000      0.000
REMARK  Name = 5288116
REMARK  0 active torsions:
REMARK  status: ('A' for Active; 'I' for Inactive)
REMARK                            x       y       z     vdW  Elec       q    Type
REMARK                         _______ _______ _______ _____ _____    ______ ____
ROOT
ATOM      1  N   UNL     1      34.120 -16.224 -25.741  0.00  0.00    -0.147 NA
ATOM      2  N   UNL     1      33.696 -15.341 -26.691  0.00  0.00    -0.133 NA
ATOM      3  N   UNL     1      32.730 -13.248 -27.293  0.00  0.00    -0.341 N 
ATOM      4  C   UNL     1      34.469 -15.039 -21.722  0.00  0.00    +0.031 C 
ATOM      5  C   UNL     1      33.357 -14.382 -22.547  0.00  0.00    +0.033 C 
ATOM      6  C   UNL     1      34.685 -16.486 -22.103  0.00  0.00    -0.020 C 
ATOM      7  C   UNL     1      33.502 -14.680 -24.015  0.00  0.00    +0.000 C 
ATOM      8  C   UNL     1      34.495 -16.891 -23.445  0.00  0.00    +0.015 C 
ATOM      9  C   UNL     1      34.025 -15.905 -24.429  0.00  0.00    +0.099 C 
ATOM     10  C   UNL     1      35.149 -17.400 -21.146  0.00  0.00    -0.004 C 
ATOM     11  C   UNL     1      33.056 -13.790 -24.984  0.00  0.00    +0.033 C 
ATOM     12  C   UNL     1      34.761 -18.228 -23.781  0.00  0.00    +0.001 C 
ATOM     13  C   UNL     1      35.402 -18.721 -21.501  0.00  0.00    -0.000 C 
ATOM     14  C   UNL     1      35.207 -19.136 -22.816  0.00  0.00    +0.000 C 
ATOM     15  C   UNL     1      33.177 -14.159 -26.306  0.00  0.00    +0.147 C 
ATOM     16  H   UNL     1      32.802 -13.481 -28.246  0.00  0.00    +0.144 HD
ATOM     17  H   UNL     1      32.346 -12.383 -27.024  0.00  0.00    +0.144 HD
ENDROOT
TORSDOF 0
ENDMDL
MODEL 2
REMARK VINA RESULT:      -9.1      2.739      5.575
REMARK  Name = 5288116
REMARK  0 active torsions:
REMARK  status: ('A' for Active; 'I' for Inactive)
REMARK                            x       y       z     vdW  Elec       q    Type
REMARK                         _______ _______ _______ _____ _____    ______ ____
ROOT
ATOM      1  N   UNL     1      34.995 -16.722 -21.450  0.00  0.00    -0.147 NA
ATOM      2  N   UNL     1      35.527 -17.649 -20.603  0.00  0.00    -0.133 NA
ATOM      3  N   UNL     1      36.250 -19.873 -20.152  0.00  0.00    -0.341 N 
ATOM      4  C   UNL     1      34.566 -17.566 -25.547  0.00  0.00    +0.031 C 
ATOM      5  C   UNL     1      34.418 -18.742 -24.575  0.00  0.00    +0.033 C 
ATOM      6  C   UNL     1      34.008 -16.281 -24.980  0.00  0.00    -0.020 C 
ATOM      7  C   UNL     1      34.853 -18.372 -23.182  0.00  0.00    +0.000 C 
ATOM      8  C   UNL     1      34.091 -16.037 -23.589  0.00  0.00    +0.015 C 
ATOM      9  C   UNL     1      34.661 -17.072 -22.714  0.00  0.00    +0.099 C 
ATOM     10  C   UNL     1      33.484 -15.306 -25.840  0.00  0.00    -0.004 C 
ATOM     11  C   UNL     1      35.380 -19.318 -22.312  0.00  0.00    +0.033 C 
ATOM     12  C   UNL     1      33.618 -14.809 -23.099  0.00  0.00    +0.001 C 
ATOM     13  C   UNL     1      33.017 -14.097 -25.331  0.00  0.00    -0.000 C 
ATOM     14  C   UNL     1      33.083 -13.850 -23.962  0.00  0.00    +0.000 C 
ATOM     15  C   UNL     1      35.707 -18.911 -21.036  0.00  0.00    +0.147 C 
ATOM     16  H   UNL     1      36.494 -19.616 -19.234  0.00  0.00    +0.144 HD
ATOM     17  H   UNL     1      36.383 -20.800 -20.456  0.00  0.00    +0.144 HD
ENDROOT
TORSDOF 0
ENDMDL
MODEL 3
REMARK VINA RESULT:      -8.8      5.082      7.774
REMARK  Name = 5288116
REMARK  0 active torsions:
REMARK  status: ('A' for Active; 'I' for Inactive)
REMARK                            x       y       z     vdW  Elec       q    Type
REMARK                         _______ _______ _______ _____ _____    ______ ____
ROOT
ATOM      1  N   UNL     1      32.969 -21.002 -19.734  0.00  0.00    -0.147 NA
ATOM      2  N   UNL     1      32.494 -21.882 -18.806  0.00  0.00    -0.133 NA
ATOM      3  N   UNL     1      32.870 -23.535 -17.132  0.00  0.00    -0.341 N 
ATOM      4  C   UNL     1      37.064 -20.061 -19.890  0.00  0.00    +0.031 C 
ATOM      5  C   UNL     1      36.693 -21.481 -19.449  0.00  0.00    +0.033 C 
ATOM      6  C   UNL     1      36.127 -19.528 -20.949  0.00  0.00    -0.020 C 
ATOM      7  C   UNL     1      35.218 -21.613 -19.176  0.00  0.00    +0.000 C 
ATOM      8  C   UNL     1      34.764 -19.908 -20.933  0.00  0.00    +0.015 C 
ATOM      9  C   UNL     1      34.303 -20.869 -19.920  0.00  0.00    +0.099 C 
ATOM     10  C   UNL     1      36.592 -18.600 -21.893  0.00  0.00    -0.004 C 
ATOM     11  C   UNL     1      34.731 -22.519 -18.244  0.00  0.00    +0.033 C 
ATOM     12  C   UNL     1      33.905 -19.349 -21.893  0.00  0.00    +0.001 C 
ATOM     13  C   UNL     1      35.723 -18.064 -22.838  0.00  0.00    -0.000 C 
ATOM     14  C   UNL     1      34.382 -18.438 -22.840  0.00  0.00    +0.000 C 
ATOM     15  C   UNL     1      33.365 -22.617 -18.088  0.00  0.00    +0.147 C 
ATOM     16  H   UNL     1      31.900 -23.629 -16.997  0.00  0.00    +0.144 HD
ATOM     17  H   UNL     1      33.497 -24.080 -16.604  0.00  0.00    +0.144 HD
ENDROOT
TORSDOF 0
ENDMDL
MODEL 4
REMARK VINA RESULT:      -8.5      2.294      4.963
REMARK  Name = 5288116
REMARK  0 active torsions:
REMARK  status: ('A' for Active; 'I' for Inactive)
REMARK                            x       y       z     vdW  Elec       q    Type
REMARK                         _______ _______ _______ _____ _____    ______ ____
ROOT
ATOM      1  N   UNL     1      34.755 -18.110 -23.441  0.00  0.00    -0.147 NA
ATOM      2  N   UNL     1      35.270 -19.045 -22.592  0.00  0.00    -0.133 NA
ATOM      3  N   UNL     1      36.079 -19.672 -20.441  0.00  0.00    -0.341 N 
ATOM      4  C   UNL     1      33.359 -14.426 -21.972  0.00  0.00    +0.031 C 
ATOM      5  C   UNL     1      34.538 -15.067 -21.233  0.00  0.00    +0.033 C 
ATOM      6  C   UNL     1      33.417 -14.670 -23.463  0.00  0.00    -0.020 C 
ATOM      7  C   UNL     1      34.769 -16.487 -21.677  0.00  0.00    +0.000 C 
ATOM      8  C   UNL     1      33.956 -15.883 -23.952  0.00  0.00    +0.015 C 
ATOM      9  C   UNL     1      34.510 -16.855 -22.998  0.00  0.00    +0.099 C 
ATOM     10  C   UNL     1      32.866 -13.731 -24.347  0.00  0.00    -0.004 C 
ATOM     11  C   UNL     1      35.308 -17.438 -20.820  0.00  0.00    +0.033 C 
ATOM     12  C   UNL     1      33.942 -16.107 -25.338  0.00  0.00    +0.001 C 
ATOM     13  C   UNL     1      32.868 -13.973 -25.718  0.00  0.00    -0.000 C 
ATOM     14  C   UNL     1      33.406 -15.159 -26.213  0.00  0.00    +0.000 C 
ATOM     15  C   UNL     1      35.536 -18.702 -21.317  0.00  0.00    +0.147 C 
ATOM     16  H   UNL     1      36.254 -20.585 -20.764  0.00  0.00    +0.144 HD
ATOM     17  H   UNL     1      36.280 -19.432 -19.508  0.00  0.00    +0.144 HD
ENDROOT
TORSDOF 0
ENDMDL
MODEL 5
REMARK VINA RESULT:      -8.5      9.156     11.883
REMARK  Name = 5288116
REMARK  0 active torsions:
REMARK  status: ('A' for Active; 'I' for Inactive)
REMARK                            x       y       z     vdW  Elec       q    Type
REMARK                         _______ _______ _______ _____ _____    ______ ____
ROOT
ATOM      1  N   UNL     1      37.508 -22.864 -15.053  0.00  0.00    -0.147 NA
ATOM      2  N   UNL     1      37.851 -23.238 -13.786  0.00  0.00    -0.133 NA
ATOM      3  N   UNL     1      37.242 -24.000 -11.613  0.00  0.00    -0.341 N 
ATOM      4  C   UNL     1      33.622 -23.542 -16.507  0.00  0.00    +0.031 C 
ATOM      5  C   UNL     1      33.763 -23.249 -15.010  0.00  0.00    +0.033 C 
ATOM      6  C   UNL     1      34.612 -22.760 -17.339  0.00  0.00    -0.020 C 
ATOM      7  C   UNL     1      35.201 -23.291 -14.566  0.00  0.00    +0.000 C 
ATOM      8  C   UNL     1      35.893 -22.472 -16.813  0.00  0.00    +0.015 C 
ATOM      9  C   UNL     1      36.211 -22.886 -15.438  0.00  0.00    +0.099 C 
ATOM     10  C   UNL     1      34.287 -22.392 -18.652  0.00  0.00    -0.004 C 
ATOM     11  C   UNL     1      35.551 -23.656 -13.272  0.00  0.00    +0.033 C 
ATOM     12  C   UNL     1      36.813 -21.795 -17.631  0.00  0.00    +0.001 C 
ATOM     13  C   UNL     1      35.213 -21.718 -19.443  0.00  0.00    -0.000 C 
ATOM     14  C   UNL     1      36.473 -21.419 -18.933  0.00  0.00    +0.000 C 
ATOM     15  C   UNL     1      36.885 -23.620 -12.929  0.00  0.00    +0.147 C 
ATOM     16  H   UNL     1      38.186 -23.985 -11.335  0.00  0.00    +0.144 HD
ATOM     17  H   UNL     1      36.545 -24.278 -10.976  0.00  0.00    +0.144 HD
ENDROOT
TORSDOF 0
ENDMDL
MODEL 6
REMARK VINA RESULT:      -8.4      2.704      3.618
REMARK  Name = 5288116
REMARK  0 active torsions:
REMARK  status: ('A' for Active; 'I' for Inactive)
REMARK                            x       y       z     vdW  Elec       q    Type
REMARK                         _______ _______ _______ _____ _____    ______ ____
ROOT
ATOM      1  N   UNL     1      32.713 -13.222 -23.418  0.00  0.00    -0.147 NA
ATOM      2  N   UNL     1      32.067 -12.134 -22.908  0.00  0.00    -0.133 NA
ATOM      3  N   UNL     1      31.126 -10.957 -21.063  0.00  0.00    -0.341 N 
ATOM      4  C   UNL     1      34.481 -16.053 -20.862  0.00  0.00    +0.031 C 
ATOM      5  C   UNL     1      33.214 -15.356 -20.357  0.00  0.00    +0.033 C 
ATOM      6  C   UNL     1      34.441 -16.304 -22.352  0.00  0.00    -0.020 C 
ATOM      7  C   UNL     1      32.834 -14.189 -21.229  0.00  0.00    +0.000 C 
ATOM      8  C   UNL     1      33.780 -15.384 -23.198  0.00  0.00    +0.015 C 
ATOM      9  C   UNL     1      33.088 -14.232 -22.600  0.00  0.00    +0.099 C 
ATOM     10  C   UNL     1      35.123 -17.403 -22.895  0.00  0.00    -0.004 C 
ATOM     11  C   UNL     1      32.162 -13.087 -20.715  0.00  0.00    +0.033 C 
ATOM     12  C   UNL     1      33.810 -15.612 -24.584  0.00  0.00    +0.001 C 
ATOM     13  C   UNL     1      35.135 -17.611 -24.272  0.00  0.00    -0.000 C 
ATOM     14  C   UNL     1      34.479 -16.717 -25.114  0.00  0.00    +0.000 C 
ATOM     15  C   UNL     1      31.804 -12.083 -21.588  0.00  0.00    +0.147 C 
ATOM     16  H   UNL     1      30.856 -10.223 -21.660  0.00  0.00    +0.144 HD
ATOM     17  H   UNL     1      30.925 -10.910 -20.101  0.00  0.00    +0.144 HD
ENDROOT
TORSDOF 0
ENDMDL
MODEL 7
REMARK VINA RESULT:      -8.3      2.650      3.387
REMARK  Name = 5288116
REMARK  0 active torsions:
REMARK  status: ('A' for Active; 'I' for Inactive)
REMARK                            x       y       z     vdW  Elec       q    Type
REMARK                         _______ _______ _______ _____ _____    ______ ____
ROOT
ATOM      1  N   UNL     1      33.084 -14.790 -20.966  0.00  0.00    -0.147 NA
ATOM      2  N   UNL     1      32.315 -13.671 -20.838  0.00  0.00    -0.133 NA
ATOM      3  N   UNL     1      31.240 -11.772 -21.795  0.00  0.00    -0.341 N 
ATOM      4  C   UNL     1      33.987 -16.342 -24.768  0.00  0.00    +0.031 C 
ATOM      5  C   UNL     1      33.832 -14.821 -24.656  0.00  0.00    +0.033 C 
ATOM      6  C   UNL     1      34.624 -16.944 -23.538  0.00  0.00    -0.020 C 
ATOM      7  C   UNL     1      33.253 -14.416 -23.327  0.00  0.00    +0.000 C 
ATOM      8  C   UNL     1      34.374 -16.371 -22.269  0.00  0.00    +0.015 C 
ATOM      9  C   UNL     1      33.548 -15.158 -22.183  0.00  0.00    +0.099 C 
ATOM     10  C   UNL     1      35.395 -18.111 -23.649  0.00  0.00    -0.004 C 
ATOM     11  C   UNL     1      32.483 -13.268 -23.191  0.00  0.00    +0.033 C 
ATOM     12  C   UNL     1      34.931 -16.988 -21.138  0.00  0.00    +0.001 C 
ATOM     13  C   UNL     1      35.941 -18.702 -22.513  0.00  0.00    -0.000 C 
ATOM     14  C   UNL     1      35.711 -18.141 -21.260  0.00  0.00    +0.000 C 
ATOM     15  C   UNL     1      32.031 -12.938 -21.931  0.00  0.00    +0.147 C 
ATOM     16  H   UNL     1      30.902 -11.508 -20.909  0.00  0.00    +0.144 HD
ATOM     17  H   UNL     1      31.029 -11.227 -22.586  0.00  0.00    +0.144 HD
ENDROOT
TORSDOF 0
ENDMDL
MODEL 8
REMARK VINA RESULT:      -8.3      2.190      4.727
REMARK  Name = 5288116
REMARK  0 active torsions:
REMARK  status: ('A' for Active; 'I' for Inactive)
REMARK                            x       y       z     vdW  Elec       q    Type
REMARK                         _______ _______ _______ _____ _____    ______ ____
ROOT
ATOM      1  N   UNL     1      33.077 -14.409 -24.397  0.00  0.00    -0.147 NA
ATOM      2  N   UNL     1      33.625 -15.398 -25.161  0.00  0.00    -0.133 NA
ATOM      3  N   UNL     1      34.871 -17.419 -25.356  0.00  0.00    -0.341 N 
ATOM      4  C   UNL     1      32.863 -14.806 -20.217  0.00  0.00    +0.031 C 
ATOM      5  C   UNL     1      34.060 -15.459 -20.917  0.00  0.00    +0.033 C 
ATOM      6  C   UNL     1      32.455 -13.507 -20.872  0.00  0.00    -0.020 C 
ATOM      7  C   UNL     1      33.887 -15.481 -22.412  0.00  0.00    +0.000 C 
ATOM      8  C   UNL     1      32.599 -13.355 -22.271  0.00  0.00    +0.015 C 
ATOM      9  C   UNL     1      33.206 -14.445 -23.050  0.00  0.00    +0.099 C 
ATOM     10  C   UNL     1      31.865 -12.492 -20.106  0.00  0.00    -0.004 C 
ATOM     11  C   UNL     1      34.457 -16.478 -23.194  0.00  0.00    +0.033 C 
ATOM     12  C   UNL     1      32.156 -12.160 -22.860  0.00  0.00    +0.001 C 
ATOM     13  C   UNL     1      31.438 -11.314 -20.711  0.00  0.00    -0.000 C 
ATOM     14  C   UNL     1      31.584 -11.147 -22.085  0.00  0.00    +0.000 C 
ATOM     15  C   UNL     1      34.296 -16.399 -24.560  0.00  0.00    +0.147 C 
ATOM     16  H   UNL     1      34.774 -17.393 -26.335  0.00  0.00    +0.144 HD
ATOM     17  H   UNL     1      35.366 -18.154 -24.928  0.00  0.00    +0.144 HD
ENDROOT
TORSDOF 0
ENDMDL
MODEL 9
REMARK VINA RESULT:      -8.3     10.098     11.688
REMARK  Name = 5288116
REMARK  0 active torsions:
REMARK  status: ('A' for Active; 'I' for Inactive)
REMARK                            x       y       z     vdW  Elec       q    Type
REMARK                         _______ _______ _______ _____ _____    ______ ____
ROOT
ATOM      1  N   UNL     1      29.983 -22.241 -17.026  0.00  0.00    -0.147 NA
ATOM      2  N   UNL     1      28.639 -22.005 -16.996  0.00  0.00    -0.133 NA
ATOM      3  N   UNL     1      26.509 -22.275 -15.966  0.00  0.00    -0.341 N 
ATOM      4  C   UNL     1      31.934 -23.924 -13.704  0.00  0.00    +0.031 C 
ATOM      5  C   UNL     1      30.486 -24.358 -13.953  0.00  0.00    +0.033 C 
ATOM      6  C   UNL     1      32.694 -23.700 -14.991  0.00  0.00    -0.020 C 
ATOM      7  C   UNL     1      29.817 -23.499 -14.993  0.00  0.00    +0.000 C 
ATOM      8  C   UNL     1      32.014 -23.202 -16.126  0.00  0.00    +0.015 C 
ATOM      9  C   UNL     1      30.563 -22.975 -16.048  0.00  0.00    +0.099 C 
ATOM     10  C   UNL     1      34.080 -23.911 -15.030  0.00  0.00    -0.004 C 
ATOM     11  C   UNL     1      28.447 -23.270 -14.974  0.00  0.00    +0.033 C 
ATOM     12  C   UNL     1      32.758 -22.948 -17.290  0.00  0.00    +0.001 C 
ATOM     13  C   UNL     1      34.796 -23.656 -16.196  0.00  0.00    -0.000 C 
ATOM     14  C   UNL     1      34.136 -23.177 -17.325  0.00  0.00    +0.000 C 
ATOM     15  C   UNL     1      27.903 -22.514 -15.990  0.00  0.00    +0.147 C 
ATOM     16  H   UNL     1      26.089 -21.740 -16.676  0.00  0.00    +0.144 HD
ATOM     17  H   UNL     1      25.960 -22.645 -15.237  0.00  0.00    +0.144 HD
ENDROOT
TORSDOF 0
ENDMDL
