MODEL 1
REMARK VINA RESULT:      -9.5      0.000      0.000
REMARK  Name = 1432578
REMARK  3 active torsions:
REMARK  status: ('A' for Active; 'I' for Inactive)
REMARK    1  A    between atoms: C_3  and  C_8
REMARK    2  A    between atoms: C_8  and  O_9
REMARK    3  A    between atoms: N_11  and  C_14
REMARK                            x       y       z     vdW  Elec       q    Type
REMARK                         _______ _______ _______ _____ _____    ______ ____
ROOT
ATOM      1  N   UNL     1      34.786 -16.603 -21.095  0.00  0.00    -0.229 NA
ATOM      2  C   UNL     1      34.768 -17.292 -22.263  0.00  0.00    +0.138 C 
ATOM      3  C   UNL     1      34.584 -16.692 -23.502  0.00  0.00    +0.107 C 
ATOM      4  C   UNL     1      34.410 -15.313 -23.545  0.00  0.00    +0.011 C 
ATOM      5  C   UNL     1      34.423 -14.579 -22.365  0.00  0.00    +0.021 C 
ATOM      6  C   UNL     1      34.613 -15.266 -21.176  0.00  0.00    +0.100 C 
ATOM      7  N   UNL     1      34.943 -18.689 -22.212  0.00  0.00    -0.298 N 
ATOM      8  H   UNL     1      35.374 -19.064 -23.014  0.00  0.00    +0.154 HD
ENDROOT
BRANCH   7  10
ATOM      9 CL   UNL     1      33.598 -22.751 -18.119  0.00  0.00    -0.082 Cl
ATOM     10  C   UNL     1      34.622 -19.657 -21.236  0.00  0.00    +0.049 C 
ATOM     11  C   UNL     1      35.638 -20.390 -20.622  0.00  0.00    +0.016 C 
ATOM     12  C   UNL     1      33.291 -19.880 -20.887  0.00  0.00    +0.016 C 
ATOM     13  C   UNL     1      35.320 -21.347 -19.657  0.00  0.00    +0.013 C 
ATOM     14  C   UNL     1      32.974 -20.837 -19.922  0.00  0.00    +0.013 C 
ATOM     15  C   UNL     1      33.988 -21.570 -19.307  0.00  0.00    +0.058 C 
ENDBRANCH   7  10
BRANCH   3  17
ATOM     16  O   UNL     1      34.229 -18.633 -24.854  0.00  0.00    -0.245 OA
ATOM     17  C   UNL     1      34.568 -17.452 -24.745  0.00  0.00    +0.341 C 
BRANCH  17  18
ATOM     18  O   UNL     1      34.976 -16.712 -25.810  0.00  0.00    -0.477 OA
ATOM     19  H   UNL     1      34.342 -16.349 -26.399  0.00  0.00    +0.295 HD
ENDBRANCH  17  18
ENDBRANCH   3  17
TORSDOF 3
ENDMDL
MODEL 2
REMARK VINA RESULT:      -8.9      1.212      1.426
REMARK  Name = 1432578
REMARK  3 active torsions:
REMARK  status: ('A' for Active; 'I' for Inactive)
REMARK    1  A    between atoms: C_3  and  C_8
REMARK    2  A    between atoms: C_8  and  O_9
REMARK    3  A    between atoms: N_11  and  C_14
REMARK                            x       y       z     vdW  Elec       q    Type
REMARK                         _______ _______ _______ _____ _____    ______ ____
ROOT
ATOM      1  N   UNL     1      34.747 -15.680 -21.675  0.00  0.00    -0.229 NA
ATOM      2  C   UNL     1      34.699 -16.355 -22.851  0.00  0.00    +0.138 C 
ATOM      3  C   UNL     1      34.175 -15.817 -24.020  0.00  0.00    +0.107 C 
ATOM      4  C   UNL     1      33.676 -14.520 -23.981  0.00  0.00    +0.011 C 
ATOM      5  C   UNL     1      33.711 -13.802 -22.791  0.00  0.00    +0.021 C 
ATOM      6  C   UNL     1      34.252 -14.422 -21.676  0.00  0.00    +0.100 C 
ATOM      7  N   UNL     1      35.205 -17.669 -22.883  0.00  0.00    -0.298 N 
ATOM      8  H   UNL     1      35.572 -17.930 -23.758  0.00  0.00    +0.154 HD
ENDROOT
BRANCH   7  10
ATOM      9 CL   UNL     1      35.554 -21.929 -18.785  0.00  0.00    -0.082 Cl
ATOM     10  C   UNL     1      35.287 -18.684 -21.906  0.00  0.00    +0.049 C 
ATOM     11  C   UNL     1      36.512 -18.973 -21.304  0.00  0.00    +0.016 C 
ATOM     12  C   UNL     1      34.145 -19.398 -21.543  0.00  0.00    +0.016 C 
ATOM     13  C   UNL     1      36.594 -19.977 -20.338  0.00  0.00    +0.013 C 
ATOM     14  C   UNL     1      34.229 -20.402 -20.578  0.00  0.00    +0.013 C 
ATOM     15  C   UNL     1      35.452 -20.691 -19.975  0.00  0.00    +0.058 C 
ENDBRANCH   7  10
BRANCH   3  17
ATOM     16  O   UNL     1      34.311 -17.776 -25.387  0.00  0.00    -0.245 OA
ATOM     17  C   UNL     1      34.133 -16.560 -25.272  0.00  0.00    +0.341 C 
BRANCH  17  18
ATOM     18  O   UNL     1      33.870 -15.761 -26.341  0.00  0.00    -0.477 OA
ATOM     19  H   UNL     1      33.318 -16.070 -27.033  0.00  0.00    +0.295 HD
ENDBRANCH  17  18
ENDBRANCH   3  17
TORSDOF 3
ENDMDL
MODEL 3
REMARK VINA RESULT:      -8.6      5.590      8.183
REMARK  Name = 1432578
REMARK  3 active torsions:
REMARK  status: ('A' for Active; 'I' for Inactive)
REMARK    1  A    between atoms: C_3  and  C_8
REMARK    2  A    between atoms: C_8  and  O_9
REMARK    3  A    between atoms: N_11  and  C_14
REMARK                            x       y       z     vdW  Elec       q    Type
REMARK                         _______ _______ _______ _____ _____    ______ ____
ROOT
ATOM      1  N   UNL     1      31.756 -22.682 -17.340  0.00  0.00    -0.229 NA
ATOM      2  C   UNL     1      33.019 -22.982 -16.947  0.00  0.00    +0.138 C 
ATOM      3  C   UNL     1      33.331 -23.480 -15.688  0.00  0.00    +0.107 C 
ATOM      4  C   UNL     1      32.292 -23.680 -14.785  0.00  0.00    +0.011 C 
ATOM      5  C   UNL     1      30.987 -23.382 -15.158  0.00  0.00    +0.021 C 
ATOM      6  C   UNL     1      30.774 -22.889 -16.435  0.00  0.00    +0.100 C 
ATOM      7  N   UNL     1      34.066 -22.775 -17.867  0.00  0.00    -0.298 N 
ATOM      8  H   UNL     1      34.823 -23.394 -17.750  0.00  0.00    +0.154 HD
ENDROOT
BRANCH   7  10
ATOM      9 CL   UNL     1      34.810 -18.910 -22.290  0.00  0.00    -0.082 Cl
ATOM     10  C   UNL     1      34.243 -21.854 -18.921  0.00  0.00    +0.049 C 
ATOM     11  C   UNL     1      35.526 -21.565 -19.385  0.00  0.00    +0.016 C 
ATOM     12  C   UNL     1      33.136 -21.233 -19.498  0.00  0.00    +0.016 C 
ATOM     13  C   UNL     1      35.701 -20.655 -20.428  0.00  0.00    +0.013 C 
ATOM     14  C   UNL     1      33.312 -20.323 -20.541  0.00  0.00    +0.013 C 
ATOM     15  C   UNL     1      34.594 -20.034 -21.006  0.00  0.00    +0.058 C 
ENDBRANCH   7  10
BRANCH   3  17
ATOM     16  O   UNL     1      35.430 -24.617 -15.843  0.00  0.00    -0.245 OA
ATOM     17  C   UNL     1      34.695 -23.796 -15.288  0.00  0.00    +0.341 C 
BRANCH  17  18
ATOM     18  O   UNL     1      35.099 -23.074 -14.208  0.00  0.00    -0.477 OA
ATOM     19  H   UNL     1      35.299 -22.163 -14.301  0.00  0.00    +0.295 HD
ENDBRANCH  17  18
ENDBRANCH   3  17
TORSDOF 3
ENDMDL
MODEL 4
REMARK VINA RESULT:      -8.5      9.899     11.547
REMARK  Name = 1432578
REMARK  3 active torsions:
REMARK  status: ('A' for Active; 'I' for Inactive)
REMARK    1  A    between atoms: C_3  and  C_8
REMARK    2  A    between atoms: C_8  and  O_9
REMARK    3  A    between atoms: N_11  and  C_14
REMARK                            x       y       z     vdW  Elec       q    Type
REMARK                         _______ _______ _______ _____ _____    ______ ____
ROOT
ATOM      1  N   UNL     1      35.795 -25.240 -14.864  0.00  0.00    -0.229 NA
ATOM      2  C   UNL     1      35.580 -24.731 -13.625  0.00  0.00    +0.138 C 
ATOM      3  C   UNL     1      36.455 -24.914 -12.561  0.00  0.00    +0.107 C 
ATOM      4  C   UNL     1      37.610 -25.657 -12.780  0.00  0.00    +0.011 C 
ATOM      5  C   UNL     1      37.858 -26.191 -14.039  0.00  0.00    +0.021 C 
ATOM      6  C   UNL     1      36.928 -25.956 -15.038  0.00  0.00    +0.100 C 
ATOM      7  N   UNL     1      34.407 -23.981 -13.410  0.00  0.00    -0.298 N 
ATOM      8  H   UNL     1      34.504 -23.285 -12.720  0.00  0.00    +0.154 HD
ENDROOT
BRANCH   7  10
ATOM      9 CL   UNL     1      29.012 -24.199 -15.838  0.00  0.00    -0.082 Cl
ATOM     10  C   UNL     1      33.122 -24.032 -13.988  0.00  0.00    +0.049 C 
ATOM     11  C   UNL     1      32.199 -24.983 -13.552  0.00  0.00    +0.016 C 
ATOM     12  C   UNL     1      32.774 -23.134 -14.997  0.00  0.00    +0.016 C 
ATOM     13  C   UNL     1      30.927 -25.034 -14.124  0.00  0.00    +0.013 C 
ATOM     14  C   UNL     1      31.502 -23.186 -15.568  0.00  0.00    +0.013 C 
ATOM     15  C   UNL     1      30.579 -24.135 -15.132  0.00  0.00    +0.058 C 
ENDBRANCH   7  10
BRANCH   3  17
ATOM     16  O   UNL     1      36.807 -23.406 -10.738  0.00  0.00    -0.245 OA
ATOM     17  C   UNL     1      36.204 -24.358 -11.238  0.00  0.00    +0.341 C 
BRANCH  17  18
ATOM     18  O   UNL     1      35.206 -25.011 -10.583  0.00  0.00    -0.477 OA
ATOM     19  H   UNL     1      35.199 -25.036  -9.646  0.00  0.00    +0.295 HD
ENDBRANCH  17  18
ENDBRANCH   3  17
TORSDOF 3
ENDMDL
MODEL 5
REMARK VINA RESULT:      -8.3      4.319      6.870
REMARK  Name = 1432578
REMARK  3 active torsions:
REMARK  status: ('A' for Active; 'I' for Inactive)
REMARK    1  A    between atoms: C_3  and  C_8
REMARK    2  A    between atoms: C_8  and  O_9
REMARK    3  A    between atoms: N_11  and  C_14
REMARK                            x       y       z     vdW  Elec       q    Type
REMARK                         _______ _______ _______ _____ _____    ______ ____
ROOT
ATOM      1  N   UNL     1      34.184 -15.585 -21.665  0.00  0.00    -0.229 NA
ATOM      2  C   UNL     1      34.041 -15.739 -23.005  0.00  0.00    +0.138 C 
ATOM      3  C   UNL     1      34.586 -16.802 -23.715  0.00  0.00    +0.107 C 
ATOM      4  C   UNL     1      35.313 -17.757 -23.013  0.00  0.00    +0.011 C 
ATOM      5  C   UNL     1      35.477 -17.627 -21.638  0.00  0.00    +0.021 C 
ATOM      6  C   UNL     1      34.897 -16.533 -21.017  0.00  0.00    +0.100 C 
ATOM      7  N   UNL     1      33.305 -14.767 -23.710  0.00  0.00    -0.298 N 
ATOM      8  H   UNL     1      32.846 -15.119 -24.507  0.00  0.00    +0.154 HD
ENDROOT
BRANCH   7  10
ATOM      9 CL   UNL     1      32.429  -8.979 -22.820  0.00  0.00    -0.082 Cl
ATOM     10  C   UNL     1      33.095 -13.388 -23.497  0.00  0.00    +0.049 C 
ATOM     11  C   UNL     1      33.813 -12.452 -24.242  0.00  0.00    +0.016 C 
ATOM     12  C   UNL     1      32.172 -12.961 -22.544  0.00  0.00    +0.016 C 
ATOM     13  C   UNL     1      33.606 -11.088 -24.032  0.00  0.00    +0.013 C 
ATOM     14  C   UNL     1      31.966 -11.597 -22.335  0.00  0.00    +0.013 C 
ATOM     15  C   UNL     1      32.682 -10.661 -23.078  0.00  0.00    +0.058 C 
ENDBRANCH   7  10
BRANCH   3  17
ATOM     16  O   UNL     1      34.389 -16.019 -25.966  0.00  0.00    -0.245 OA
ATOM     17  C   UNL     1      34.420 -16.948 -25.154  0.00  0.00    +0.341 C 
BRANCH  17  18
ATOM     18  O   UNL     1      34.301 -18.249 -25.534  0.00  0.00    -0.477 OA
ATOM     19  H   UNL     1      34.606 -18.931 -24.968  0.00  0.00    +0.295 HD
ENDBRANCH  17  18
ENDBRANCH   3  17
TORSDOF 3
ENDMDL
MODEL 6
REMARK VINA RESULT:      -8.3      4.309      6.611
REMARK  Name = 1432578
REMARK  3 active torsions:
REMARK  status: ('A' for Active; 'I' for Inactive)
REMARK    1  A    between atoms: C_3  and  C_8
REMARK    2  A    between atoms: C_8  and  O_9
REMARK    3  A    between atoms: N_11  and  C_14
REMARK                            x       y       z     vdW  Elec       q    Type
REMARK                         _______ _______ _______ _____ _____    ______ ____
ROOT
ATOM      1  N   UNL     1      34.210 -16.399 -24.427  0.00  0.00    -0.229 NA
ATOM      2  C   UNL     1      34.576 -16.506 -23.125  0.00  0.00    +0.138 C 
ATOM      3  C   UNL     1      34.981 -17.700 -22.540  0.00  0.00    +0.107 C 
ATOM      4  C   UNL     1      35.014 -18.842 -23.332  0.00  0.00    +0.011 C 
ATOM      5  C   UNL     1      34.646 -18.764 -24.670  0.00  0.00    +0.021 C 
ATOM      6  C   UNL     1      34.255 -17.530 -25.165  0.00  0.00    +0.100 C 
ATOM      7  N   UNL     1      34.538 -15.346 -22.328  0.00  0.00    -0.298 N 
ATOM      8  H   UNL     1      35.203 -15.342 -21.602  0.00  0.00    +0.154 HD
ENDROOT
BRANCH   7  10
ATOM      9 CL   UNL     1      31.160 -10.485 -22.485  0.00  0.00    -0.082 Cl
ATOM     10  C   UNL     1      33.734 -14.187 -22.365  0.00  0.00    +0.049 C 
ATOM     11  C   UNL     1      32.774 -13.973 -21.376  0.00  0.00    +0.016 C 
ATOM     12  C   UNL     1      33.898 -13.257 -23.391  0.00  0.00    +0.016 C 
ATOM     13  C   UNL     1      31.978 -12.827 -21.413  0.00  0.00    +0.013 C 
ATOM     14  C   UNL     1      33.101 -12.111 -23.428  0.00  0.00    +0.013 C 
ATOM     15  C   UNL     1      32.142 -11.897 -22.439  0.00  0.00    +0.058 C 
ENDBRANCH   7  10
BRANCH   3  17
ATOM     16  O   UNL     1      35.344 -16.862 -20.329  0.00  0.00    -0.245 OA
ATOM     17  C   UNL     1      35.369 -17.792 -21.139  0.00  0.00    +0.341 C 
BRANCH  17  18
ATOM     18  O   UNL     1      35.774 -19.044 -20.795  0.00  0.00    -0.477 OA
ATOM     19  H   UNL     1      35.532 -19.777 -21.325  0.00  0.00    +0.295 HD
ENDBRANCH  17  18
ENDBRANCH   3  17
TORSDOF 3
ENDMDL
MODEL 7
REMARK VINA RESULT:      -8.2      4.576      7.302
REMARK  Name = 1432578
REMARK  3 active torsions:
REMARK  status: ('A' for Active; 'I' for Inactive)
REMARK    1  A    between atoms: C_3  and  C_8
REMARK    2  A    between atoms: C_8  and  O_9
REMARK    3  A    between atoms: N_11  and  C_14
REMARK                            x       y       z     vdW  Elec       q    Type
REMARK                         _______ _______ _______ _____ _____    ______ ____
ROOT
ATOM      1  N   UNL     1      34.103 -22.390 -18.598  0.00  0.00    -0.229 NA
ATOM      2  C   UNL     1      35.352 -22.028 -18.211  0.00  0.00    +0.138 C 
ATOM      3  C   UNL     1      35.889 -22.344 -16.968  0.00  0.00    +0.107 C 
ATOM      4  C   UNL     1      35.104 -23.069 -16.079  0.00  0.00    +0.011 C 
ATOM      5  C   UNL     1      33.821 -23.455 -16.447  0.00  0.00    +0.021 C 
ATOM      6  C   UNL     1      33.371 -23.093 -17.707  0.00  0.00    +0.100 C 
ATOM      7  N   UNL     1      36.141 -21.292 -19.116  0.00  0.00    -0.298 N 
ATOM      8  H   UNL     1      37.107 -21.450 -19.019  0.00  0.00    +0.154 HD
ENDROOT
BRANCH   7  10
ATOM      9 CL   UNL     1      34.779 -17.432 -23.395  0.00  0.00    -0.082 Cl
ATOM     10  C   UNL     1      35.817 -20.372 -20.136  0.00  0.00    +0.049 C 
ATOM     11  C   UNL     1      34.505 -20.282 -20.601  0.00  0.00    +0.016 C 
ATOM     12  C   UNL     1      36.807 -19.553 -20.678  0.00  0.00    +0.016 C 
ATOM     13  C   UNL     1      34.184 -19.372 -21.610  0.00  0.00    +0.013 C 
ATOM     14  C   UNL     1      36.485 -18.644 -21.686  0.00  0.00    +0.013 C 
ATOM     15  C   UNL     1      35.175 -18.553 -22.152  0.00  0.00    +0.058 C 
ENDBRANCH   7  10
BRANCH   3  17
ATOM     16  O   UNL     1      38.091 -22.696 -16.103  0.00  0.00    -0.245 OA
ATOM     17  C   UNL     1      37.233 -21.945 -16.573  0.00  0.00    +0.341 C 
BRANCH  17  18
ATOM     18  O   UNL     1      37.461 -20.620 -16.779  0.00  0.00    -0.477 OA
ATOM     19  H   UNL     1      37.514 -20.034 -16.049  0.00  0.00    +0.295 HD
ENDBRANCH  17  18
ENDBRANCH   3  17
TORSDOF 3
ENDMDL
MODEL 8
REMARK VINA RESULT:      -8.0      6.538      9.236
REMARK  Name = 1432578
REMARK  3 active torsions:
REMARK  status: ('A' for Active; 'I' for Inactive)
REMARK    1  A    between atoms: C_3  and  C_8
REMARK    2  A    between atoms: C_8  and  O_9
REMARK    3  A    between atoms: N_11  and  C_14
REMARK                            x       y       z     vdW  Elec       q    Type
REMARK                         _______ _______ _______ _____ _____    ______ ____
ROOT
ATOM      1  N   UNL     1      33.477 -12.470 -26.086  0.00  0.00    -0.229 NA
ATOM      2  C   UNL     1      33.804 -12.811 -24.815  0.00  0.00    +0.138 C 
ATOM      3  C   UNL     1      33.779 -14.118 -24.343  0.00  0.00    +0.107 C 
ATOM      4  C   UNL     1      33.400 -15.127 -25.221  0.00  0.00    +0.011 C 
ATOM      5  C   UNL     1      33.060 -14.809 -26.531  0.00  0.00    +0.021 C 
ATOM      6  C   UNL     1      33.114 -13.478 -26.911  0.00  0.00    +0.100 C 
ATOM      7  N   UNL     1      34.185 -11.783 -23.930  0.00  0.00    -0.298 N 
ATOM      8  H   UNL     1      34.821 -12.074 -23.237  0.00  0.00    +0.154 HD
ENDROOT
BRANCH   7  10
ATOM      9 CL   UNL     1      32.708  -6.061 -23.557  0.00  0.00    -0.082 Cl
ATOM     10  C   UNL     1      33.832 -10.420 -23.841  0.00  0.00    +0.049 C 
ATOM     11  C   UNL     1      34.763  -9.437 -24.177  0.00  0.00    +0.016 C 
ATOM     12  C   UNL     1      32.554 -10.056 -23.418  0.00  0.00    +0.016 C 
ATOM     13  C   UNL     1      34.415  -8.089 -24.089  0.00  0.00    +0.013 C 
ATOM     14  C   UNL     1      32.207  -8.707 -23.331  0.00  0.00    +0.013 C 
ATOM     15  C   UNL     1      33.137  -7.724 -23.666  0.00  0.00    +0.058 C 
ENDBRANCH   7  10
BRANCH   3  17
ATOM     16  O   UNL     1      33.623 -13.974 -21.960  0.00  0.00    -0.245 OA
ATOM     17  C   UNL     1      34.133 -14.461 -22.972  0.00  0.00    +0.341 C 
BRANCH  17  18
ATOM     18  O   UNL     1      35.113 -15.402 -22.911  0.00  0.00    -0.477 OA
ATOM     19  H   UNL     1      35.989 -15.184 -23.162  0.00  0.00    +0.295 HD
ENDBRANCH  17  18
ENDBRANCH   3  17
TORSDOF 3
ENDMDL
MODEL 9
REMARK VINA RESULT:      -8.0      3.554      6.134
REMARK  Name = 1432578
REMARK  3 active torsions:
REMARK  status: ('A' for Active; 'I' for Inactive)
REMARK    1  A    between atoms: C_3  and  C_8
REMARK    2  A    between atoms: C_8  and  O_9
REMARK    3  A    between atoms: N_11  and  C_14
REMARK                            x       y       z     vdW  Elec       q    Type
REMARK                         _______ _______ _______ _____ _____    ______ ____
ROOT
ATOM      1  N   UNL     1      33.356 -19.377 -21.322  0.00  0.00    -0.229 NA
ATOM      2  C   UNL     1      34.686 -19.258 -21.089  0.00  0.00    +0.138 C 
ATOM      3  C   UNL     1      35.400 -20.124 -20.269  0.00  0.00    +0.107 C 
ATOM      4  C   UNL     1      34.712 -21.166 -19.657  0.00  0.00    +0.011 C 
ATOM      5  C   UNL     1      33.347 -21.315 -19.877  0.00  0.00    +0.021 C 
ATOM      6  C   UNL     1      32.721 -20.402 -20.711  0.00  0.00    +0.100 C 
ATOM      7  N   UNL     1      35.377 -18.199 -21.710  0.00  0.00    -0.298 N 
ATOM      8  H   UNL     1      36.321 -18.401 -21.903  0.00  0.00    +0.154 HD
ENDROOT
BRANCH   7  10
ATOM      9 CL   UNL     1      33.714 -12.770 -23.390  0.00  0.00    -0.082 Cl
ATOM     10  C   UNL     1      34.980 -16.905 -22.110  0.00  0.00    +0.049 C 
ATOM     11  C   UNL     1      34.891 -16.592 -23.467  0.00  0.00    +0.016 C 
ATOM     12  C   UNL     1      34.677 -15.940 -21.150  0.00  0.00    +0.016 C 
ATOM     13  C   UNL     1      34.499 -15.313 -23.862  0.00  0.00    +0.013 C 
ATOM     14  C   UNL     1      34.285 -14.661 -21.547  0.00  0.00    +0.013 C 
ATOM     15  C   UNL     1      34.196 -14.347 -22.902  0.00  0.00    +0.058 C 
ENDBRANCH   7  10
BRANCH   3  17
ATOM     16  O   UNL     1      37.655 -19.598 -20.866  0.00  0.00    -0.245 OA
ATOM     17  C   UNL     1      36.830 -19.977 -20.032  0.00  0.00    +0.341 C 
BRANCH  17  18
ATOM     18  O   UNL     1      37.181 -20.307 -18.760  0.00  0.00    -0.477 OA
ATOM     19  H   UNL     1      38.042 -20.110 -18.446  0.00  0.00    +0.295 HD
ENDBRANCH  17  18
ENDBRANCH   3  17
TORSDOF 3
ENDMDL
